MODEL 1
REMARK VINA RESULT:      -6.1      0.000      0.000
REMARK  9 active torsions:
REMARK  status: ('A' for Active; 'I' for Inactive)
REMARK    1  A    between atoms: N1_2  and  C2_3 
REMARK    2  A    between atoms: C2_3  and  C4_5 
REMARK    3  A    between atoms: C5_6  and  C6_7 
REMARK    4  A    between atoms: C6_7  and  O1_8 
REMARK    5  A    between atoms: O1_8  and  C7_9 
REMARK    6  A    between atoms: C10_12  and  C11_13 
REMARK    7  A    between atoms: C11_13  and  O2_14 
REMARK    8  A    between atoms: C13_16  and  C14_17 
REMARK    9  A    between atoms: C14_17  and  O3_18 
ROOT
HETATM    1  C7  UNL     1      26.677   2.232  51.644  1.00  0.00     0.164 A 
HETATM    2  C8  UNL     1      25.307   2.052  51.548  1.00  0.00     0.059 A 
HETATM    3  C9  UNL     1      24.646   1.127  52.356  1.00  0.00     0.015 A 
HETATM    4  C10 UNL     1      25.399   0.382  53.266  1.00  0.00    -0.008 A 
HETATM    5  C13 UNL     1      26.764   0.607  53.313  1.00  0.00     0.069 A 
HETATM    6  N2  UNL     1      27.386   1.505  52.526  1.00  0.00    -0.227 NA
ENDROOT
BRANCH   1   7
HETATM    7  O1  UNL     1      27.099   3.198  50.746  1.00  0.00    -0.331 OA
BRANCH   7   8
HETATM    8  C6  UNL     1      26.265   3.464  49.634  1.00  0.00     0.205 C 
BRANCH   8   9
HETATM    9  C5  UNL     1      26.529   4.817  49.079  1.00  0.00     0.002 C 
HETATM   10  C4  UNL     1      27.753   5.080  48.658  1.00  0.00     0.028 C 
BRANCH  10  11
HETATM   11  C2  UNL     1      28.344   6.284  48.069  1.00  0.00     0.045 C 
HETATM   12  C3  UNL     1      27.796   7.356  47.509  1.00  0.00     0.045 C 
BRANCH  11  13
HETATM   13  N1  UNL     1      29.712   6.571  47.968  1.00  0.00    -0.273 NA
HETATM   14  C1  UNL     1      30.313   7.522  48.604  1.00  0.00     0.149 C 
ENDBRANCH  11  13
ENDBRANCH  10  11
ENDBRANCH   8   9
ENDBRANCH   7   8
ENDBRANCH   1   7
BRANCH   5  15
HETATM   15  C14 UNL     1      27.508  -0.192  54.277  1.00  0.00     0.226 C 
BRANCH  15  16
HETATM   16  O3  UNL     1      28.264  -1.215  53.723  1.00  0.00    -0.390 OA
HETATM   17  C15 UNL     1      29.627  -0.959  53.802  1.00  0.00     0.201 C 
ENDBRANCH  15  16
ENDBRANCH   5  15
BRANCH   4  18
HETATM   18  C11 UNL     1      24.724  -0.609  54.136  1.00  0.00     0.207 C 
BRANCH  18  19
HETATM   19  O2  UNL     1      23.353  -0.459  53.897  1.00  0.00    -0.391 OA
HETATM   20  C12 UNL     1      22.579  -1.112  54.841  1.00  0.00     0.201 C 
ENDBRANCH  18  19
ENDBRANCH   4  18
TORSDOF 9
ENDMDL
MODEL 2
REMARK VINA RESULT:      -6.1      3.421      8.263
REMARK  9 active torsions:
REMARK  status: ('A' for Active; 'I' for Inactive)
REMARK    1  A    between atoms: N1_2  and  C2_3 
REMARK    2  A    between atoms: C2_3  and  C4_5 
REMARK    3  A    between atoms: C5_6  and  C6_7 
REMARK    4  A    between atoms: C6_7  and  O1_8 
REMARK    5  A    between atoms: O1_8  and  C7_9 
REMARK    6  A    between atoms: C10_12  and  C11_13 
REMARK    7  A    between atoms: C11_13  and  O2_14 
REMARK    8  A    between atoms: C13_16  and  C14_17 
REMARK    9  A    between atoms: C14_17  and  O3_18 
ROOT
HETATM    1  C7  UNL     1      23.977  -0.496  53.611  1.00  0.00     0.164 A 
HETATM    2  C8  UNL     1      23.540   0.654  52.975  1.00  0.00     0.059 A 
HETATM    3  C9  UNL     1      24.431   1.474  52.282  1.00  0.00     0.015 A 
HETATM    4  C10 UNL     1      25.778   1.110  52.244  1.00  0.00    -0.008 A 
HETATM    5  C13 UNL     1      26.152  -0.050  52.900  1.00  0.00     0.069 A 
HETATM    6  N2  UNL     1      25.279  -0.832  53.564  1.00  0.00    -0.227 NA
ENDROOT
BRANCH   1   7
HETATM    7  O1  UNL     1      22.916  -1.138  54.226  1.00  0.00    -0.331 OA
BRANCH   7   8
HETATM    8  C6  UNL     1      21.783  -0.356  54.558  1.00  0.00     0.205 C 
BRANCH   8   9
HETATM    9  C5  UNL     1      20.526  -1.045  54.172  1.00  0.00     0.002 C 
HETATM   10  C4  UNL     1      19.702  -0.410  53.358  1.00  0.00     0.028 C 
BRANCH  10  11
HETATM   11  C2  UNL     1      18.406  -0.791  52.789  1.00  0.00     0.045 C 
HETATM   12  C3  UNL     1      17.833  -0.511  51.625  1.00  0.00     0.045 C 
BRANCH  11  13
HETATM   13  N1  UNL     1      17.434  -1.589  53.408  1.00  0.00    -0.273 NA
HETATM   14  C1  UNL     1      17.492  -2.876  53.502  1.00  0.00     0.149 C 
ENDBRANCH  11  13
ENDBRANCH  10  11
ENDBRANCH   8   9
ENDBRANCH   7   8
ENDBRANCH   1   7
BRANCH   5  15
HETATM   15  C14 UNL     1      27.567  -0.392  52.833  1.00  0.00     0.226 C 
BRANCH  15  16
HETATM   16  O3  UNL     1      28.099  -0.895  54.012  1.00  0.00    -0.390 OA
HETATM   17  C15 UNL     1      28.687   0.099  54.784  1.00  0.00     0.201 C 
ENDBRANCH  15  16
ENDBRANCH   5  15
BRANCH   4  18
HETATM   18  C11 UNL     1      26.747   1.962  51.516  1.00  0.00     0.207 C 
BRANCH  18  19
HETATM   19  O2  UNL     1      25.990   2.967  50.903  1.00  0.00    -0.391 OA
HETATM   20  C12 UNL     1      26.514   3.350  49.680  1.00  0.00     0.201 C 
ENDBRANCH  18  19
ENDBRANCH   4  18
TORSDOF 9
ENDMDL
MODEL 3
REMARK VINA RESULT:      -6.1      2.745      8.141
REMARK  9 active torsions:
REMARK  status: ('A' for Active; 'I' for Inactive)
REMARK    1  A    between atoms: N1_2  and  C2_3 
REMARK    2  A    between atoms: C2_3  and  C4_5 
REMARK    3  A    between atoms: C5_6  and  C6_7 
REMARK    4  A    between atoms: C6_7  and  O1_8 
REMARK    5  A    between atoms: O1_8  and  C7_9 
REMARK    6  A    between atoms: C10_12  and  C11_13 
REMARK    7  A    between atoms: C11_13  and  O2_14 
REMARK    8  A    between atoms: C13_16  and  C14_17 
REMARK    9  A    between atoms: C14_17  and  O3_18 
ROOT
HETATM    1  C7  UNL     1      26.960   4.357  49.070  1.00  0.00     0.164 A 
HETATM    2  C8  UNL     1      26.083   5.421  48.945  1.00  0.00     0.059 A 
HETATM    3  C9  UNL     1      26.517   6.658  48.468  1.00  0.00     0.015 A 
HETATM    4  C10 UNL     1      27.861   6.801  48.119  1.00  0.00    -0.008 A 
HETATM    5  C13 UNL     1      28.688   5.700  48.266  1.00  0.00     0.069 A 
HETATM    6  N2  UNL     1      28.252   4.512  48.728  1.00  0.00    -0.227 NA
ENDROOT
BRANCH   1   7
HETATM    7  O1  UNL     1      26.299   3.244  49.561  1.00  0.00    -0.331 OA
BRANCH   7   8
HETATM    8  C6  UNL     1      26.368   3.005  50.955  1.00  0.00     0.205 C 
BRANCH   8   9
HETATM    9  C5  UNL     1      26.604   1.567  51.240  1.00  0.00     0.002 C 
HETATM   10  C4  UNL     1      26.770   1.209  52.501  1.00  0.00     0.028 C 
BRANCH  10  11
HETATM   11  C2  UNL     1      27.016  -0.095  53.120  1.00  0.00     0.045 C 
HETATM   12  C3  UNL     1      26.854  -1.333  52.670  1.00  0.00     0.045 C 
BRANCH  11  13
HETATM   13  N1  UNL     1      27.510  -0.318  54.412  1.00  0.00    -0.273 NA
HETATM   14  C1  UNL     1      28.676   0.054  54.828  1.00  0.00     0.149 C 
ENDBRANCH  11  13
ENDBRANCH  10  11
ENDBRANCH   8   9
ENDBRANCH   7   8
ENDBRANCH   1   7
BRANCH   5  15
HETATM   15  C14 UNL     1      30.081   5.895  47.889  1.00  0.00     0.226 C 
BRANCH  15  16
HETATM   16  O3  UNL     1      30.993   5.162  48.636  1.00  0.00    -0.390 OA
HETATM   17  C15 UNL     1      31.730   5.968  49.495  1.00  0.00     0.201 C 
ENDBRANCH  15  16
ENDBRANCH   5  15
BRANCH   4  18
HETATM   18  C11 UNL     1      28.351   8.103  47.610  1.00  0.00     0.207 C 
BRANCH  18  19
HETATM   19  O2  UNL     1      28.014   9.048  48.586  1.00  0.00    -0.391 OA
HETATM   20  C12 UNL     1      29.064   9.314  49.447  1.00  0.00     0.201 C 
ENDBRANCH  18  19
ENDBRANCH   4  18
TORSDOF 9
ENDMDL
MODEL 4
REMARK VINA RESULT:      -5.9      2.741      7.850
REMARK  9 active torsions:
REMARK  status: ('A' for Active; 'I' for Inactive)
REMARK    1  A    between atoms: N1_2  and  C2_3 
REMARK    2  A    between atoms: C2_3  and  C4_5 
REMARK    3  A    between atoms: C5_6  and  C6_7 
REMARK    4  A    between atoms: C6_7  and  O1_8 
REMARK    5  A    between atoms: O1_8  and  C7_9 
REMARK    6  A    between atoms: C10_12  and  C11_13 
REMARK    7  A    between atoms: C11_13  and  O2_14 
REMARK    8  A    between atoms: C13_16  and  C14_17 
REMARK    9  A    between atoms: C14_17  and  O3_18 
ROOT
HETATM    1  C7  UNL     1      24.968   3.974  50.562  1.00  0.00     0.164 A 
HETATM    2  C8  UNL     1      25.964   3.214  49.971  1.00  0.00     0.059 A 
HETATM    3  C9  UNL     1      26.956   3.811  49.194  1.00  0.00     0.015 A 
HETATM    4  C10 UNL     1      26.923   5.196  49.023  1.00  0.00    -0.008 A 
HETATM    5  C13 UNL     1      25.902   5.899  49.639  1.00  0.00     0.069 A 
HETATM    6  N2  UNL     1      24.952   5.307  50.387  1.00  0.00    -0.227 NA
ENDROOT
BRANCH   1   7
HETATM    7  O1  UNL     1      24.105   3.161  51.279  1.00  0.00    -0.331 OA
BRANCH   7   8
HETATM    8  C6  UNL     1      24.324   3.048  52.674  1.00  0.00     0.205 C 
BRANCH   8   9
HETATM    9  C5  UNL     1      24.658   1.650  53.050  1.00  0.00     0.002 C 
HETATM   10  C4  UNL     1      25.934   1.305  53.058  1.00  0.00     0.028 C 
BRANCH  10  11
HETATM   11  C2  UNL     1      26.598   0.038  53.374  1.00  0.00     0.045 C 
HETATM   12  C3  UNL     1      26.736  -1.086  52.682  1.00  0.00     0.045 C 
BRANCH  11  13
HETATM   13  N1  UNL     1      27.275  -0.268  54.562  1.00  0.00    -0.273 NA
HETATM   14  C1  UNL     1      28.470   0.131  54.851  1.00  0.00     0.149 C 
ENDBRANCH  11  13
ENDBRANCH  10  11
ENDBRANCH   8   9
ENDBRANCH   7   8
ENDBRANCH   1   7
BRANCH   5  15
HETATM   15  C14 UNL     1      25.908   7.342  49.434  1.00  0.00     0.226 C 
BRANCH  15  16
HETATM   16  O3  UNL     1      26.340   8.082  50.525  1.00  0.00    -0.390 OA
HETATM   17  C15 UNL     1      27.191   9.114  50.152  1.00  0.00     0.201 C 
ENDBRANCH  15  16
ENDBRANCH   5  15
BRANCH   4  18
HETATM   18  C11 UNL     1      27.964   5.857  48.202  1.00  0.00     0.207 C 
BRANCH  18  19
HETATM   19  O2  UNL     1      29.117   5.076  48.340  1.00  0.00    -0.391 OA
HETATM   20  C12 UNL     1      30.276   5.832  48.286  1.00  0.00     0.201 C 
ENDBRANCH  18  19
ENDBRANCH   4  18
TORSDOF 9
ENDMDL
MODEL 5
REMARK VINA RESULT:      -5.5      1.577      3.437
REMARK  9 active torsions:
REMARK  status: ('A' for Active; 'I' for Inactive)
REMARK    1  A    between atoms: N1_2  and  C2_3 
REMARK    2  A    between atoms: C2_3  and  C4_5 
REMARK    3  A    between atoms: C5_6  and  C6_7 
REMARK    4  A    between atoms: C6_7  and  O1_8 
REMARK    5  A    between atoms: O1_8  and  C7_9 
REMARK    6  A    between atoms: C10_12  and  C11_13 
REMARK    7  A    between atoms: C11_13  and  O2_14 
REMARK    8  A    between atoms: C13_16  and  C14_17 
REMARK    9  A    between atoms: C14_17  and  O3_18 
ROOT
HETATM    1  C7  UNL     1      24.907   2.501  51.691  1.00  0.00     0.164 A 
HETATM    2  C8  UNL     1      26.263   2.341  51.459  1.00  0.00     0.059 A 
HETATM    3  C9  UNL     1      26.955   1.244  51.973  1.00  0.00     0.015 A 
HETATM    4  C10 UNL     1      26.247   0.308  52.731  1.00  0.00    -0.008 A 
HETATM    5  C13 UNL     1      24.894   0.525  52.927  1.00  0.00     0.069 A 
HETATM    6  N2  UNL     1      24.242   1.590  52.422  1.00  0.00    -0.227 NA
ENDROOT
BRANCH   1   7
HETATM    7  O1  UNL     1      24.449   3.658  51.082  1.00  0.00    -0.331 OA
BRANCH   7   8
HETATM    8  C6  UNL     1      24.186   3.603  49.692  1.00  0.00     0.205 C 
BRANCH   8   9
HETATM    9  C5  UNL     1      24.813   4.748  48.983  1.00  0.00     0.002 C 
HETATM   10  C4  UNL     1      26.098   4.974  49.198  1.00  0.00     0.028 C 
BRANCH  10  11
HETATM   11  C2  UNL     1      27.009   5.994  48.673  1.00  0.00     0.045 C 
HETATM   12  C3  UNL     1      28.237   5.913  48.178  1.00  0.00     0.045 C 
BRANCH  11  13
HETATM   13  N1  UNL     1      26.748   7.368  48.583  1.00  0.00    -0.273 NA
HETATM   14  C1  UNL     1      26.164   7.941  47.583  1.00  0.00     0.149 C 
ENDBRANCH  11  13
ENDBRANCH  10  11
ENDBRANCH   8   9
ENDBRANCH   7   8
ENDBRANCH   1   7
BRANCH   5  15
HETATM   15  C14 UNL     1      24.197  -0.477  53.722  1.00  0.00     0.226 C 
BRANCH  15  16
HETATM   16  O3  UNL     1      22.816  -0.473  53.581  1.00  0.00    -0.390 OA
HETATM   17  C15 UNL     1      22.171  -0.850  54.751  1.00  0.00     0.201 C 
ENDBRANCH  15  16
ENDBRANCH   5  15
BRANCH   4  18
HETATM   18  C11 UNL     1      26.955  -0.866  53.290  1.00  0.00     0.207 C 
BRANCH  18  19
HETATM   19  O2  UNL     1      27.461  -0.456  54.529  1.00  0.00    -0.391 OA
HETATM   20  C12 UNL     1      28.820  -0.195  54.484  1.00  0.00     0.201 C 
ENDBRANCH  18  19
ENDBRANCH   4  18
TORSDOF 9
ENDMDL
MODEL 6
REMARK VINA RESULT:      -5.4      4.474      7.309
REMARK  9 active torsions:
REMARK  status: ('A' for Active; 'I' for Inactive)
REMARK    1  A    between atoms: N1_2  and  C2_3 
REMARK    2  A    between atoms: C2_3  and  C4_5 
REMARK    3  A    between atoms: C5_6  and  C6_7 
REMARK    4  A    between atoms: C6_7  and  O1_8 
REMARK    5  A    between atoms: O1_8  and  C7_9 
REMARK    6  A    between atoms: C10_12  and  C11_13 
REMARK    7  A    between atoms: C11_13  and  O2_14 
REMARK    8  A    between atoms: C13_16  and  C14_17 
REMARK    9  A    between atoms: C14_17  and  O3_18 
ROOT
HETATM    1  C7  UNL     1      22.856   1.255  52.761  1.00  0.00     0.164 A 
HETATM    2  C8  UNL     1      22.551   0.018  53.304  1.00  0.00     0.059 A 
HETATM    3  C9  UNL     1      21.266  -0.513  53.206  1.00  0.00     0.015 A 
HETATM    4  C10 UNL     1      20.287   0.233  52.547  1.00  0.00    -0.008 A 
HETATM    5  C13 UNL     1      20.653   1.462  52.026  1.00  0.00     0.069 A 
HETATM    6  N2  UNL     1      21.900   1.960  52.129  1.00  0.00    -0.227 NA
ENDROOT
BRANCH   1   7
HETATM    7  O1  UNL     1      24.187   1.564  52.985  1.00  0.00    -0.331 OA
BRANCH   7   8
HETATM    8  C6  UNL     1      25.017   1.735  51.850  1.00  0.00     0.205 C 
BRANCH   8   9
HETATM    9  C5  UNL     1      26.382   1.206  52.102  1.00  0.00     0.002 C 
HETATM   10  C4  UNL     1      26.541   0.376  53.118  1.00  0.00     0.028 C 
BRANCH  10  11
HETATM   11  C2  UNL     1      27.725  -0.316  53.634  1.00  0.00     0.045 C 
HETATM   12  C3  UNL     1      28.663   0.058  54.496  1.00  0.00     0.045 C 
BRANCH  11  13
HETATM   13  N1  UNL     1      28.139  -1.611  53.297  1.00  0.00    -0.273 NA
HETATM   14  C1  UNL     1      27.424  -2.463  52.640  1.00  0.00     0.149 C 
ENDBRANCH  11  13
ENDBRANCH  10  11
ENDBRANCH   8   9
ENDBRANCH   7   8
ENDBRANCH   1   7
BRANCH   5  15
HETATM   15  C14 UNL     1      19.601   2.206  51.346  1.00  0.00     0.226 C 
BRANCH  15  16
HETATM   16  O3  UNL     1      18.994   3.188  52.116  1.00  0.00    -0.390 OA
HETATM   17  C15 UNL     1      17.988   3.848  51.421  1.00  0.00     0.201 C 
ENDBRANCH  15  16
ENDBRANCH   5  15
BRANCH   4  18
HETATM   18  C11 UNL     1      18.912  -0.305  52.428  1.00  0.00     0.207 C 
BRANCH  18  19
HETATM   19  O2  UNL     1      18.671  -1.008  53.614  1.00  0.00    -0.391 OA
HETATM   20  C12 UNL     1      17.796  -2.066  53.431  1.00  0.00     0.201 C 
ENDBRANCH  18  19
ENDBRANCH   4  18
TORSDOF 9
ENDMDL
MODEL 7
REMARK VINA RESULT:      -5.4      3.610      8.632
REMARK  9 active torsions:
REMARK  status: ('A' for Active; 'I' for Inactive)
REMARK    1  A    between atoms: N1_2  and  C2_3 
REMARK    2  A    between atoms: C2_3  and  C4_5 
REMARK    3  A    between atoms: C5_6  and  C6_7 
REMARK    4  A    between atoms: C6_7  and  O1_8 
REMARK    5  A    between atoms: O1_8  and  C7_9 
REMARK    6  A    between atoms: C10_12  and  C11_13 
REMARK    7  A    between atoms: C11_13  and  O2_14 
REMARK    8  A    between atoms: C13_16  and  C14_17 
REMARK    9  A    between atoms: C14_17  and  O3_18 
ROOT
HETATM    1  C7  UNL     1      23.517   0.836  52.452  1.00  0.00     0.164 A 
HETATM    2  C8  UNL     1      24.108  -0.027  53.359  1.00  0.00     0.059 A 
HETATM    3  C9  UNL     1      25.495  -0.084  53.498  1.00  0.00     0.015 A 
HETATM    4  C10 UNL     1      26.277   0.751  52.698  1.00  0.00    -0.008 A 
HETATM    5  C13 UNL     1      25.627   1.591  51.810  1.00  0.00     0.069 A 
HETATM    6  N2  UNL     1      24.287   1.634  51.690  1.00  0.00    -0.227 NA
ENDROOT
BRANCH   1   7
HETATM    7  O1  UNL     1      22.139   0.711  52.498  1.00  0.00    -0.331 OA
BRANCH   7   8
HETATM    8  C6  UNL     1      21.557   0.351  53.737  1.00  0.00     0.205 C 
BRANCH   8   9
HETATM    9  C5  UNL     1      20.620  -0.791  53.576  1.00  0.00     0.002 C 
HETATM   10  C4  UNL     1      19.343  -0.515  53.377  1.00  0.00     0.028 C 
BRANCH  10  11
HETATM   11  C2  UNL     1      18.178  -1.381  53.181  1.00  0.00     0.045 C 
HETATM   12  C3  UNL     1      17.862  -2.567  53.686  1.00  0.00     0.045 C 
BRANCH  11  13
HETATM   13  N1  UNL     1      17.076  -1.112  52.358  1.00  0.00    -0.273 NA
HETATM   14  C1  UNL     1      15.985  -1.804  52.342  1.00  0.00     0.149 C 
ENDBRANCH  11  13
ENDBRANCH  10  11
ENDBRANCH   8   9
ENDBRANCH   7   8
ENDBRANCH   1   7
BRANCH   5  15
HETATM   15  C14 UNL     1      26.483   2.445  50.997  1.00  0.00     0.226 C 
BRANCH  15  16
HETATM   16  O3  UNL     1      25.842   3.067  49.935  1.00  0.00    -0.390 OA
HETATM   17  C15 UNL     1      26.612   4.082  49.383  1.00  0.00     0.201 C 
ENDBRANCH  15  16
ENDBRANCH   5  15
BRANCH   4  18
HETATM   18  C11 UNL     1      27.753   0.712  52.823  1.00  0.00     0.207 C 
BRANCH  18  19
HETATM   19  O2  UNL     1      28.038  -0.358  53.679  1.00  0.00    -0.391 OA
HETATM   20  C12 UNL     1      28.963  -0.022  54.653  1.00  0.00     0.201 C 
ENDBRANCH  18  19
ENDBRANCH   4  18
TORSDOF 9
ENDMDL
MODEL 8
REMARK VINA RESULT:      -5.4      3.146      8.784
REMARK  9 active torsions:
REMARK  status: ('A' for Active; 'I' for Inactive)
REMARK    1  A    between atoms: N1_2  and  C2_3 
REMARK    2  A    between atoms: C2_3  and  C4_5 
REMARK    3  A    between atoms: C5_6  and  C6_7 
REMARK    4  A    between atoms: C6_7  and  O1_8 
REMARK    5  A    between atoms: O1_8  and  C7_9 
REMARK    6  A    between atoms: C10_12  and  C11_13 
REMARK    7  A    between atoms: C11_13  and  O2_14 
REMARK    8  A    between atoms: C13_16  and  C14_17 
REMARK    9  A    between atoms: C14_17  and  O3_18 
ROOT
HETATM    1  C7  UNL     1      28.906   5.488  48.435  1.00  0.00     0.164 A 
HETATM    2  C8  UNL     1      28.272   6.660  48.059  1.00  0.00     0.059 A 
HETATM    3  C9  UNL     1      28.970   7.866  47.996  1.00  0.00     0.015 A 
HETATM    4  C10 UNL     1      30.327   7.866  48.323  1.00  0.00    -0.008 A 
HETATM    5  C13 UNL     1      30.903   6.663  48.692  1.00  0.00     0.069 A 
HETATM    6  N2  UNL     1      30.215   5.506  48.746  1.00  0.00    -0.227 NA
ENDROOT
BRANCH   1   7
HETATM    7  O1  UNL     1      28.011   4.431  48.421  1.00  0.00    -0.331 OA
BRANCH   7   8
HETATM    8  C6  UNL     1      26.782   4.608  49.101  1.00  0.00     0.205 C 
BRANCH   8   9
HETATM    9  C5  UNL     1      26.250   3.310  49.589  1.00  0.00     0.002 C 
HETATM   10  C4  UNL     1      26.482   2.985  50.849  1.00  0.00     0.028 C 
BRANCH  10  11
HETATM   11  C2  UNL     1      26.109   1.807  51.636  1.00  0.00     0.045 C 
HETATM   12  C3  UNL     1      24.927   1.311  51.982  1.00  0.00     0.045 C 
BRANCH  11  13
HETATM   13  N1  UNL     1      26.992   0.896  52.231  1.00  0.00    -0.273 NA
HETATM   14  C1  UNL     1      26.819  -0.384  52.258  1.00  0.00     0.149 C 
ENDBRANCH  11  13
ENDBRANCH  10  11
ENDBRANCH   8   9
ENDBRANCH   7   8
ENDBRANCH   1   7
BRANCH   5  15
HETATM   15  C14 UNL     1      32.321   6.710  49.023  1.00  0.00     0.226 C 
BRANCH  15  16
HETATM   16  O3  UNL     1      33.067   5.645  48.538  1.00  0.00    -0.390 OA
HETATM   17  C15 UNL     1      33.656   5.936  47.314  1.00  0.00     0.201 C 
ENDBRANCH  15  16
ENDBRANCH   5  15
BRANCH   4  18
HETATM   18  C11 UNL     1      31.094   9.132  48.266  1.00  0.00     0.207 C 
BRANCH  18  19
HETATM   19  O2  UNL     1      30.695   9.873  49.386  1.00  0.00    -0.391 OA
HETATM   20  C12 UNL     1      30.641  11.232  49.126  1.00  0.00     0.201 C 
ENDBRANCH  18  19
ENDBRANCH   4  18
TORSDOF 9
ENDMDL
MODEL 9
REMARK VINA RESULT:      -5.4      4.354      6.903
REMARK  9 active torsions:
REMARK  status: ('A' for Active; 'I' for Inactive)
REMARK    1  A    between atoms: N1_2  and  C2_3 
REMARK    2  A    between atoms: C2_3  and  C4_5 
REMARK    3  A    between atoms: C5_6  and  C6_7 
REMARK    4  A    between atoms: C6_7  and  O1_8 
REMARK    5  A    between atoms: O1_8  and  C7_9 
REMARK    6  A    between atoms: C10_12  and  C11_13 
REMARK    7  A    between atoms: C11_13  and  O2_14 
REMARK    8  A    between atoms: C13_16  and  C14_17 
REMARK    9  A    between atoms: C14_17  and  O3_18 
ROOT
HETATM    1  C7  UNL     1      23.535   0.480  53.037  1.00  0.00     0.164 A 
HETATM    2  C8  UNL     1      23.879   1.233  51.927  1.00  0.00     0.059 A 
HETATM    3  C9  UNL     1      22.899   1.787  51.104  1.00  0.00     0.015 A 
HETATM    4  C10 UNL     1      21.558   1.564  51.424  1.00  0.00    -0.008 A 
HETATM    5  C13 UNL     1      21.280   0.803  52.546  1.00  0.00     0.069 A 
HETATM    6  N2  UNL     1      22.238   0.275  53.331  1.00  0.00    -0.227 NA
ENDROOT
BRANCH   1   7
HETATM    7  O1  UNL     1      24.674   0.041  53.691  1.00  0.00    -0.331 OA
BRANCH   7   8
HETATM    8  C6  UNL     1      25.317  -1.113  53.181  1.00  0.00     0.205 C 
BRANCH   8   9
HETATM    9  C5  UNL     1      26.734  -0.828  52.838  1.00  0.00     0.002 C 
HETATM   10  C4  UNL     1      27.508  -0.332  53.787  1.00  0.00     0.028 C 
BRANCH  10  11
HETATM   11  C2  UNL     1      28.921   0.054  53.789  1.00  0.00     0.045 C 
HETATM   12  C3  UNL     1      30.030  -0.645  53.585  1.00  0.00     0.045 C 
BRANCH  11  13
HETATM   13  N1  UNL     1      29.427   1.339  54.026  1.00  0.00    -0.273 NA
HETATM   14  C1  UNL     1      28.805   2.437  53.745  1.00  0.00     0.149 C 
ENDBRANCH  11  13
ENDBRANCH  10  11
ENDBRANCH   8   9
ENDBRANCH   7   8
ENDBRANCH   1   7
BRANCH   5  15
HETATM   15  C14 UNL     1      19.868   0.597  52.842  1.00  0.00     0.226 C 
BRANCH  15  16
HETATM   16  O3  UNL     1      19.573  -0.616  53.449  1.00  0.00    -0.390 OA
HETATM   17  C15 UNL     1      18.297  -1.062  53.129  1.00  0.00     0.201 C 
ENDBRANCH  15  16
ENDBRANCH   5  15
BRANCH   4  18
HETATM   18  C11 UNL     1      20.495   2.140  50.568  1.00  0.00     0.207 C 
BRANCH  18  19
HETATM   19  O2  UNL     1      20.513   1.397  49.381  1.00  0.00    -0.391 OA
HETATM   20  C12 UNL     1      20.611   2.199  48.258  1.00  0.00     0.201 C 
ENDBRANCH  18  19
ENDBRANCH   4  18
TORSDOF 9
ENDMDL
