MODEL 1
REMARK VINA RESULT:      -9.0      0.000      0.000
REMARK  1 active torsions:
REMARK  status: ('A' for Active; 'I' for Inactive)
REMARK    1  A    between atoms: C2_2  and  C3_3 
ROOT
HETATM    1  C3  UNL     1      24.288   1.882  52.646  1.00  0.00     0.231 A 
HETATM    2  C4  UNL     1      25.229   0.572  53.236  1.00  0.00     0.099 A 
HETATM    3  C5  UNL     1      25.339  -0.848  54.211  1.00  0.00     0.047 A 
HETATM    4  C6  UNL     1      26.011  -0.800  53.005  1.00  0.00     0.224 A 
HETATM    5  C7  UNL     1      27.419  -0.809  52.942  1.00  0.00     0.118 C 
HETATM    6  N1  UNL     1      28.245  -0.725  53.976  1.00  0.00    -0.282 NA
HETATM    7  C8  UNL     1      28.419   0.390  54.887  1.00  0.00     0.296 C 
HETATM    8  N2  UNL     1      28.164   1.654  54.120  1.00  0.00    -0.268 NA
HETATM    9  C9  UNL     1      27.634   1.484  52.924  1.00  0.00     0.098 C 
HETATM   10  C10 UNL     1      26.379   1.277  52.788  1.00  0.00     0.234 C 
HETATM   11  N3  UNL     1      25.293   0.643  53.191  1.00  0.00    -0.013 N 
HETATM   12  C11 UNL     1      23.823   0.278  53.445  1.00  0.00     0.193 A 
HETATM   13  C12 UNL     1      22.982  -0.847  53.936  1.00  0.00     0.021 A 
HETATM   14  C13 UNL     1      21.683  -0.693  53.796  1.00  0.00     0.043 A 
HETATM   15  C14 UNL     1      21.029   0.365  53.256  1.00  0.00     0.138 A 
HETATM   16  F1  UNL     1      19.687   0.501  53.120  1.00  0.00    -0.204 F 
HETATM   17  C15 UNL     1      21.707   1.441  52.775  1.00  0.00     0.080 A 
HETATM   18 CL1  UNL     1      21.332   2.951  52.037  1.00  0.00    -0.081 Cl
HETATM   19  C16 UNL     1      22.971   1.242  52.937  1.00  0.00     0.019 A 
ENDROOT
BRANCH   1  20
HETATM   20  C2  UNL     1      24.493   2.145  51.300  1.00  0.00    -0.001 C 
HETATM   21  C1  UNL     1      24.531   3.371  50.852  1.00  0.00     0.009 C 
ENDBRANCH   1  20
TORSDOF 1
ENDMDL
MODEL 2
REMARK VINA RESULT:      -8.3      3.252      5.884
REMARK  1 active torsions:
REMARK  status: ('A' for Active; 'I' for Inactive)
REMARK    1  A    between atoms: C2_2  and  C3_3 
ROOT
HETATM    1  C3  UNL     1      22.733   0.424  53.622  1.00  0.00     0.231 A 
HETATM    2  C4  UNL     1      22.559   1.384  52.209  1.00  0.00     0.099 A 
HETATM    3  C5  UNL     1      23.280   2.403  51.016  1.00  0.00     0.047 A 
HETATM    4  C6  UNL     1      22.279   1.526  50.644  1.00  0.00     0.224 A 
HETATM    5  C7  UNL     1      21.025   1.983  50.189  1.00  0.00     0.118 C 
HETATM    6  N1  UNL     1      20.609   3.242  50.191  1.00  0.00    -0.282 NA
HETATM    7  C8  UNL     1      20.362   4.095  51.337  1.00  0.00     0.296 C 
HETATM    8  N2  UNL     1      19.893   3.225  52.466  1.00  0.00    -0.268 NA
HETATM    9  C9  UNL     1      20.027   1.928  52.263  1.00  0.00     0.098 C 
HETATM   10  C10 UNL     1      21.156   1.353  52.434  1.00  0.00     0.234 C 
HETATM   11  N3  UNL     1      22.463   1.362  52.247  1.00  0.00    -0.013 N 
HETATM   12  C11 UNL     1      23.965   1.079  52.404  1.00  0.00     0.193 A 
HETATM   13  C12 UNL     1      25.257   1.284  51.698  1.00  0.00     0.021 A 
HETATM   14  C13 UNL     1      26.298   0.670  52.219  1.00  0.00     0.043 A 
HETATM   15  C14 UNL     1      26.325  -0.125  53.318  1.00  0.00     0.138 A 
HETATM   16  F1  UNL     1      27.410  -0.750  53.836  1.00  0.00    -0.204 F 
HETATM   17  C15 UNL     1      25.195  -0.379  54.031  1.00  0.00     0.080 A 
HETATM   18 CL1  UNL     1      24.753  -1.278  55.431  1.00  0.00    -0.081 Cl
HETATM   19  C16 UNL     1      24.209   0.245  53.482  1.00  0.00     0.019 A 
ENDROOT
BRANCH   1  20
HETATM   20  C2  UNL     1      22.021  -0.765  53.572  1.00  0.00    -0.001 C 
HETATM   21  C1  UNL     1      21.424  -1.238  54.632  1.00  0.00     0.009 C 
ENDBRANCH   1  20
TORSDOF 1
ENDMDL
MODEL 3
REMARK VINA RESULT:      -8.3      1.811      3.343
REMARK  1 active torsions:
REMARK  status: ('A' for Active; 'I' for Inactive)
REMARK    1  A    between atoms: C2_2  and  C3_3 
ROOT
HETATM    1  C3  UNL     1      22.600   0.011  52.710  1.00  0.00     0.231 A 
HETATM    2  C4  UNL     1      24.138   0.766  52.605  1.00  0.00     0.099 A 
HETATM    3  C5  UNL     1      25.273   1.690  51.688  1.00  0.00     0.047 A 
HETATM    4  C6  UNL     1      25.172   1.898  53.051  1.00  0.00     0.224 A 
HETATM    5  C7  UNL     1      26.229   1.584  53.928  1.00  0.00     0.118 C 
HETATM    6  N1  UNL     1      27.348   0.950  53.603  1.00  0.00    -0.282 NA
HETATM    7  C8  UNL     1      27.493  -0.417  53.141  1.00  0.00     0.296 C 
HETATM    8  N2  UNL     1      26.412  -1.236  53.783  1.00  0.00    -0.268 NA
HETATM    9  C9  UNL     1      25.475  -0.540  54.399  1.00  0.00     0.098 C 
HETATM   10  C10 UNL     1      24.523   0.001  53.739  1.00  0.00     0.234 C 
HETATM   11  N3  UNL     1      24.138   0.702  52.689  1.00  0.00    -0.013 N 
HETATM   12  C11 UNL     1      23.276   1.304  51.569  1.00  0.00     0.193 A 
HETATM   13  C12 UNL     1      23.318   2.359  50.522  1.00  0.00     0.021 A 
HETATM   14  C13 UNL     1      22.186   2.585  49.891  1.00  0.00     0.043 A 
HETATM   15  C14 UNL     1      20.992   1.972  50.089  1.00  0.00     0.138 A 
HETATM   16  F1  UNL     1      19.837   2.224  49.427  1.00  0.00    -0.204 F 
HETATM   17  C15 UNL     1      20.848   0.997  51.025  1.00  0.00     0.080 A 
HETATM   18 CL1  UNL     1      19.593  -0.026  51.610  1.00  0.00    -0.081 Cl
HETATM   19  C16 UNL     1      21.983   0.813  51.611  1.00  0.00     0.019 A 
ENDROOT
BRANCH   1  20
HETATM   20  C2  UNL     1      21.983   0.187  53.939  1.00  0.00    -0.001 C 
HETATM   21  C1  UNL     1      21.338  -0.792  54.515  1.00  0.00     0.009 C 
ENDBRANCH   1  20
TORSDOF 1
ENDMDL
MODEL 4
REMARK VINA RESULT:      -8.1      3.083      5.369
REMARK  1 active torsions:
REMARK  status: ('A' for Active; 'I' for Inactive)
REMARK    1  A    between atoms: C2_2  and  C3_3 
ROOT
HETATM    1  C3  UNL     1      23.784   1.911  52.097  1.00  0.00     0.231 A 
HETATM    2  C4  UNL     1      22.732   0.759  52.814  1.00  0.00     0.099 A 
HETATM    3  C5  UNL     1      22.448  -0.863  53.333  1.00  0.00     0.047 A 
HETATM    4  C6  UNL     1      21.942   0.185  54.077  1.00  0.00     0.224 A 
HETATM    5  C7  UNL     1      20.555   0.402  54.201  1.00  0.00     0.118 C 
HETATM    6  N1  UNL     1      19.603  -0.247  53.543  1.00  0.00    -0.282 NA
HETATM    7  C8  UNL     1      19.348  -0.243  52.116  1.00  0.00     0.296 C 
HETATM    8  N2  UNL     1      19.743   1.103  51.582  1.00  0.00    -0.268 NA
HETATM    9  C9  UNL     1      20.419   1.861  52.425  1.00  0.00     0.098 C 
HETATM   10  C10 UNL     1      21.673   1.683  52.601  1.00  0.00     0.234 C 
HETATM   11  N3  UNL     1      22.676   0.845  52.790  1.00  0.00    -0.013 N 
HETATM   12  C11 UNL     1      24.087   0.241  52.837  1.00  0.00     0.193 A 
HETATM   13  C12 UNL     1      24.819  -0.939  53.371  1.00  0.00     0.021 A 
HETATM   14  C13 UNL     1      26.130  -0.895  53.264  1.00  0.00     0.043 A 
HETATM   15  C14 UNL     1      26.884   0.098  52.730  1.00  0.00     0.138 A 
HETATM   16  F1  UNL     1      28.235   0.123  52.633  1.00  0.00    -0.204 F 
HETATM   17  C15 UNL     1      26.310   1.221  52.220  1.00  0.00     0.080 A 
HETATM   18 CL1  UNL     1      26.827   2.681  51.469  1.00  0.00    -0.081 Cl
HETATM   19  C16 UNL     1      25.030   1.127  52.346  1.00  0.00     0.019 A 
ENDROOT
BRANCH   1  20
HETATM   20  C2  UNL     1      23.766   3.143  52.732  1.00  0.00    -0.001 C 
HETATM   21  C1  UNL     1      23.774   4.255  52.047  1.00  0.00     0.009 C 
ENDBRANCH   1  20
TORSDOF 1
ENDMDL
MODEL 5
REMARK VINA RESULT:      -7.7      3.027      5.288
REMARK  1 active torsions:
REMARK  status: ('A' for Active; 'I' for Inactive)
REMARK    1  A    between atoms: C2_2  and  C3_3 
ROOT
HETATM    1  C3  UNL     1      23.482   1.995  52.373  1.00  0.00     0.231 A 
HETATM    2  C4  UNL     1      24.383   2.961  51.277  1.00  0.00     0.099 A 
HETATM    3  C5  UNL     1      25.915   3.428  50.632  1.00  0.00     0.047 A 
HETATM    4  C6  UNL     1      24.822   3.347  49.791  1.00  0.00     0.224 A 
HETATM    5  C7  UNL     1      24.280   4.489  49.169  1.00  0.00     0.118 C 
HETATM    6  N1  UNL     1      24.635   5.746  49.403  1.00  0.00    -0.282 NA
HETATM    7  C8  UNL     1      24.482   6.498  50.632  1.00  0.00     0.296 C 
HETATM    8  N2  UNL     1      23.244   6.005  51.322  1.00  0.00    -0.268 NA
HETATM    9  C9  UNL     1      22.727   4.900  50.818  1.00  0.00     0.098 C 
HETATM   10  C10 UNL     1      23.216   3.756  51.114  1.00  0.00     0.234 C 
HETATM   11  N3  UNL     1      24.284   2.998  51.281  1.00  0.00    -0.013 N 
HETATM   12  C11 UNL     1      25.217   1.867  51.740  1.00  0.00     0.193 A 
HETATM   13  C12 UNL     1      26.570   1.309  51.475  1.00  0.00     0.021 A 
HETATM   14  C13 UNL     1      26.842   0.163  52.062  1.00  0.00     0.043 A 
HETATM   15  C14 UNL     1      26.032  -0.563  52.872  1.00  0.00     0.138 A 
HETATM   16  F1  UNL     1      26.333  -1.744  53.465  1.00  0.00    -0.204 F 
HETATM   17  C15 UNL     1      24.775  -0.142  53.172  1.00  0.00     0.080 A 
HETATM   18 CL1  UNL     1      23.442  -0.693  54.113  1.00  0.00    -0.081 Cl
HETATM   19  C16 UNL     1      24.560   0.982  52.577  1.00  0.00     0.019 A 
ENDROOT
BRANCH   1  20
HETATM   20  C2  UNL     1      22.323   1.469  51.821  1.00  0.00    -0.001 C 
HETATM   21  C1  UNL     1      21.226   1.372  52.523  1.00  0.00     0.009 C 
ENDBRANCH   1  20
TORSDOF 1
ENDMDL
MODEL 6
REMARK VINA RESULT:      -7.7      3.236      5.377
REMARK  1 active torsions:
REMARK  status: ('A' for Active; 'I' for Inactive)
REMARK    1  A    between atoms: C2_2  and  C3_3 
ROOT
HETATM    1  C3  UNL     1      23.610   1.374  52.288  1.00  0.00     0.231 A 
HETATM    2  C4  UNL     1      22.063   2.088  52.076  1.00  0.00     0.099 A 
HETATM    3  C5  UNL     1      20.348   1.977  52.242  1.00  0.00     0.047 A 
HETATM    4  C6  UNL     1      20.972   3.193  52.446  1.00  0.00     0.224 A 
HETATM    5  C7  UNL     1      20.756   4.289  51.587  1.00  0.00     0.118 C 
HETATM    6  N1  UNL     1      20.075   4.264  50.449  1.00  0.00    -0.282 NA
HETATM    7  C8  UNL     1      20.398   3.538  49.236  1.00  0.00     0.296 C 
HETATM    8  N2  UNL     1      21.893   3.457  49.133  1.00  0.00    -0.268 NA
HETATM    9  C9  UNL     1      22.548   3.826  50.217  1.00  0.00     0.098 C 
HETATM   10  C10 UNL     1      22.682   3.024  51.204  1.00  0.00     0.234 C 
HETATM   11  N3  UNL     1      22.133   2.144  52.021  1.00  0.00    -0.013 N 
HETATM   12  C11 UNL     1      21.952   0.990  53.018  1.00  0.00     0.193 A 
HETATM   13  C12 UNL     1      20.921   0.376  53.897  1.00  0.00     0.021 A 
HETATM   14  C13 UNL     1      21.351  -0.557  54.719  1.00  0.00     0.043 A 
HETATM   15  C14 UNL     1      22.620  -1.016  54.858  1.00  0.00     0.138 A 
HETATM   16  F1  UNL     1      23.040  -1.978  55.715  1.00  0.00    -0.204 F 
HETATM   17  C15 UNL     1      23.635  -0.517  54.105  1.00  0.00     0.080 A 
HETATM   18 CL1  UNL     1      25.329  -0.772  53.928  1.00  0.00    -0.081 Cl
HETATM   19  C16 UNL     1      23.162   0.389  53.317  1.00  0.00     0.019 A 
ENDROOT
BRANCH   1  20
HETATM   20  C2  UNL     1      24.568   2.263  52.751  1.00  0.00    -0.001 C 
HETATM   21  C1  UNL     1      25.791   2.234  52.294  1.00  0.00     0.009 C 
ENDBRANCH   1  20
TORSDOF 1
ENDMDL
MODEL 7
REMARK VINA RESULT:      -7.4      2.312      4.196
REMARK  1 active torsions:
REMARK  status: ('A' for Active; 'I' for Inactive)
REMARK    1  A    between atoms: C2_2  and  C3_3 
ROOT
HETATM    1  C3  UNL     1      23.812   1.863  51.277  1.00  0.00     0.231 A 
HETATM    2  C4  UNL     1      25.425   1.742  51.854  1.00  0.00     0.099 A 
HETATM    3  C5  UNL     1      27.107   2.052  51.619  1.00  0.00     0.047 A 
HETATM    4  C6  UNL     1      26.572   2.145  52.889  1.00  0.00     0.224 A 
HETATM    5  C7  UNL     1      26.942   1.253  53.916  1.00  0.00     0.118 C 
HETATM    6  N1  UNL     1      27.704   0.176  53.774  1.00  0.00    -0.282 NA
HETATM    7  C8  UNL     1      27.416  -1.022  53.010  1.00  0.00     0.296 C 
HETATM    8  N2  UNL     1      25.932  -1.241  53.041  1.00  0.00    -0.268 NA
HETATM    9  C9  UNL     1      25.229  -0.233  53.520  1.00  0.00     0.098 C 
HETATM   10  C10 UNL     1      24.954   0.778  52.787  1.00  0.00     0.234 C 
HETATM   11  N3  UNL     1      25.364   1.679  51.912  1.00  0.00    -0.013 N 
HETATM   12  C11 UNL     1      25.372   2.743  50.805  1.00  0.00     0.193 A 
HETATM   13  C12 UNL     1      26.279   3.731  50.161  1.00  0.00     0.021 A 
HETATM   14  C13 UNL     1      25.711   4.561  49.312  1.00  0.00     0.043 A 
HETATM   15  C14 UNL     1      24.402   4.619  48.963  1.00  0.00     0.138 A 
HETATM   16  F1  UNL     1      23.838   5.485  48.086  1.00  0.00    -0.204 F 
HETATM   17  C15 UNL     1      23.492   3.763  49.498  1.00  0.00     0.080 A 
HETATM   18 CL1  UNL     1      21.801   3.462  49.367  1.00  0.00    -0.081 Cl
HETATM   19  C16 UNL     1      24.097   2.972  50.318  1.00  0.00     0.019 A 
ENDROOT
BRANCH   1  20
HETATM   20  C2  UNL     1      22.898   2.203  52.263  1.00  0.00    -0.001 C 
HETATM   21  C1  UNL     1      21.743   1.599  52.348  1.00  0.00     0.009 C 
ENDBRANCH   1  20
TORSDOF 1
ENDMDL
MODEL 8
REMARK VINA RESULT:      -7.3      3.165      4.774
REMARK  1 active torsions:
REMARK  status: ('A' for Active; 'I' for Inactive)
REMARK    1  A    between atoms: C2_2  and  C3_3 
ROOT
HETATM    1  C3  UNL     1      20.985   1.219  52.131  1.00  0.00     0.231 A 
HETATM    2  C4  UNL     1      22.489   1.992  51.834  1.00  0.00     0.099 A 
HETATM    3  C5  UNL     1      24.116   2.301  52.325  1.00  0.00     0.047 A 
HETATM    4  C6  UNL     1      23.828   2.160  50.981  1.00  0.00     0.224 A 
HETATM    5  C7  UNL     1      23.961   3.235  50.079  1.00  0.00     0.118 C 
HETATM    6  N1  UNL     1      24.228   4.494  50.403  1.00  0.00    -0.282 NA
HETATM    7  C8  UNL     1      23.407   5.406  51.173  1.00  0.00     0.296 C 
HETATM    8  N2  UNL     1      21.969   5.065  50.911  1.00  0.00    -0.268 NA
HETATM    9  C9  UNL     1      21.774   3.928  50.269  1.00  0.00     0.098 C 
HETATM   10  C10 UNL     1      21.813   2.812  50.891  1.00  0.00     0.234 C 
HETATM   11  N3  UNL     1      22.417   2.034  51.770  1.00  0.00    -0.013 N 
HETATM   12  C11 UNL     1      22.686   0.931  52.804  1.00  0.00     0.193 A 
HETATM   13  C12 UNL     1      23.808   0.282  53.533  1.00  0.00     0.021 A 
HETATM   14  C13 UNL     1      23.495  -0.789  54.231  1.00  0.00     0.043 A 
HETATM   15  C14 UNL     1      22.274  -1.366  54.357  1.00  0.00     0.138 A 
HETATM   16  F1  UNL     1      21.975  -2.471  55.081  1.00  0.00    -0.204 F 
HETATM   17  C15 UNL     1      21.184  -0.851  53.728  1.00  0.00     0.080 A 
HETATM   18 CL1  UNL     1      19.506  -1.214  53.596  1.00  0.00    -0.081 Cl
HETATM   19  C16 UNL     1      21.543   0.194  53.062  1.00  0.00     0.019 A 
ENDROOT
BRANCH   1  20
HETATM   20  C2  UNL     1      20.408   0.680  50.991  1.00  0.00    -0.001 C 
HETATM   21  C1  UNL     1      19.114   0.701  50.817  1.00  0.00     0.009 C 
ENDBRANCH   1  20
TORSDOF 1
ENDMDL
MODEL 9
REMARK VINA RESULT:      -7.3      3.354      5.739
REMARK  1 active torsions:
REMARK  status: ('A' for Active; 'I' for Inactive)
REMARK    1  A    between atoms: C2_2  and  C3_3 
ROOT
HETATM    1  C3  UNL     1      23.535   1.649  51.137  1.00  0.00     0.231 A 
HETATM    2  C4  UNL     1      21.956   1.341  51.736  1.00  0.00     0.099 A 
HETATM    3  C5  UNL     1      20.899   0.358  52.684  1.00  0.00     0.047 A 
HETATM    4  C6  UNL     1      20.714   1.727  52.662  1.00  0.00     0.224 A 
HETATM    5  C7  UNL     1      19.563   2.309  52.093  1.00  0.00     0.118 C 
HETATM    6  N1  UNL     1      18.621   1.667  51.414  1.00  0.00    -0.282 NA
HETATM    7  C8  UNL     1      18.752   0.986  50.141  1.00  0.00     0.296 C 
HETATM    8  N2  UNL     1      19.794   1.708  49.337  1.00  0.00    -0.268 NA
HETATM    9  C9  UNL     1      20.495   2.602  50.008  1.00  0.00     0.098 C 
HETATM   10  C10 UNL     1      21.472   2.243  50.750  1.00  0.00     0.234 C 
HETATM   11  N3  UNL     1      21.949   1.412  51.659  1.00  0.00    -0.013 N 
HETATM   12  C11 UNL     1      22.917   0.599  52.532  1.00  0.00     0.193 A 
HETATM   13  C12 UNL     1      22.930  -0.263  53.744  1.00  0.00     0.021 A 
HETATM   14  C13 UNL     1      24.119  -0.604  54.191  1.00  0.00     0.043 A 
HETATM   15  C14 UNL     1      25.326  -0.257  53.678  1.00  0.00     0.138 A 
HETATM   16  F1  UNL     1      26.541  -0.619  54.158  1.00  0.00    -0.204 F 
HETATM   17  C15 UNL     1      25.422   0.532  52.576  1.00  0.00     0.080 A 
HETATM   18 CL1  UNL     1      26.672   1.204  51.601  1.00  0.00    -0.081 Cl
HETATM   19  C16 UNL     1      24.233   0.835  52.177  1.00  0.00     0.019 A 
ENDROOT
BRANCH   1  20
HETATM   20  C2  UNL     1      23.881   2.991  51.159  1.00  0.00    -0.001 C 
HETATM   21  C1  UNL     1      24.586   3.521  50.196  1.00  0.00     0.009 C 
ENDBRANCH   1  20
TORSDOF 1
ENDMDL
