MODEL 1
REMARK VINA RESULT:      -9.3      0.000      0.000
REMARK  5 active torsions:
REMARK  status: ('A' for Active; 'I' for Inactive)
REMARK       I    between atoms: C1_2  and  N1_3 
REMARK    1  A    between atoms: C1_2  and  C16_23 
REMARK    2  A    between atoms: N1_3  and  C2_4 
REMARK    3  A    between atoms: C6_9  and  N2_10 
REMARK    4  A    between atoms: N2_10  and  C7_11 
REMARK    5  A    between atoms: C10_15  and  C11_16 
ROOT
HETATM    1  C2  UNL     1      28.775   5.599  48.205  1.00  0.00     0.037 A 
HETATM    2  C3  UNL     1      28.477   6.945  48.189  1.00  0.00     0.031 A 
HETATM    3  C4  UNL     1      27.227   7.342  48.612  1.00  0.00     0.028 A 
HETATM    4  C5  UNL     1      26.307   6.419  49.037  1.00  0.00     0.061 A 
HETATM    5 CL1  UNL     1      24.725   7.015  49.564  1.00  0.00    -0.082 Cl
HETATM    6  C6  UNL     1      26.554   5.043  49.075  1.00  0.00     0.073 A 
HETATM    7  C15 UNL     1      27.820   4.716  48.640  1.00  0.00     0.061 A 
ENDROOT
BRANCH   6   8
HETATM    8  N2  UNL     1      25.576   4.141  49.520  1.00  0.00    -0.186 N 
HETATM    9  H4  UNL     1      24.819   3.915  48.808  1.00  0.00     0.184 HD
BRANCH   8  10
HETATM   10  C7  UNL     1      25.486   3.509  50.781  1.00  0.00     0.727 A 
HETATM   11  N3  UNL     1      24.459   3.535  51.614  1.00  0.00    -0.075 NA
HETATM   12  C8  UNL     1      24.409   2.928  52.794  1.00  0.00     0.138 A 
HETATM   13  C9  UNL     1      25.504   2.205  53.208  1.00  0.00     0.048 A 
HETATM   14  C10 UNL     1      26.601   2.143  52.382  1.00  0.00     0.067 A 
HETATM   15  N5  UNL     1      26.526   2.793  51.229  1.00  0.00    -0.066 NA
BRANCH  14  16
HETATM   16  C11 UNL     1      27.800   1.381  52.778  1.00  0.00     0.103 A 
HETATM   17  C12 UNL     1      27.513   0.191  53.600  1.00  0.00     0.009 A 
HETATM   18  C13 UNL     1      28.171   0.298  54.748  1.00  0.00     0.113 A 
HETATM   19  N4  UNL     1      28.911   1.518  54.765  1.00  0.00    -0.276 NA
HETATM   20  C14 UNL     1      28.721   2.159  53.657  1.00  0.00     0.104 A 
ENDBRANCH  14  16
ENDBRANCH   8  10
ENDBRANCH   6   8
BRANCH   1  21
HETATM   21  N1  UNL     1      30.066   5.192  47.768  1.00  0.00    -0.323 N 
HETATM   22  C1  UNL     1      31.263   5.187  48.524  1.00  0.00     0.256 C 
HETATM   23  O1  UNL     1      31.309   5.562  49.721  1.00  0.00    -0.267 OA
HETATM   24  H1  UNL     1      30.031   4.879  46.773  1.00  0.00     0.169 HD
BRANCH  22  25
HETATM   25  C16 UNL     1      32.525   4.740  47.942  1.00  0.00     0.032 A 
HETATM   26  C17 UNL     1      32.547   3.599  47.163  1.00  0.00     0.017 A 
HETATM   27  C18 UNL     1      33.678   3.073  46.557  1.00  0.00     0.001 A 
HETATM   28  C19 UNL     1      34.873   3.723  46.736  1.00  0.00     0.000 A 
HETATM   29  C20 UNL     1      34.885   4.856  47.502  1.00  0.00     0.001 A 
HETATM   30  C21 UNL     1      33.739   5.376  48.108  1.00  0.00     0.017 A 
ENDBRANCH  22  25
ENDBRANCH   1  21
TORSDOF 5
ENDMDL
MODEL 2
REMARK VINA RESULT:      -9.0      3.351      5.141
REMARK  5 active torsions:
REMARK  status: ('A' for Active; 'I' for Inactive)
REMARK       I    between atoms: C1_2  and  N1_3 
REMARK    1  A    between atoms: C1_2  and  C16_23 
REMARK    2  A    between atoms: N1_3  and  C2_4 
REMARK    3  A    between atoms: C6_9  and  N2_10 
REMARK    4  A    between atoms: N2_10  and  C7_11 
REMARK    5  A    between atoms: C10_15  and  C11_16 
ROOT
HETATM    1  C2  UNL     1      23.806   3.345  49.490  1.00  0.00     0.037 A 
HETATM    2  C3  UNL     1      22.864   2.913  48.579  1.00  0.00     0.031 A 
HETATM    3  C4  UNL     1      21.949   1.966  48.986  1.00  0.00     0.028 A 
HETATM    4  C5  UNL     1      21.977   1.469  50.263  1.00  0.00     0.061 A 
HETATM    5 CL1  UNL     1      20.764   0.256  50.702  1.00  0.00    -0.082 Cl
HETATM    6  C6  UNL     1      22.907   1.869  51.227  1.00  0.00     0.073 A 
HETATM    7  C15 UNL     1      23.790   2.816  50.755  1.00  0.00     0.061 A 
ENDROOT
BRANCH   6   8
HETATM    8  N2  UNL     1      22.891   1.329  52.521  1.00  0.00    -0.186 N 
HETATM    9  H4  UNL     1      21.986   1.480  53.059  1.00  0.00     0.184 HD
BRANCH   8  10
HETATM   10  C7  UNL     1      23.920   0.618  53.178  1.00  0.00     0.727 A 
HETATM   11  N3  UNL     1      23.779  -0.362  54.056  1.00  0.00    -0.075 NA
HETATM   12  C8  UNL     1      24.772  -1.009  54.654  1.00  0.00     0.138 A 
HETATM   13  C9  UNL     1      26.065  -0.650  54.355  1.00  0.00     0.048 A 
HETATM   14  C10 UNL     1      26.273   0.362  53.448  1.00  0.00     0.067 A 
HETATM   15  N5  UNL     1      25.197   0.930  52.920  1.00  0.00    -0.066 NA
BRANCH  14  16
HETATM   16  C11 UNL     1      27.640   0.785  53.092  1.00  0.00     0.103 A 
HETATM   17  C12 UNL     1      28.682   0.297  54.015  1.00  0.00     0.009 A 
HETATM   18  C13 UNL     1      29.337   1.341  54.508  1.00  0.00     0.113 A 
HETATM   19  N4  UNL     1      28.797   2.546  53.966  1.00  0.00    -0.276 NA
HETATM   20  C14 UNL     1      27.828   2.265  53.156  1.00  0.00     0.104 A 
ENDBRANCH  14  16
ENDBRANCH   8  10
ENDBRANCH   6   8
BRANCH   1  21
HETATM   21  N1  UNL     1      24.749   4.321  49.068  1.00  0.00    -0.323 N 
HETATM   22  C1  UNL     1      26.160   4.235  49.143  1.00  0.00     0.256 C 
HETATM   23  O1  UNL     1      26.754   3.235  49.614  1.00  0.00    -0.267 OA
HETATM   24  H1  UNL     1      24.259   5.155  48.676  1.00  0.00     0.169 HD
BRANCH  22  25
HETATM   25  C16 UNL     1      27.012   5.322  48.669  1.00  0.00     0.032 A 
HETATM   26  C17 UNL     1      28.359   5.090  48.466  1.00  0.00     0.017 A 
HETATM   27  C18 UNL     1      29.269   6.036  48.020  1.00  0.00     0.001 A 
HETATM   28  C19 UNL     1      28.813   7.302  47.757  1.00  0.00     0.000 A 
HETATM   29  C20 UNL     1      27.485   7.566  47.947  1.00  0.00     0.001 A 
HETATM   30  C21 UNL     1      26.577   6.604  48.397  1.00  0.00     0.017 A 
ENDBRANCH  22  25
ENDBRANCH   1  21
TORSDOF 5
ENDMDL
MODEL 3
REMARK VINA RESULT:      -9.0      4.541      6.803
REMARK  5 active torsions:
REMARK  status: ('A' for Active; 'I' for Inactive)
REMARK       I    between atoms: C1_2  and  N1_3 
REMARK    1  A    between atoms: C1_2  and  C16_23 
REMARK    2  A    between atoms: N1_3  and  C2_4 
REMARK    3  A    between atoms: C6_9  and  N2_10 
REMARK    4  A    between atoms: N2_10  and  C7_11 
REMARK    5  A    between atoms: C10_15  and  C11_16 
ROOT
HETATM    1  C2  UNL     1      22.275   1.956  50.194  1.00  0.00     0.037 A 
HETATM    2  C3  UNL     1      21.078   2.101  49.525  1.00  0.00     0.031 A 
HETATM    3  C4  UNL     1      19.987   1.393  49.977  1.00  0.00     0.028 A 
HETATM    4  C5  UNL     1      20.092   0.567  51.066  1.00  0.00     0.061 A 
HETATM    5 CL1  UNL     1      18.640  -0.305  51.582  1.00  0.00    -0.082 Cl
HETATM    6  C6  UNL     1      21.277   0.381  51.783  1.00  0.00     0.073 A 
HETATM    7  C15 UNL     1      22.327   1.117  51.278  1.00  0.00     0.061 A 
ENDROOT
BRANCH   6   8
HETATM    8  N2  UNL     1      21.330  -0.477  52.892  1.00  0.00    -0.186 N 
HETATM    9  H4  UNL     1      20.432  -1.012  53.086  1.00  0.00     0.184 HD
BRANCH   8  10
HETATM   10  C7  UNL     1      22.420  -0.708  53.761  1.00  0.00     0.727 A 
HETATM   11  N3  UNL     1      22.387  -1.302  54.942  1.00  0.00    -0.075 NA
HETATM   12  C8  UNL     1      23.434  -1.502  55.733  1.00  0.00     0.138 A 
HETATM   13  C9  UNL     1      24.669  -1.065  55.313  1.00  0.00     0.048 A 
HETATM   14  C10 UNL     1      24.764  -0.440  54.093  1.00  0.00     0.067 A 
HETATM   15  N5  UNL     1      23.643  -0.300  53.397  1.00  0.00    -0.066 NA
BRANCH  14  16
HETATM   16  C11 UNL     1      26.063   0.048  53.595  1.00  0.00     0.103 A 
HETATM   17  C12 UNL     1      26.722  -0.862  52.639  1.00  0.00     0.009 A 
HETATM   18  C13 UNL     1      27.920  -1.184  53.114  1.00  0.00     0.113 A 
HETATM   19  N4  UNL     1      28.128  -0.534  54.368  1.00  0.00    -0.276 NA
HETATM   20  C14 UNL     1      27.090   0.175  54.671  1.00  0.00     0.104 A 
ENDBRANCH  14  16
ENDBRANCH   8  10
ENDBRANCH   6   8
BRANCH   1  21
HETATM   21  N1  UNL     1      23.401   2.687  49.724  1.00  0.00    -0.323 N 
HETATM   22  C1  UNL     1      23.777   4.003  50.087  1.00  0.00     0.256 C 
HETATM   23  O1  UNL     1      23.121   4.695  50.903  1.00  0.00    -0.267 OA
HETATM   24  H1  UNL     1      23.949   2.116  49.045  1.00  0.00     0.169 HD
BRANCH  22  25
HETATM   25  C16 UNL     1      24.967   4.634  49.521  1.00  0.00     0.032 A 
HETATM   26  C17 UNL     1      26.148   3.921  49.457  1.00  0.00     0.017 A 
HETATM   27  C18 UNL     1      27.341   4.407  48.944  1.00  0.00     0.001 A 
HETATM   28  C19 UNL     1      27.366   5.691  48.462  1.00  0.00     0.000 A 
HETATM   29  C20 UNL     1      26.213   6.424  48.511  1.00  0.00     0.001 A 
HETATM   30  C21 UNL     1      25.016   5.923  49.030  1.00  0.00     0.017 A 
ENDBRANCH  22  25
ENDBRANCH   1  21
TORSDOF 5
ENDMDL
MODEL 4
REMARK VINA RESULT:      -8.9      4.562      6.518
REMARK  5 active torsions:
REMARK  status: ('A' for Active; 'I' for Inactive)
REMARK       I    between atoms: C1_2  and  N1_3 
REMARK    1  A    between atoms: C1_2  and  C16_23 
REMARK    2  A    between atoms: N1_3  and  C2_4 
REMARK    3  A    between atoms: C6_9  and  N2_10 
REMARK    4  A    between atoms: N2_10  and  C7_11 
REMARK    5  A    between atoms: C10_15  and  C11_16 
ROOT
HETATM    1  C2  UNL     1      25.965   2.842  51.156  1.00  0.00     0.037 A 
HETATM    2  C3  UNL     1      26.450   3.654  50.151  1.00  0.00     0.031 A 
HETATM    3  C4  UNL     1      25.709   4.757  49.789  1.00  0.00     0.028 A 
HETATM    4  C5  UNL     1      24.522   5.039  50.413  1.00  0.00     0.061 A 
HETATM    5 CL1  UNL     1      23.635   6.477  49.886  1.00  0.00    -0.082 Cl
HETATM    6  C6  UNL     1      23.983   4.254  51.436  1.00  0.00     0.073 A 
HETATM    7  C15 UNL     1      24.772   3.168  51.749  1.00  0.00     0.061 A 
ENDROOT
BRANCH   6   8
HETATM    8  N2  UNL     1      22.762   4.587  52.043  1.00  0.00    -0.186 N 
HETATM    9  H4  UNL     1      22.781   5.476  52.626  1.00  0.00     0.184 HD
BRANCH   8  10
HETATM   10  C7  UNL     1      21.535   3.891  51.967  1.00  0.00     0.727 A 
HETATM   11  N3  UNL     1      20.383   4.352  51.509  1.00  0.00    -0.075 NA
HETATM   12  C8  UNL     1      19.248   3.666  51.452  1.00  0.00     0.138 A 
HETATM   13  C9  UNL     1      19.241   2.366  51.901  1.00  0.00     0.048 A 
HETATM   14  C10 UNL     1      20.411   1.833  52.387  1.00  0.00     0.067 A 
HETATM   15  N5  UNL     1      21.478   2.621  52.391  1.00  0.00    -0.066 NA
BRANCH  14  16
HETATM   16  C11 UNL     1      20.459   0.444  52.880  1.00  0.00     0.103 A 
HETATM   17  C12 UNL     1      20.652   0.329  54.338  1.00  0.00     0.009 A 
HETATM   18  C13 UNL     1      21.745  -0.389  54.568  1.00  0.00     0.113 A 
HETATM   19  N4  UNL     1      22.328  -0.784  53.326  1.00  0.00    -0.276 NA
HETATM   20  C14 UNL     1      21.620  -0.326  52.345  1.00  0.00     0.104 A 
ENDBRANCH  14  16
ENDBRANCH   8  10
ENDBRANCH   6   8
BRANCH   1  21
HETATM   21  N1  UNL     1      26.731   1.703  51.528  1.00  0.00    -0.323 N 
HETATM   22  C1  UNL     1      27.316   1.441  52.790  1.00  0.00     0.256 C 
HETATM   23  O1  UNL     1      27.213   2.230  53.761  1.00  0.00    -0.267 OA
HETATM   24  H1  UNL     1      26.819   1.045  50.723  1.00  0.00     0.169 HD
BRANCH  22  25
HETATM   25  C16 UNL     1      28.082   0.222  53.033  1.00  0.00     0.032 A 
HETATM   26  C17 UNL     1      27.502  -1.006  52.778  1.00  0.00     0.017 A 
HETATM   27  C18 UNL     1      28.123  -2.231  52.967  1.00  0.00     0.001 A 
HETATM   28  C19 UNL     1      29.410  -2.241  53.442  1.00  0.00     0.000 A 
HETATM   29  C20 UNL     1      30.013  -1.042  53.704  1.00  0.00     0.001 A 
HETATM   30  C21 UNL     1      29.377   0.187  53.510  1.00  0.00     0.017 A 
ENDBRANCH  22  25
ENDBRANCH   1  21
TORSDOF 5
ENDMDL
MODEL 5
REMARK VINA RESULT:      -8.9      3.590      5.659
REMARK  5 active torsions:
REMARK  status: ('A' for Active; 'I' for Inactive)
REMARK       I    between atoms: C1_2  and  N1_3 
REMARK    1  A    between atoms: C1_2  and  C16_23 
REMARK    2  A    between atoms: N1_3  and  C2_4 
REMARK    3  A    between atoms: C6_9  and  N2_10 
REMARK    4  A    between atoms: N2_10  and  C7_11 
REMARK    5  A    between atoms: C10_15  and  C11_16 
ROOT
HETATM    1  C2  UNL     1      23.469   3.242  49.574  1.00  0.00     0.037 A 
HETATM    2  C3  UNL     1      22.786   2.588  48.570  1.00  0.00     0.031 A 
HETATM    3  C4  UNL     1      21.809   1.684  48.925  1.00  0.00     0.028 A 
HETATM    4  C5  UNL     1      21.525   1.445  50.245  1.00  0.00     0.061 A 
HETATM    5 CL1  UNL     1      20.253   0.269  50.613  1.00  0.00    -0.082 Cl
HETATM    6  C6  UNL     1      22.183   2.077  51.304  1.00  0.00     0.073 A 
HETATM    7  C15 UNL     1      23.146   2.966  50.878  1.00  0.00     0.061 A 
ENDROOT
BRANCH   6   8
HETATM    8  N2  UNL     1      21.852   1.795  52.638  1.00  0.00    -0.186 N 
HETATM    9  H4  UNL     1      21.160   2.471  53.080  1.00  0.00     0.184 HD
BRANCH   8  10
HETATM   10  C7  UNL     1      22.324   0.735  53.444  1.00  0.00     0.727 A 
HETATM   11  N3  UNL     1      21.607  -0.046  54.235  1.00  0.00    -0.075 NA
HETATM   12  C8  UNL     1      22.086  -1.035  54.980  1.00  0.00     0.138 A 
HETATM   13  C9  UNL     1      23.437  -1.290  54.945  1.00  0.00     0.048 A 
HETATM   14  C10 UNL     1      24.232  -0.510  54.140  1.00  0.00     0.067 A 
HETATM   15  N5  UNL     1      23.633   0.447  53.444  1.00  0.00    -0.066 NA
BRANCH  14  16
HETATM   16  C11 UNL     1      25.686  -0.741  54.065  1.00  0.00     0.103 A 
HETATM   17  C12 UNL     1      26.494   0.277  54.762  1.00  0.00     0.009 A 
HETATM   18  C13 UNL     1      27.336   0.822  53.893  1.00  0.00     0.113 A 
HETATM   19  N4  UNL     1      27.151   0.226  52.609  1.00  0.00    -0.276 NA
HETATM   20  C14 UNL     1      26.219  -0.669  52.673  1.00  0.00     0.104 A 
ENDBRANCH  14  16
ENDBRANCH   8  10
ENDBRANCH   6   8
BRANCH   1  21
HETATM   21  N1  UNL     1      24.478   4.173  49.205  1.00  0.00    -0.323 N 
HETATM   22  C1  UNL     1      25.879   4.011  49.329  1.00  0.00     0.256 C 
HETATM   23  O1  UNL     1      26.401   2.973  49.804  1.00  0.00    -0.267 OA
HETATM   24  H1  UNL     1      24.048   5.038  48.810  1.00  0.00     0.169 HD
BRANCH  22  25
HETATM   25  C16 UNL     1      26.804   5.058  48.906  1.00  0.00     0.032 A 
HETATM   26  C17 UNL     1      26.374   6.371  48.872  1.00  0.00     0.017 A 
HETATM   27  C18 UNL     1      27.154   7.452  48.490  1.00  0.00     0.001 A 
HETATM   28  C19 UNL     1      28.452   7.216  48.114  1.00  0.00     0.000 A 
HETATM   29  C20 UNL     1      28.909   5.927  48.137  1.00  0.00     0.001 A 
HETATM   30  C21 UNL     1      28.113   4.846  48.524  1.00  0.00     0.017 A 
ENDBRANCH  22  25
ENDBRANCH   1  21
TORSDOF 5
ENDMDL
MODEL 6
REMARK VINA RESULT:      -8.9      2.311      3.331
REMARK  5 active torsions:
REMARK  status: ('A' for Active; 'I' for Inactive)
REMARK       I    between atoms: C1_2  and  N1_3 
REMARK    1  A    between atoms: C1_2  and  C16_23 
REMARK    2  A    between atoms: N1_3  and  C2_4 
REMARK    3  A    between atoms: C6_9  and  N2_10 
REMARK    4  A    between atoms: N2_10  and  C7_11 
REMARK    5  A    between atoms: C10_15  and  C11_16 
ROOT
HETATM    1  C2  UNL     1      25.752   5.981  49.919  1.00  0.00     0.037 A 
HETATM    2  C3  UNL     1      25.017   6.939  50.585  1.00  0.00     0.031 A 
HETATM    3  C4  UNL     1      23.897   6.536  51.279  1.00  0.00     0.028 A 
HETATM    4  C5  UNL     1      23.527   5.217  51.306  1.00  0.00     0.061 A 
HETATM    5 CL1  UNL     1      22.075   4.786  52.223  1.00  0.00    -0.082 Cl
HETATM    6  C6  UNL     1      24.233   4.203  50.651  1.00  0.00     0.073 A 
HETATM    7  C15 UNL     1      25.339   4.674  49.977  1.00  0.00     0.061 A 
ENDROOT
BRANCH   6   8
HETATM    8  N2  UNL     1      23.811   2.867  50.710  1.00  0.00    -0.186 N 
HETATM    9  H4  UNL     1      23.084   2.595  49.982  1.00  0.00     0.184 HD
BRANCH   8  10
HETATM   10  C7  UNL     1      24.233   1.861  51.608  1.00  0.00     0.727 A 
HETATM   11  N3  UNL     1      23.467   1.014  52.275  1.00  0.00    -0.075 NA
HETATM   12  C8  UNL     1      23.901   0.079  53.112  1.00  0.00     0.138 A 
HETATM   13  C9  UNL     1      25.256  -0.040  53.321  1.00  0.00     0.048 A 
HETATM   14  C10 UNL     1      26.100   0.815  52.653  1.00  0.00     0.067 A 
HETATM   15  N5  UNL     1      25.543   1.706  51.844  1.00  0.00    -0.066 NA
BRANCH  14  16
HETATM   16  C11 UNL     1      27.561   0.730  52.841  1.00  0.00     0.103 A 
HETATM   17  C12 UNL     1      27.983  -0.279  53.831  1.00  0.00     0.009 A 
HETATM   18  C13 UNL     1      28.692   0.324  54.778  1.00  0.00     0.113 A 
HETATM   19  N4  UNL     1      28.785   1.719  54.491  1.00  0.00    -0.276 NA
HETATM   20  C14 UNL     1      28.152   1.984  53.395  1.00  0.00     0.104 A 
ENDBRANCH  14  16
ENDBRANCH   8  10
ENDBRANCH   6   8
BRANCH   1  21
HETATM   21  N1  UNL     1      26.907   6.399  49.203  1.00  0.00    -0.323 N 
HETATM   22  C1  UNL     1      27.893   5.571  48.612  1.00  0.00     0.256 C 
HETATM   23  O1  UNL     1      27.845   4.318  48.664  1.00  0.00    -0.267 OA
HETATM   24  H1  UNL     1      26.951   7.440  49.158  1.00  0.00     0.169 HD
BRANCH  22  25
HETATM   25  C16 UNL     1      29.035   6.141  47.902  1.00  0.00     0.032 A 
HETATM   26  C17 UNL     1      28.860   7.280  47.139  1.00  0.00     0.017 A 
HETATM   27  C18 UNL     1      29.861   7.915  46.421  1.00  0.00     0.001 A 
HETATM   28  C19 UNL     1      31.125   7.383  46.459  1.00  0.00     0.000 A 
HETATM   29  C20 UNL     1      31.332   6.256  47.205  1.00  0.00     0.001 A 
HETATM   30  C21 UNL     1      30.314   5.625  47.925  1.00  0.00     0.017 A 
ENDBRANCH  22  25
ENDBRANCH   1  21
TORSDOF 5
ENDMDL
MODEL 7
REMARK VINA RESULT:      -8.8      2.624      7.132
REMARK  5 active torsions:
REMARK  status: ('A' for Active; 'I' for Inactive)
REMARK       I    between atoms: C1_2  and  N1_3 
REMARK    1  A    between atoms: C1_2  and  C16_23 
REMARK    2  A    between atoms: N1_3  and  C2_4 
REMARK    3  A    between atoms: C6_9  and  N2_10 
REMARK    4  A    between atoms: N2_10  and  C7_11 
REMARK    5  A    between atoms: C10_15  and  C11_16 
ROOT
HETATM    1  C2  UNL     1      25.082   2.663  51.831  1.00  0.00     0.037 A 
HETATM    2  C3  UNL     1      23.979   2.764  52.653  1.00  0.00     0.031 A 
HETATM    3  C4  UNL     1      23.111   3.816  52.454  1.00  0.00     0.028 A 
HETATM    4  C5  UNL     1      23.341   4.735  51.464  1.00  0.00     0.061 A 
HETATM    5 CL1  UNL     1      22.175   6.054  51.277  1.00  0.00    -0.082 Cl
HETATM    6  C6  UNL     1      24.440   4.682  50.602  1.00  0.00     0.073 A 
HETATM    7  C15 UNL     1      25.266   3.608  50.855  1.00  0.00     0.061 A 
ENDROOT
BRANCH   6   8
HETATM    8  N2  UNL     1      24.628   5.650  49.603  1.00  0.00    -0.186 N 
HETATM    9  H4  UNL     1      23.899   5.641  48.829  1.00  0.00     0.184 HD
BRANCH   8  10
HETATM   10  C7  UNL     1      25.656   6.616  49.512  1.00  0.00     0.727 A 
HETATM   11  N3  UNL     1      25.709   7.785  50.129  1.00  0.00    -0.075 NA
HETATM   12  C8  UNL     1      26.693   8.669  50.019  1.00  0.00     0.138 A 
HETATM   13  C9  UNL     1      27.759   8.369  49.202  1.00  0.00     0.048 A 
HETATM   14  C10 UNL     1      27.758   7.167  48.536  1.00  0.00     0.067 A 
HETATM   15  N5  UNL     1      26.715   6.370  48.730  1.00  0.00    -0.066 NA
BRANCH  14  16
HETATM   16  C11 UNL     1      28.875   6.796  47.649  1.00  0.00     0.103 A 
HETATM   17  C12 UNL     1      29.592   5.575  48.061  1.00  0.00     0.009 A 
HETATM   18  C13 UNL     1      30.873   5.872  48.240  1.00  0.00     0.113 A 
HETATM   19  N4  UNL     1      31.086   7.257  47.969  1.00  0.00    -0.276 NA
HETATM   20  C14 UNL     1      29.968   7.813  47.630  1.00  0.00     0.104 A 
ENDBRANCH  14  16
ENDBRANCH   8  10
ENDBRANCH   6   8
BRANCH   1  21
HETATM   21  N1  UNL     1      25.976   1.577  52.038  1.00  0.00    -0.323 N 
HETATM   22  C1  UNL     1      26.916   1.431  53.087  1.00  0.00     0.256 C 
HETATM   23  O1  UNL     1      27.063   2.292  53.989  1.00  0.00    -0.267 OA
HETATM   24  H1  UNL     1      25.857   0.859  51.291  1.00  0.00     0.169 HD
BRANCH  22  25
HETATM   25  C16 UNL     1      27.777   0.255  53.176  1.00  0.00     0.032 A 
HETATM   26  C17 UNL     1      27.256  -0.990  52.882  1.00  0.00     0.017 A 
HETATM   27  C18 UNL     1      27.968  -2.179  52.929  1.00  0.00     0.001 A 
HETATM   28  C19 UNL     1      29.289  -2.131  53.294  1.00  0.00     0.000 A 
HETATM   29  C20 UNL     1      29.835  -0.913  53.593  1.00  0.00     0.001 A 
HETATM   30  C21 UNL     1      29.107   0.278  53.542  1.00  0.00     0.017 A 
ENDBRANCH  22  25
ENDBRANCH   1  21
TORSDOF 5
ENDMDL
MODEL 8
REMARK VINA RESULT:      -8.7      5.508      8.218
REMARK  5 active torsions:
REMARK  status: ('A' for Active; 'I' for Inactive)
REMARK       I    between atoms: C1_2  and  N1_3 
REMARK    1  A    between atoms: C1_2  and  C16_23 
REMARK    2  A    between atoms: N1_3  and  C2_4 
REMARK    3  A    between atoms: C6_9  and  N2_10 
REMARK    4  A    between atoms: N2_10  and  C7_11 
REMARK    5  A    between atoms: C10_15  and  C11_16 
ROOT
HETATM    1  C2  UNL     1      23.511  -0.516  53.700  1.00  0.00     0.037 A 
HETATM    2  C3  UNL     1      22.739  -1.280  54.550  1.00  0.00     0.031 A 
HETATM    3  C4  UNL     1      21.369  -1.231  54.409  1.00  0.00     0.028 A 
HETATM    4  C5  UNL     1      20.793  -0.443  53.447  1.00  0.00     0.061 A 
HETATM    5 CL1  UNL     1      19.026  -0.440  53.335  1.00  0.00    -0.082 Cl
HETATM    6  C6  UNL     1      21.524   0.351  52.558  1.00  0.00     0.073 A 
HETATM    7  C15 UNL     1      22.885   0.255  52.754  1.00  0.00     0.061 A 
ENDROOT
BRANCH   6   8
HETATM    8  N2  UNL     1      20.884   1.139  51.591  1.00  0.00    -0.186 N 
HETATM    9  H4  UNL     1      19.884   1.415  51.829  1.00  0.00     0.184 HD
BRANCH   8  10
HETATM   10  C7  UNL     1      21.405   1.601  50.362  1.00  0.00     0.727 A 
HETATM   11  N3  UNL     1      21.391   0.967  49.201  1.00  0.00    -0.075 NA
HETATM   12  C8  UNL     1      21.892   1.434  48.063  1.00  0.00     0.138 A 
HETATM   13  C9  UNL     1      22.480   2.677  48.064  1.00  0.00     0.048 A 
HETATM   14  C10 UNL     1      22.523   3.382  49.243  1.00  0.00     0.067 A 
HETATM   15  N5  UNL     1      21.988   2.806  50.311  1.00  0.00    -0.066 NA
BRANCH  14  16
HETATM   16  C11 UNL     1      23.142   4.720  49.299  1.00  0.00     0.103 A 
HETATM   17  C12 UNL     1      24.613   4.707  49.186  1.00  0.00     0.009 A 
HETATM   18  C13 UNL     1      25.128   5.293  50.260  1.00  0.00     0.113 A 
HETATM   19  N4  UNL     1      24.075   5.718  51.125  1.00  0.00    -0.276 NA
HETATM   20  C14 UNL     1      22.931   5.407  50.608  1.00  0.00     0.104 A 
ENDBRANCH  14  16
ENDBRANCH   8  10
ENDBRANCH   6   8
BRANCH   1  21
HETATM   21  N1  UNL     1      24.924  -0.568  53.848  1.00  0.00    -0.323 N 
HETATM   22  C1  UNL     1      25.897  -0.067  52.949  1.00  0.00     0.256 C 
HETATM   23  O1  UNL     1      25.595   0.504  51.873  1.00  0.00    -0.267 OA
HETATM   24  H1  UNL     1      25.180  -1.042  54.741  1.00  0.00     0.169 HD
BRANCH  22  25
HETATM   25  C16 UNL     1      27.325  -0.190  53.230  1.00  0.00     0.032 A 
HETATM   26  C17 UNL     1      27.945  -1.414  53.068  1.00  0.00     0.017 A 
HETATM   27  C18 UNL     1      29.290  -1.659  53.301  1.00  0.00     0.001 A 
HETATM   28  C19 UNL     1      30.075  -0.618  53.726  1.00  0.00     0.000 A 
HETATM   29  C20 UNL     1      29.492   0.607  53.897  1.00  0.00     0.001 A 
HETATM   30  C21 UNL     1      28.135   0.842  53.658  1.00  0.00     0.017 A 
ENDBRANCH  22  25
ENDBRANCH   1  21
TORSDOF 5
ENDMDL
MODEL 9
REMARK VINA RESULT:      -8.7      3.373      5.241
REMARK  5 active torsions:
REMARK  status: ('A' for Active; 'I' for Inactive)
REMARK       I    between atoms: C1_2  and  N1_3 
REMARK    1  A    between atoms: C1_2  and  C16_23 
REMARK    2  A    between atoms: N1_3  and  C2_4 
REMARK    3  A    between atoms: C6_9  and  N2_10 
REMARK    4  A    between atoms: N2_10  and  C7_11 
REMARK    5  A    between atoms: C10_15  and  C11_16 
ROOT
HETATM    1  C2  UNL     1      24.137   4.455  50.848  1.00  0.00     0.037 A 
HETATM    2  C3  UNL     1      23.248   5.436  51.235  1.00  0.00     0.031 A 
HETATM    3  C4  UNL     1      22.046   5.047  51.784  1.00  0.00     0.028 A 
HETATM    4  C5  UNL     1      21.745   3.719  51.940  1.00  0.00     0.061 A 
HETATM    5 CL1  UNL     1      20.178   3.308  52.654  1.00  0.00    -0.082 Cl
HETATM    6  C6  UNL     1      22.606   2.683  51.567  1.00  0.00     0.073 A 
HETATM    7  C15 UNL     1      23.788   3.140  51.026  1.00  0.00     0.061 A 
ENDROOT
BRANCH   6   8
HETATM    8  N2  UNL     1      22.248   1.339  51.749  1.00  0.00    -0.186 N 
HETATM    9  H4  UNL     1      21.683   0.915  50.954  1.00  0.00     0.184 HD
BRANCH   8  10
HETATM   10  C7  UNL     1      22.549   0.501  52.846  1.00  0.00     0.727 A 
HETATM   11  N3  UNL     1      21.689  -0.060  53.681  1.00  0.00    -0.075 NA
HETATM   12  C8  UNL     1      22.009  -0.844  54.703  1.00  0.00     0.138 A 
HETATM   13  C9  UNL     1      23.338  -1.112  54.936  1.00  0.00     0.048 A 
HETATM   14  C10 UNL     1      24.276  -0.557  54.099  1.00  0.00     0.067 A 
HETATM   15  N5  UNL     1      23.829   0.210  53.114  1.00  0.00    -0.066 NA
BRANCH  14  16
HETATM   16  C11 UNL     1      25.714  -0.812  54.305  1.00  0.00     0.103 A 
HETATM   17  C12 UNL     1      26.474   0.363  54.771  1.00  0.00     0.009 A 
HETATM   18  C13 UNL     1      27.450   0.610  53.906  1.00  0.00     0.113 A 
HETATM   19  N4  UNL     1      27.406  -0.347  52.848  1.00  0.00    -0.276 NA
HETATM   20  C14 UNL     1      26.429  -1.172  53.045  1.00  0.00     0.104 A 
ENDBRANCH  14  16
ENDBRANCH   8  10
ENDBRANCH   6   8
BRANCH   1  21
HETATM   21  N1  UNL     1      25.377   4.858  50.281  1.00  0.00    -0.323 N 
HETATM   22  C1  UNL     1      25.579   5.517  49.044  1.00  0.00     0.256 C 
HETATM   23  O1  UNL     1      24.632   5.829  48.281  1.00  0.00    -0.267 OA
HETATM   24  H1  UNL     1      26.167   4.600  50.912  1.00  0.00     0.169 HD
BRANCH  22  25
HETATM   25  C16 UNL     1      26.918   5.874  48.584  1.00  0.00     0.032 A 
HETATM   26  C17 UNL     1      27.143   7.133  48.061  1.00  0.00     0.017 A 
HETATM   27  C18 UNL     1      28.365   7.590  47.592  1.00  0.00     0.001 A 
HETATM   28  C19 UNL     1      29.440   6.740  47.644  1.00  0.00     0.000 A 
HETATM   29  C20 UNL     1      29.251   5.487  48.156  1.00  0.00     0.001 A 
HETATM   30  C21 UNL     1      28.014   5.037  48.626  1.00  0.00     0.017 A 
ENDBRANCH  22  25
ENDBRANCH   1  21
TORSDOF 5
ENDMDL
