MODEL 1
REMARK VINA RESULT:      -8.3      0.000      0.000
REMARK  7 active torsions:
REMARK  status: ('A' for Active; 'I' for Inactive)
REMARK    1  A    between atoms: N1_1  and  C1_2 
REMARK    2  A    between atoms: C4_5  and  N2_6 
REMARK    3  A    between atoms: N2_6  and  C5_7 
REMARK    4  A    between atoms: C8_10  and  N3_11 
REMARK       I    between atoms: N3_11  and  C9_12 
REMARK    5  A    between atoms: C9_12  and  C10_14 
REMARK    6  A    between atoms: C11_15  and  C12_16 
REMARK    7  A    between atoms: C12_16  and  N4_17 
ROOT
HETATM    1  C5  UNL     1      22.048   2.274  51.617  1.00  0.00     0.021 C 
HETATM    2  C6  UNL     1      23.130   2.847  51.006  1.00  0.00    -0.026 C 
HETATM    3  C7  UNL     1      24.602   3.070  50.819  1.00  0.00     0.060 C 
HETATM    4  C8  UNL     1      24.651   4.480  50.840  1.00  0.00     0.131 C 
HETATM    5  N5  UNL     1      23.436   5.319  51.259  1.00  0.00    -0.239 NA
HETATM    6  C17 UNL     1      22.395   4.521  51.587  1.00  0.00     0.024 C 
HETATM    7  C18 UNL     1      22.311   3.875  50.177  1.00  0.00     0.095 C 
HETATM    8  C19 UNL     1      21.211   3.584  51.891  1.00  0.00     0.112 C 
ENDROOT
BRANCH   4   9
HETATM    9  N3  UNL     1      26.017   4.754  50.440  1.00  0.00    -0.301 N 
HETATM   10  C9  UNL     1      26.083   5.391  49.193  1.00  0.00     0.302 C 
HETATM   11  O1  UNL     1      25.011   5.660  48.551  1.00  0.00    -0.258 OA
HETATM   12  H7  UNL     1      26.821   4.486  51.035  1.00  0.00     0.171 HD
BRANCH  10  13
HETATM   13  C10 UNL     1      27.361   5.741  48.637  1.00  0.00    -0.004 C 
HETATM   14  C11 UNL     1      28.446   6.020  48.178  1.00  0.00    -0.066 C 
BRANCH  14  15
HETATM   15  C12 UNL     1      29.777   6.336  47.623  1.00  0.00     0.366 C 
BRANCH  15  16
HETATM   16  N4  UNL     1      30.796   5.537  48.281  1.00  0.00     0.103 N 
HETATM   17  C13 UNL     1      31.585   6.323  49.177  1.00  0.00     0.299 C 
HETATM   18  C14 UNL     1      33.060   6.149  48.908  1.00  0.00     0.198 C 
HETATM   19  O2  UNL     1      33.372   6.314  47.580  1.00  0.00    -0.388 OA
HETATM   20  C15 UNL     1      32.672   5.489  46.722  1.00  0.00     0.198 C 
HETATM   21  C16 UNL     1      31.542   4.737  47.353  1.00  0.00     0.299 C 
ENDBRANCH  15  16
ENDBRANCH  14  15
ENDBRANCH  10  13
ENDBRANCH   4   9
BRANCH   1  22
HETATM   22  N2  UNL     1      22.282   0.832  51.707  1.00  0.00    -0.359 N 
HETATM   23  H5  UNL     1      22.036   0.276  50.859  1.00  0.00     0.166 HD
BRANCH  22  24
HETATM   24  C4  UNL     1      22.827   0.172  52.861  1.00  0.00     0.034 A 
HETATM   25  C3  UNL     1      22.049  -0.452  53.782  1.00  0.00     0.032 A 
HETATM   26  C2  UNL     1      22.638  -1.066  54.868  1.00  0.00     0.033 A 
HETATM   27  C1  UNL     1      24.014  -1.009  54.959  1.00  0.00     0.047 A 
HETATM   28  C21 UNL     1      24.790  -0.378  54.026  1.00  0.00     0.062 A 
HETATM   29  C20 UNL     1      24.213   0.234  52.946  1.00  0.00     0.055 A 
HETATM   30 CL1  UNL     1      26.539  -0.364  54.240  1.00  0.00    -0.082 Cl
BRANCH  27  31
HETATM   31  N1  UNL     1      24.629  -1.635  56.069  1.00  0.00    -0.398 N 
HETATM   32  H1  UNL     1      25.542  -2.146  55.891  1.00  0.00     0.156 HD
HETATM   33  H2  UNL     1      24.545  -1.822  57.100  1.00  0.00     0.156 HD
ENDBRANCH  27  31
ENDBRANCH  22  24
ENDBRANCH   1  22
TORSDOF 7
ENDMDL
MODEL 2
REMARK VINA RESULT:      -8.3      2.564      3.091
REMARK  7 active torsions:
REMARK  status: ('A' for Active; 'I' for Inactive)
REMARK    1  A    between atoms: N1_1  and  C1_2 
REMARK    2  A    between atoms: C4_5  and  N2_6 
REMARK    3  A    between atoms: N2_6  and  C5_7 
REMARK    4  A    between atoms: C8_10  and  N3_11 
REMARK       I    between atoms: N3_11  and  C9_12 
REMARK    5  A    between atoms: C9_12  and  C10_14 
REMARK    6  A    between atoms: C11_15  and  C12_16 
REMARK    7  A    between atoms: C12_16  and  N4_17 
ROOT
HETATM    1  C5  UNL     1      24.807   2.286  52.746  1.00  0.00     0.021 C 
HETATM    2  C6  UNL     1      25.415   2.637  51.571  1.00  0.00    -0.026 C 
HETATM    3  C7  UNL     1      26.499   3.289  50.764  1.00  0.00     0.060 C 
HETATM    4  C8  UNL     1      25.725   4.060  49.872  1.00  0.00     0.131 C 
HETATM    5  N5  UNL     1      24.214   4.246  50.075  1.00  0.00    -0.239 NA
HETATM    6  C17 UNL     1      23.797   3.592  51.183  1.00  0.00     0.024 C 
HETATM    7  C18 UNL     1      24.237   2.201  50.655  1.00  0.00     0.095 C 
HETATM    8  C19 UNL     1      23.347   2.785  52.415  1.00  0.00     0.112 C 
ENDROOT
BRANCH   4   9
HETATM    9  N3  UNL     1      26.714   4.537  48.926  1.00  0.00    -0.301 N 
HETATM   10  C9  UNL     1      26.858   5.930  48.973  1.00  0.00     0.302 C 
HETATM   11  O1  UNL     1      26.156   6.622  49.787  1.00  0.00    -0.258 OA
HETATM   12  H7  UNL     1      27.225   3.888  48.302  1.00  0.00     0.171 HD
BRANCH  10  13
HETATM   13  C10 UNL     1      27.798   6.580  48.102  1.00  0.00    -0.004 C 
HETATM   14  C11 UNL     1      28.604   7.113  47.372  1.00  0.00    -0.066 C 
BRANCH  14  15
HETATM   15  C12 UNL     1      29.601   7.743  46.485  1.00  0.00     0.366 C 
BRANCH  15  16
HETATM   16  N4  UNL     1      30.912   7.722  47.110  1.00  0.00     0.103 N 
HETATM   17  C13 UNL     1      30.866   7.127  48.409  1.00  0.00     0.299 C 
HETATM   18  C14 UNL     1      31.502   8.020  49.446  1.00  0.00     0.198 C 
HETATM   19  O2  UNL     1      31.025   9.307  49.393  1.00  0.00    -0.388 OA
HETATM   20  C15 UNL     1      31.153   9.912  48.158  1.00  0.00     0.198 C 
HETATM   21  C16 UNL     1      31.565   8.998  47.047  1.00  0.00     0.299 C 
ENDBRANCH  15  16
ENDBRANCH  14  15
ENDBRANCH  10  13
ENDBRANCH   4   9
BRANCH   1  22
HETATM   22  N2  UNL     1      25.819   1.707  53.631  1.00  0.00    -0.359 N 
HETATM   23  H5  UNL     1      26.074   2.277  54.467  1.00  0.00     0.166 HD
BRANCH  22  24
HETATM   24  C4  UNL     1      26.443   0.431  53.419  1.00  0.00     0.034 A 
HETATM   25  C3  UNL     1      25.752  -0.661  53.001  1.00  0.00     0.032 A 
HETATM   26  C2  UNL     1      26.414  -1.857  52.817  1.00  0.00     0.033 A 
HETATM   27  C1  UNL     1      27.770  -1.877  53.074  1.00  0.00     0.047 A 
HETATM   28  C21 UNL     1      28.458  -0.774  53.494  1.00  0.00     0.062 A 
HETATM   29  C20 UNL     1      27.809   0.417  53.680  1.00  0.00     0.055 A 
HETATM   30 CL1  UNL     1      30.189  -0.910  53.794  1.00  0.00    -0.082 Cl
BRANCH  27  31
HETATM   31  N1  UNL     1      28.459  -3.099  52.889  1.00  0.00    -0.398 N 
HETATM   32  H1  UNL     1      29.326  -3.259  53.479  1.00  0.00     0.156 HD
HETATM   33  H2  UNL     1      28.466  -4.004  52.353  1.00  0.00     0.156 HD
ENDBRANCH  27  31
ENDBRANCH  22  24
ENDBRANCH   1  22
TORSDOF 7
ENDMDL
MODEL 3
REMARK VINA RESULT:      -8.2      2.436      2.908
REMARK  7 active torsions:
REMARK  status: ('A' for Active; 'I' for Inactive)
REMARK    1  A    between atoms: N1_1  and  C1_2 
REMARK    2  A    between atoms: C4_5  and  N2_6 
REMARK    3  A    between atoms: N2_6  and  C5_7 
REMARK    4  A    between atoms: C8_10  and  N3_11 
REMARK       I    between atoms: N3_11  and  C9_12 
REMARK    5  A    between atoms: C9_12  and  C10_14 
REMARK    6  A    between atoms: C11_15  and  C12_16 
REMARK    7  A    between atoms: C12_16  and  N4_17 
ROOT
HETATM    1  C5  UNL     1      24.847   2.338  52.762  1.00  0.00     0.021 C 
HETATM    2  C6  UNL     1      25.437   2.682  51.576  1.00  0.00    -0.026 C 
HETATM    3  C7  UNL     1      26.511   3.325  50.749  1.00  0.00     0.060 C 
HETATM    4  C8  UNL     1      25.727   4.099  49.869  1.00  0.00     0.131 C 
HETATM    5  N5  UNL     1      24.221   4.295  50.096  1.00  0.00    -0.239 NA
HETATM    6  C17 UNL     1      23.819   3.647  51.213  1.00  0.00     0.024 C 
HETATM    7  C18 UNL     1      24.241   2.251  50.681  1.00  0.00     0.095 C 
HETATM    8  C19 UNL     1      23.385   2.845  52.454  1.00  0.00     0.112 C 
ENDROOT
BRANCH   4   9
HETATM    9  N3  UNL     1      26.703   4.567  48.904  1.00  0.00    -0.301 N 
HETATM   10  C9  UNL     1      26.883   5.955  48.969  1.00  0.00     0.302 C 
HETATM   11  O1  UNL     1      26.220   6.651  49.813  1.00  0.00    -0.258 OA
HETATM   12  H7  UNL     1      27.181   3.916  48.256  1.00  0.00     0.171 HD
BRANCH  10  13
HETATM   13  C10 UNL     1      27.815   6.596  48.085  1.00  0.00    -0.004 C 
HETATM   14  C11 UNL     1      28.616   7.121  47.342  1.00  0.00    -0.066 C 
BRANCH  14  15
HETATM   15  C12 UNL     1      29.603   7.740  46.436  1.00  0.00     0.366 C 
BRANCH  15  16
HETATM   16  N4  UNL     1      30.873   7.907  47.121  1.00  0.00     0.103 N 
HETATM   17  C13 UNL     1      31.739   8.799  46.415  1.00  0.00     0.299 C 
HETATM   18  C14 UNL     1      33.097   8.181  46.185  1.00  0.00     0.198 C 
HETATM   19  O2  UNL     1      33.013   6.921  45.643  1.00  0.00    -0.388 OA
HETATM   20  C15 UNL     1      32.249   6.034  46.376  1.00  0.00     0.198 C 
HETATM   21  C16 UNL     1      31.462   6.651  47.489  1.00  0.00     0.299 C 
ENDBRANCH  15  16
ENDBRANCH  14  15
ENDBRANCH  10  13
ENDBRANCH   4   9
BRANCH   1  22
HETATM   22  N2  UNL     1      25.870   1.754  53.632  1.00  0.00    -0.359 N 
HETATM   23  H5  UNL     1      26.151   2.330  54.455  1.00  0.00     0.166 HD
BRANCH  22  24
HETATM   24  C4  UNL     1      26.471   0.467  53.420  1.00  0.00     0.034 A 
HETATM   25  C3  UNL     1      25.758  -0.616  53.019  1.00  0.00     0.032 A 
HETATM   26  C2  UNL     1      26.399  -1.824  52.836  1.00  0.00     0.033 A 
HETATM   27  C1  UNL     1      27.757  -1.864  53.075  1.00  0.00     0.047 A 
HETATM   28  C21 UNL     1      28.468  -0.768  53.479  1.00  0.00     0.062 A 
HETATM   29  C20 UNL     1      27.840   0.435  53.664  1.00  0.00     0.055 A 
HETATM   30 CL1  UNL     1      30.200  -0.929  53.758  1.00  0.00    -0.082 Cl
BRANCH  27  31
HETATM   31  N1  UNL     1      28.425  -3.097  52.891  1.00  0.00    -0.398 N 
HETATM   32  H1  UNL     1      27.871  -3.885  52.445  1.00  0.00     0.156 HD
HETATM   33  H2  UNL     1      29.335  -3.606  53.029  1.00  0.00     0.156 HD
ENDBRANCH  27  31
ENDBRANCH  22  24
ENDBRANCH   1  22
TORSDOF 7
ENDMDL
MODEL 4
REMARK VINA RESULT:      -8.2      2.215      2.730
REMARK  7 active torsions:
REMARK  status: ('A' for Active; 'I' for Inactive)
REMARK    1  A    between atoms: N1_1  and  C1_2 
REMARK    2  A    between atoms: C4_5  and  N2_6 
REMARK    3  A    between atoms: N2_6  and  C5_7 
REMARK    4  A    between atoms: C8_10  and  N3_11 
REMARK       I    between atoms: N3_11  and  C9_12 
REMARK    5  A    between atoms: C9_12  and  C10_14 
REMARK    6  A    between atoms: C11_15  and  C12_16 
REMARK    7  A    between atoms: C12_16  and  N4_17 
ROOT
HETATM    1  C5  UNL     1      22.748   3.192  50.261  1.00  0.00     0.021 C 
HETATM    2  C6  UNL     1      23.986   3.472  49.752  1.00  0.00    -0.026 C 
HETATM    3  C7  UNL     1      25.474   3.292  49.667  1.00  0.00     0.060 C 
HETATM    4  C8  UNL     1      25.901   4.632  49.778  1.00  0.00     0.131 C 
HETATM    5  N5  UNL     1      24.930   5.753  50.177  1.00  0.00    -0.239 NA
HETATM    6  C17 UNL     1      23.691   5.257  50.392  1.00  0.00     0.024 C 
HETATM    7  C18 UNL     1      23.540   4.722  48.942  1.00  0.00     0.095 C 
HETATM    8  C19 UNL     1      22.279   4.667  50.566  1.00  0.00     0.112 C 
ENDROOT
BRANCH   4   9
HETATM    9  N3  UNL     1      27.316   4.539  49.478  1.00  0.00    -0.301 N 
HETATM   10  C9  UNL     1      27.727   5.523  48.569  1.00  0.00     0.302 C 
HETATM   11  O1  UNL     1      26.883   6.365  48.107  1.00  0.00    -0.258 OA
HETATM   12  H7  UNL     1      27.914   3.808  49.904  1.00  0.00     0.171 HD
BRANCH  10  13
HETATM   13  C10 UNL     1      29.101   5.583  48.156  1.00  0.00    -0.004 C 
HETATM   14  C11 UNL     1      30.255   5.627  47.788  1.00  0.00    -0.066 C 
BRANCH  14  15
HETATM   15  C12 UNL     1      31.653   5.679  47.316  1.00  0.00     0.366 C 
BRANCH  15  16
HETATM   16  N4  UNL     1      32.511   4.927  48.214  1.00  0.00     0.103 N 
HETATM   17  C13 UNL     1      33.705   5.649  48.529  1.00  0.00     0.299 C 
HETATM   18  C14 UNL     1      34.935   4.811  48.281  1.00  0.00     0.198 C 
HETATM   19  O2  UNL     1      34.933   4.233  47.035  1.00  0.00    -0.388 OA
HETATM   20  C15 UNL     1      33.819   3.461  46.767  1.00  0.00     0.198 C 
HETATM   21  C16 UNL     1      32.714   3.578  47.770  1.00  0.00     0.299 C 
ENDBRANCH  15  16
ENDBRANCH  14  15
ENDBRANCH  10  13
ENDBRANCH   4   9
BRANCH   1  22
HETATM   22  N2  UNL     1      22.575   1.738  50.274  1.00  0.00    -0.359 N 
HETATM   23  H5  UNL     1      22.773   1.247  49.376  1.00  0.00     0.166 HD
BRANCH  22  24
HETATM   24  C4  UNL     1      22.176   0.983  51.429  1.00  0.00     0.034 A 
HETATM   25  C3  UNL     1      23.047   0.627  52.407  1.00  0.00     0.032 A 
HETATM   26  C2  UNL     1      22.597  -0.099  53.490  1.00  0.00     0.033 A 
HETATM   27  C1  UNL     1      21.257  -0.431  53.518  1.00  0.00     0.047 A 
HETATM   28  C21 UNL     1      20.387  -0.069  52.528  1.00  0.00     0.062 A 
HETATM   29  C20 UNL     1      20.826   0.652  51.450  1.00  0.00     0.055 A 
HETATM   30 CL1  UNL     1      18.696  -0.546  52.662  1.00  0.00    -0.082 Cl
BRANCH  27  31
HETATM   31  N1  UNL     1      20.784  -1.177  54.623  1.00  0.00    -0.398 N 
HETATM   32  H1  UNL     1      19.997  -1.865  54.440  1.00  0.00     0.156 HD
HETATM   33  H2  UNL     1      20.902  -1.345  55.654  1.00  0.00     0.156 HD
ENDBRANCH  27  31
ENDBRANCH  22  24
ENDBRANCH   1  22
TORSDOF 7
ENDMDL
MODEL 5
REMARK VINA RESULT:      -8.1      1.994      2.466
REMARK  7 active torsions:
REMARK  status: ('A' for Active; 'I' for Inactive)
REMARK    1  A    between atoms: N1_1  and  C1_2 
REMARK    2  A    between atoms: C4_5  and  N2_6 
REMARK    3  A    between atoms: N2_6  and  C5_7 
REMARK    4  A    between atoms: C8_10  and  N3_11 
REMARK       I    between atoms: N3_11  and  C9_12 
REMARK    5  A    between atoms: C9_12  and  C10_14 
REMARK    6  A    between atoms: C11_15  and  C12_16 
REMARK    7  A    between atoms: C12_16  and  N4_17 
ROOT
HETATM    1  C5  UNL     1      23.888   3.201  51.985  1.00  0.00     0.021 C 
HETATM    2  C6  UNL     1      24.878   3.247  51.042  1.00  0.00    -0.026 C 
HETATM    3  C7  UNL     1      26.260   3.585  50.562  1.00  0.00     0.060 C 
HETATM    4  C8  UNL     1      25.953   4.285  49.377  1.00  0.00     0.131 C 
HETATM    5  N5  UNL     1      24.517   4.715  49.045  1.00  0.00    -0.239 NA
HETATM    6  C17 UNL     1      23.667   4.334  50.027  1.00  0.00     0.024 C 
HETATM    7  C18 UNL     1      23.974   2.823  49.851  1.00  0.00     0.095 C 
HETATM    8  C19 UNL     1      22.720   3.831  51.132  1.00  0.00     0.112 C 
ENDROOT
BRANCH   4   9
HETATM    9  N3  UNL     1      27.255   4.442  48.757  1.00  0.00    -0.301 N 
HETATM   10  C9  UNL     1      27.629   5.788  48.651  1.00  0.00     0.302 C 
HETATM   11  O1  UNL     1      26.849   6.708  49.078  1.00  0.00    -0.258 OA
HETATM   12  H7  UNL     1      27.806   3.625  48.438  1.00  0.00     0.171 HD
BRANCH  10  13
HETATM   13  C10 UNL     1      28.892   6.134  48.061  1.00  0.00    -0.004 C 
HETATM   14  C11 UNL     1      29.959   6.442  47.577  1.00  0.00    -0.066 C 
BRANCH  14  15
HETATM   15  C12 UNL     1      31.263   6.832  47.006  1.00  0.00     0.366 C 
BRANCH  15  16
HETATM   16  N4  UNL     1      32.285   6.816  48.037  1.00  0.00     0.103 N 
HETATM   17  C13 UNL     1      33.506   7.402  47.578  1.00  0.00     0.299 C 
HETATM   18  C14 UNL     1      34.680   6.485  47.818  1.00  0.00     0.198 C 
HETATM   19  O2  UNL     1      34.452   5.211  47.357  1.00  0.00    -0.388 OA
HETATM   20  C15 UNL     1      33.319   4.612  47.873  1.00  0.00     0.198 C 
HETATM   21  C16 UNL     1      32.421   5.524  48.647  1.00  0.00     0.299 C 
ENDBRANCH  15  16
ENDBRANCH  14  15
ENDBRANCH  10  13
ENDBRANCH   4   9
BRANCH   1  22
HETATM   22  N2  UNL     1      24.454   2.653  53.219  1.00  0.00    -0.359 N 
HETATM   23  H5  UNL     1      24.163   3.124  54.102  1.00  0.00     0.166 HD
BRANCH  22  24
HETATM   24  C4  UNL     1      25.347   1.529  53.269  1.00  0.00     0.034 A 
HETATM   25  C3  UNL     1      24.982   0.286  52.863  1.00  0.00     0.032 A 
HETATM   26  C2  UNL     1      25.890  -0.750  52.938  1.00  0.00     0.033 A 
HETATM   27  C1  UNL     1      27.145  -0.458  53.433  1.00  0.00     0.047 A 
HETATM   28  C21 UNL     1      27.504   0.797  53.839  1.00  0.00     0.062 A 
HETATM   29  C20 UNL     1      26.609   1.830  53.768  1.00  0.00     0.055 A 
HETATM   30 CL1  UNL     1      29.134   1.059  54.455  1.00  0.00    -0.082 Cl
BRANCH  27  31
HETATM   31  N1  UNL     1      28.084  -1.513  53.515  1.00  0.00    -0.398 N 
HETATM   32  H1  UNL     1      28.047  -2.127  54.380  1.00  0.00     0.156 HD
HETATM   33  H2  UNL     1      28.885  -1.985  53.023  1.00  0.00     0.156 HD
ENDBRANCH  27  31
ENDBRANCH  22  24
ENDBRANCH   1  22
TORSDOF 7
ENDMDL
MODEL 6
REMARK VINA RESULT:      -8.1      4.998     10.229
REMARK  7 active torsions:
REMARK  status: ('A' for Active; 'I' for Inactive)
REMARK    1  A    between atoms: N1_1  and  C1_2 
REMARK    2  A    between atoms: C4_5  and  N2_6 
REMARK    3  A    between atoms: N2_6  and  C5_7 
REMARK    4  A    between atoms: C8_10  and  N3_11 
REMARK       I    between atoms: N3_11  and  C9_12 
REMARK    5  A    between atoms: C9_12  and  C10_14 
REMARK    6  A    between atoms: C11_15  and  C12_16 
REMARK    7  A    between atoms: C12_16  and  N4_17 
ROOT
HETATM    1  C5  UNL     1      25.702   2.525  51.930  1.00  0.00     0.021 C 
HETATM    2  C6  UNL     1      24.362   2.541  52.203  1.00  0.00    -0.026 C 
HETATM    3  C7  UNL     1      23.072   1.904  52.634  1.00  0.00     0.060 C 
HETATM    4  C8  UNL     1      22.229   2.293  51.572  1.00  0.00     0.131 C 
HETATM    5  N5  UNL     1      22.789   2.932  50.293  1.00  0.00    -0.239 NA
HETATM    6  C17 UNL     1      24.136   3.037  50.364  1.00  0.00     0.024 C 
HETATM    7  C18 UNL     1      24.103   3.956  51.614  1.00  0.00     0.095 C 
HETATM    8  C19 UNL     1      25.661   3.200  50.504  1.00  0.00     0.112 C 
ENDROOT
BRANCH   4   9
HETATM    9  N3  UNL     1      20.919   1.894  52.048  1.00  0.00    -0.301 N 
HETATM   10  C9  UNL     1      20.473   0.715  51.436  1.00  0.00     0.302 C 
HETATM   11  O1  UNL     1      21.203   0.125  50.569  1.00  0.00    -0.258 OA
HETATM   12  H7  UNL     1      20.404   2.452  52.753  1.00  0.00     0.171 HD
BRANCH  10  13
HETATM   13  C10 UNL     1      19.191   0.169  51.787  1.00  0.00    -0.004 C 
HETATM   14  C11 UNL     1      18.104  -0.271  52.089  1.00  0.00    -0.066 C 
BRANCH  14  15
HETATM   15  C12 UNL     1      16.771  -0.786  52.458  1.00  0.00     0.366 C 
BRANCH  15  16
HETATM   16  N4  UNL     1      15.739  -0.066  51.733  1.00  0.00     0.103 N 
HETATM   17  C13 UNL     1      15.850   1.346  51.921  1.00  0.00     0.299 C 
HETATM   18  C14 UNL     1      14.539   1.948  52.364  1.00  0.00     0.198 C 
HETATM   19  O2  UNL     1      13.988   1.275  53.427  1.00  0.00    -0.388 OA
HETATM   20  C15 UNL     1      13.797  -0.076  53.210  1.00  0.00     0.198 C 
HETATM   21  C16 UNL     1      14.431  -0.610  51.965  1.00  0.00     0.299 C 
ENDBRANCH  15  16
ENDBRANCH  14  15
ENDBRANCH  10  13
ENDBRANCH   4   9
BRANCH   1  22
HETATM   22  N2  UNL     1      26.391   1.880  53.050  1.00  0.00    -0.359 N 
HETATM   23  H5  UNL     1      26.501   2.458  53.911  1.00  0.00     0.166 HD
BRANCH  22  24
HETATM   24  C4  UNL     1      26.890   0.534  53.023  1.00  0.00     0.034 A 
HETATM   25  C3  UNL     1      26.138  -0.517  52.604  1.00  0.00     0.032 A 
HETATM   26  C2  UNL     1      26.680  -1.786  52.604  1.00  0.00     0.033 A 
HETATM   27  C1  UNL     1      27.983  -1.919  53.040  1.00  0.00     0.047 A 
HETATM   28  C21 UNL     1      28.732  -0.855  53.460  1.00  0.00     0.062 A 
HETATM   29  C20 UNL     1      28.202   0.407  53.464  1.00  0.00     0.055 A 
HETATM   30 CL1  UNL     1      30.386  -1.137  53.998  1.00  0.00    -0.082 Cl
BRANCH  27  31
HETATM   31  N1  UNL     1      28.548  -3.215  53.045  1.00  0.00    -0.398 N 
HETATM   32  H1  UNL     1      28.334  -3.839  52.214  1.00  0.00     0.156 HD
HETATM   33  H2  UNL     1      29.153  -3.882  53.589  1.00  0.00     0.156 HD
ENDBRANCH  27  31
ENDBRANCH  22  24
ENDBRANCH   1  22
TORSDOF 7
ENDMDL
MODEL 7
REMARK VINA RESULT:      -8.0      1.600      2.202
REMARK  7 active torsions:
REMARK  status: ('A' for Active; 'I' for Inactive)
REMARK    1  A    between atoms: N1_1  and  C1_2 
REMARK    2  A    between atoms: C4_5  and  N2_6 
REMARK    3  A    between atoms: N2_6  and  C5_7 
REMARK    4  A    between atoms: C8_10  and  N3_11 
REMARK       I    between atoms: N3_11  and  C9_12 
REMARK    5  A    between atoms: C9_12  and  C10_14 
REMARK    6  A    between atoms: C11_15  and  C12_16 
REMARK    7  A    between atoms: C12_16  and  N4_17 
ROOT
HETATM    1  C5  UNL     1      23.310   3.040  50.701  1.00  0.00     0.021 C 
HETATM    2  C6  UNL     1      24.438   3.463  50.053  1.00  0.00    -0.026 C 
HETATM    3  C7  UNL     1      25.921   3.500  49.826  1.00  0.00     0.060 C 
HETATM    4  C8  UNL     1      26.143   4.893  49.815  1.00  0.00     0.131 C 
HETATM    5  N5  UNL     1      25.052   5.884  50.246  1.00  0.00    -0.239 NA
HETATM    6  C17 UNL     1      23.929   5.226  50.615  1.00  0.00     0.024 C 
HETATM    7  C18 UNL     1      23.729   4.570  49.222  1.00  0.00     0.095 C 
HETATM    8  C19 UNL     1      22.648   4.447  50.968  1.00  0.00     0.112 C 
ENDROOT
BRANCH   4   9
HETATM    9  N3  UNL     1      27.521   4.990  49.377  1.00  0.00    -0.301 N 
HETATM   10  C9  UNL     1      27.701   6.001  48.423  1.00  0.00     0.302 C 
HETATM   11  O1  UNL     1      26.707   6.708  48.041  1.00  0.00    -0.258 OA
HETATM   12  H7  UNL     1      28.254   4.359  49.747  1.00  0.00     0.171 HD
BRANCH  10  13
HETATM   13  C10 UNL     1      29.007   6.242  47.875  1.00  0.00    -0.004 C 
HETATM   14  C11 UNL     1      30.101   6.464  47.406  1.00  0.00    -0.066 C 
BRANCH  14  15
HETATM   15  C12 UNL     1      31.428   6.758  46.831  1.00  0.00     0.366 C 
BRANCH  15  16
HETATM   16  N4  UNL     1      32.303   7.311  47.850  1.00  0.00     0.103 N 
HETATM   17  C13 UNL     1      33.439   7.960  47.273  1.00  0.00     0.299 C 
HETATM   18  C14 UNL     1      34.727   7.455  47.878  1.00  0.00     0.198 C 
HETATM   19  O2  UNL     1      34.799   6.084  47.886  1.00  0.00    -0.388 OA
HETATM   20  C15 UNL     1      33.744   5.460  48.524  1.00  0.00     0.198 C 
HETATM   21  C16 UNL     1      32.604   6.360  48.882  1.00  0.00     0.299 C 
ENDBRANCH  15  16
ENDBRANCH  14  15
ENDBRANCH  10  13
ENDBRANCH   4   9
BRANCH   1  22
HETATM   22  N2  UNL     1      23.367   1.581  50.816  1.00  0.00    -0.359 N 
HETATM   23  H5  UNL     1      23.016   1.045  49.994  1.00  0.00     0.166 HD
BRANCH  22  24
HETATM   24  C4  UNL     1      23.880   0.881  51.961  1.00  0.00     0.034 A 
HETATM   25  C3  UNL     1      25.206   0.809  52.240  1.00  0.00     0.032 A 
HETATM   26  C2  UNL     1      25.631   0.118  53.357  1.00  0.00     0.033 A 
HETATM   27  C1  UNL     1      24.663  -0.472  54.143  1.00  0.00     0.047 A 
HETATM   28  C21 UNL     1      23.329  -0.394  53.854  1.00  0.00     0.062 A 
HETATM   29  C20 UNL     1      22.899   0.288  52.748  1.00  0.00     0.055 A 
HETATM   30 CL1  UNL     1      22.176  -1.187  54.926  1.00  0.00    -0.082 Cl
BRANCH  27  31
HETATM   31  N1  UNL     1      25.087  -1.183  55.290  1.00  0.00    -0.398 N 
HETATM   32  H1  UNL     1      25.415  -0.610  56.121  1.00  0.00     0.156 HD
HETATM   33  H2  UNL     1      25.226  -2.142  55.699  1.00  0.00     0.156 HD
ENDBRANCH  27  31
ENDBRANCH  22  24
ENDBRANCH   1  22
TORSDOF 7
ENDMDL
MODEL 8
REMARK VINA RESULT:      -7.8      3.343      4.196
REMARK  7 active torsions:
REMARK  status: ('A' for Active; 'I' for Inactive)
REMARK    1  A    between atoms: N1_1  and  C1_2 
REMARK    2  A    between atoms: C4_5  and  N2_6 
REMARK    3  A    between atoms: N2_6  and  C5_7 
REMARK    4  A    between atoms: C8_10  and  N3_11 
REMARK       I    between atoms: N3_11  and  C9_12 
REMARK    5  A    between atoms: C9_12  and  C10_14 
REMARK    6  A    between atoms: C11_15  and  C12_16 
REMARK    7  A    between atoms: C12_16  and  N4_17 
ROOT
HETATM    1  C5  UNL     1      23.717   1.264  51.769  1.00  0.00     0.021 C 
HETATM    2  C6  UNL     1      24.251   2.500  51.528  1.00  0.00    -0.026 C 
HETATM    3  C7  UNL     1      24.483   3.720  50.685  1.00  0.00     0.060 C 
HETATM    4  C8  UNL     1      25.889   3.812  50.751  1.00  0.00     0.131 C 
HETATM    5  N5  UNL     1      26.742   2.677  51.336  1.00  0.00    -0.239 NA
HETATM    6  C17 UNL     1      25.958   1.650  51.738  1.00  0.00     0.024 C 
HETATM    7  C18 UNL     1      25.182   2.509  52.772  1.00  0.00     0.095 C 
HETATM    8  C19 UNL     1      25.031   0.528  52.242  1.00  0.00     0.112 C 
ENDROOT
BRANCH   4   9
HETATM    9  N3  UNL     1      26.151   5.100  50.140  1.00  0.00    -0.301 N 
HETATM   10  C9  UNL     1      27.085   5.009  49.099  1.00  0.00     0.302 C 
HETATM   11  O1  UNL     1      27.597   3.879  48.792  1.00  0.00    -0.258 OA
HETATM   12  H7  UNL     1      25.684   5.963  50.472  1.00  0.00     0.171 HD
BRANCH  10  13
HETATM   13  C10 UNL     1      27.466   6.191  48.377  1.00  0.00    -0.004 C 
HETATM   14  C11 UNL     1      27.794   7.196  47.786  1.00  0.00    -0.066 C 
BRANCH  14  15
HETATM   15  C12 UNL     1      28.206   8.428  47.086  1.00  0.00     0.366 C 
BRANCH  15  16
HETATM   16  N4  UNL     1      28.231   9.546  48.013  1.00  0.00     0.103 N 
HETATM   17  C13 UNL     1      28.680  10.746  47.379  1.00  0.00     0.299 C 
HETATM   18  C14 UNL     1      29.805  11.389  48.152  1.00  0.00     0.198 C 
HETATM   19  O2  UNL     1      30.806  10.499  48.457  1.00  0.00    -0.388 OA
HETATM   20  C15 UNL     1      30.384   9.381  49.150  1.00  0.00     0.198 C 
HETATM   21  C16 UNL     1      28.899   9.219  49.240  1.00  0.00     0.299 C 
ENDBRANCH  15  16
ENDBRANCH  14  15
ENDBRANCH  10  13
ENDBRANCH   4   9
BRANCH   1  22
HETATM   22  N2  UNL     1      22.294   1.303  51.428  1.00  0.00    -0.359 N 
HETATM   23  H5  UNL     1      22.038   1.897  50.610  1.00  0.00     0.166 HD
BRANCH  22  24
HETATM   24  C4  UNL     1      21.275   0.577  52.132  1.00  0.00     0.034 A 
HETATM   25  C3  UNL     1      21.475   0.044  53.364  1.00  0.00     0.032 A 
HETATM   26  C2  UNL     1      20.452  -0.643  53.985  1.00  0.00     0.033 A 
HETATM   27  C1  UNL     1      19.257  -0.753  53.302  1.00  0.00     0.047 A 
HETATM   28  C21 UNL     1      19.064  -0.213  52.061  1.00  0.00     0.062 A 
HETATM   29  C20 UNL     1      20.074   0.469  51.438  1.00  0.00     0.055 A 
HETATM   30 CL1  UNL     1      17.499  -0.414  51.278  1.00  0.00    -0.082 Cl
BRANCH  27  31
HETATM   31  N1  UNL     1      18.201  -1.456  53.928  1.00  0.00    -0.398 N 
HETATM   32  H1  UNL     1      17.653  -2.138  53.328  1.00  0.00     0.156 HD
HETATM   33  H2  UNL     1      17.683  -1.593  54.833  1.00  0.00     0.156 HD
ENDBRANCH  27  31
ENDBRANCH  22  24
ENDBRANCH   1  22
TORSDOF 7
ENDMDL
MODEL 9
REMARK VINA RESULT:      -7.8      5.275     10.840
REMARK  7 active torsions:
REMARK  status: ('A' for Active; 'I' for Inactive)
REMARK    1  A    between atoms: N1_1  and  C1_2 
REMARK    2  A    between atoms: C4_5  and  N2_6 
REMARK    3  A    between atoms: N2_6  and  C5_7 
REMARK    4  A    between atoms: C8_10  and  N3_11 
REMARK       I    between atoms: N3_11  and  C9_12 
REMARK    5  A    between atoms: C9_12  and  C10_14 
REMARK    6  A    between atoms: C11_15  and  C12_16 
REMARK    7  A    between atoms: C12_16  and  N4_17 
ROOT
HETATM    1  C5  UNL     1      25.043   2.867  51.935  1.00  0.00     0.021 C 
HETATM    2  C6  UNL     1      23.825   2.251  52.022  1.00  0.00    -0.026 C 
HETATM    3  C7  UNL     1      22.931   1.079  52.309  1.00  0.00     0.060 C 
HETATM    4  C8  UNL     1      22.170   1.043  51.122  1.00  0.00     0.131 C 
HETATM    5  N5  UNL     1      22.550   1.887  49.897  1.00  0.00    -0.239 NA
HETATM    6  C17 UNL     1      23.667   2.609  50.144  1.00  0.00     0.024 C 
HETATM    7  C18 UNL     1      23.028   3.389  51.325  1.00  0.00     0.095 C 
HETATM    8  C19 UNL     1      24.903   3.464  50.481  1.00  0.00     0.112 C 
ENDROOT
BRANCH   4   9
HETATM    9  N3  UNL     1      21.140   0.072  51.436  1.00  0.00    -0.301 N 
HETATM   10  C9  UNL     1      19.910   0.681  51.718  1.00  0.00     0.302 C 
HETATM   11  O1  UNL     1      19.799   1.954  51.680  1.00  0.00    -0.258 OA
HETATM   12  H7  UNL     1      21.339  -0.945  51.447  1.00  0.00     0.171 HD
BRANCH  10  13
HETATM   13  C10 UNL     1      18.772  -0.130  52.051  1.00  0.00    -0.004 C 
HETATM   14  C11 UNL     1      17.817  -0.811  52.353  1.00  0.00    -0.066 C 
BRANCH  14  15
HETATM   15  C12 UNL     1      16.654  -1.633  52.743  1.00  0.00     0.366 C 
BRANCH  15  16
HETATM   16  N4  UNL     1      15.523  -1.340  51.881  1.00  0.00     0.103 N 
HETATM   17  C13 UNL     1      14.751  -0.245  52.377  1.00  0.00     0.299 C 
HETATM   18  C14 UNL     1      13.288  -0.603  52.477  1.00  0.00     0.198 C 
HETATM   19  O2  UNL     1      13.084  -1.789  53.140  1.00  0.00    -0.388 OA
HETATM   20  C15 UNL     1      13.761  -2.866  52.602  1.00  0.00     0.198 C 
HETATM   21  C16 UNL     1      14.770  -2.517  51.554  1.00  0.00     0.299 C 
ENDBRANCH  15  16
ENDBRANCH  14  15
ENDBRANCH  10  13
ENDBRANCH   4   9
BRANCH   1  22
HETATM   22  N2  UNL     1      25.780   2.603  53.173  1.00  0.00    -0.359 N 
HETATM   23  H5  UNL     1      25.470   3.140  54.011  1.00  0.00     0.166 HD
BRANCH  22  24
HETATM   24  C4  UNL     1      26.860   1.663  53.284  1.00  0.00     0.034 A 
HETATM   25  C3  UNL     1      28.101   2.021  53.704  1.00  0.00     0.032 A 
HETATM   26  C2  UNL     1      29.094   1.066  53.788  1.00  0.00     0.033 A 
HETATM   27  C1  UNL     1      28.763  -0.226  53.433  1.00  0.00     0.047 A 
HETATM   28  C21 UNL     1      27.511  -0.577  53.012  1.00  0.00     0.062 A 
HETATM   29  C20 UNL     1      26.520   0.364  52.925  1.00  0.00     0.055 A 
HETATM   30 CL1  UNL     1      27.196  -2.257  52.582  1.00  0.00    -0.082 Cl
BRANCH  27  31
HETATM   31  N1  UNL     1      29.773  -1.212  53.515  1.00  0.00    -0.398 N 
HETATM   32  H1  UNL     1      30.592  -1.122  52.846  1.00  0.00     0.156 HD
HETATM   33  H2  UNL     1      30.076  -2.087  54.015  1.00  0.00     0.156 HD
ENDBRANCH  27  31
ENDBRANCH  22  24
ENDBRANCH   1  22
TORSDOF 7
ENDMDL
