MODEL 1
REMARK VINA RESULT:      -7.9      0.000      0.000
REMARK  6 active torsions:
REMARK  status: ('A' for Active; 'I' for Inactive)
REMARK    1  A    between atoms: C2_2  and  C3_3 
REMARK    2  A    between atoms: C4_4  and  C5_5 
REMARK    3  A    between atoms: C6_6  and  C7_7 
REMARK    4  A    between atoms: C14_15  and  N1_16 
REMARK       I    between atoms: N1_16  and  C15_17 
REMARK    5  A    between atoms: C15_17  and  C16_19 
REMARK    6  A    between atoms: C18_21  and  O3_22 
ROOT
HETATM    1  C7  UNL     1      23.467   2.148  52.668  1.00  0.00     0.145 C 
HETATM    2  C8  UNL     1      24.085   3.287  53.475  1.00  0.00     0.022 C 
HETATM    3  C9  UNL     1      24.087   4.575  53.081  1.00  0.00     0.029 C 
HETATM    4  C10 UNL     1      23.282   5.093  51.933  1.00  0.00     0.038 C 
HETATM    5  C11 UNL     1      22.724   3.965  51.595  1.00  0.00     0.008 C 
HETATM    6  C12 UNL     1      21.256   3.740  51.600  1.00  0.00     0.036 C 
HETATM    7  C13 UNL     1      21.041   2.517  52.174  1.00  0.00     0.137 C 
HETATM    8  O1  UNL     1      22.068   2.051  53.038  1.00  0.00    -0.340 OA
HETATM    9  C14 UNL     1      23.535   2.701  51.243  1.00  0.00     0.151 C 
HETATM   10  C18 UNL     1      24.934   2.989  50.934  1.00  0.00     0.084 C 
HETATM   11  C20 UNL     1      25.025   4.098  50.246  1.00  0.00     0.054 C 
HETATM   12  C21 UNL     1      25.260   5.306  49.484  1.00  0.00     0.120 C 
HETATM   13  N2  UNL     1      24.063   5.750  49.344  1.00  0.00    -0.254 NA
HETATM   14  C22 UNL     1      23.607   6.889  48.695  1.00  0.00     0.228 C 
HETATM   15  N3  UNL     1      23.618   7.721  49.625  1.00  0.00    -0.264 NA
HETATM   16  C23 UNL     1      23.997   7.554  50.989  1.00  0.00     0.272 C 
HETATM   17  N4  UNL     1      23.440   6.461  51.724  1.00  0.00    -0.371 N 
HETATM   18  H24 UNL     1      22.802   6.733  52.550  1.00  0.00     0.161 HD
ENDROOT
BRANCH   1  19
HETATM   19  C6  UNL     1      24.150   0.906  52.939  1.00  0.00    -0.027 A 
HETATM   20  C5  UNL     1      25.174   0.352  53.689  1.00  0.00    -0.048 A 
HETATM   21  C24 UNL     1      24.433  -0.542  52.829  1.00  0.00     0.077 A 
BRANCH  20  22
HETATM   22  C4  UNL     1      26.268   0.361  54.654  1.00  0.00     0.007 C 
HETATM   23  C3  UNL     1      27.581   0.128  54.554  1.00  0.00    -0.003 C 
BRANCH  23  24
HETATM   24  C2  UNL     1      28.687  -0.215  53.672  1.00  0.00    -0.026 C 
HETATM   25  C1  UNL     1      29.782  -1.004  53.707  1.00  0.00     0.031 C 
ENDBRANCH  23  24
ENDBRANCH  20  22
ENDBRANCH   1  19
BRANCH   9  26
HETATM   26  N1  UNL     1      22.846   1.850  50.350  1.00  0.00    -0.338 N 
HETATM   27  C15 UNL     1      22.477   2.010  49.018  1.00  0.00     0.218 C 
HETATM   28  O2  UNL     1      22.787   3.085  48.386  1.00  0.00    -0.274 OA
HETATM   29  H10 UNL     1      22.419   0.886  50.399  1.00  0.00     0.164 HD
BRANCH  27  30
HETATM   30  C16 UNL     1      21.917   1.768  47.708  1.00  0.00     0.098 C 
HETATM   31  C17 UNL     1      21.923   2.991  46.808  1.00  0.00     0.014 C 
ENDBRANCH  27  30
ENDBRANCH   9  26
BRANCH  10  32
HETATM   32  O3  UNL     1      25.928   2.088  51.391  1.00  0.00    -0.357 OA
HETATM   33  C19 UNL     1      27.225   2.514  51.721  1.00  0.00     0.209 C 
ENDBRANCH  10  32
TORSDOF 6
ENDMDL
MODEL 2
REMARK VINA RESULT:      -7.8      1.365      2.943
REMARK  6 active torsions:
REMARK  status: ('A' for Active; 'I' for Inactive)
REMARK    1  A    between atoms: C2_2  and  C3_3 
REMARK    2  A    between atoms: C4_4  and  C5_5 
REMARK    3  A    between atoms: C6_6  and  C7_7 
REMARK    4  A    between atoms: C14_15  and  N1_16 
REMARK       I    between atoms: N1_16  and  C15_17 
REMARK    5  A    between atoms: C15_17  and  C16_19 
REMARK    6  A    between atoms: C18_21  and  O3_22 
ROOT
HETATM    1  C7  UNL     1      23.100   2.387  52.463  1.00  0.00     0.145 C 
HETATM    2  C8  UNL     1      23.709   3.481  53.338  1.00  0.00     0.022 C 
HETATM    3  C9  UNL     1      23.895   4.752  52.934  1.00  0.00     0.029 C 
HETATM    4  C10 UNL     1      23.316   5.316  51.677  1.00  0.00     0.038 C 
HETATM    5  C11 UNL     1      22.702   4.240  51.275  1.00  0.00     0.008 C 
HETATM    6  C12 UNL     1      21.232   4.159  51.072  1.00  0.00     0.036 C 
HETATM    7  C13 UNL     1      20.817   2.977  51.624  1.00  0.00     0.137 C 
HETATM    8  O1  UNL     1      21.661   2.435  52.631  1.00  0.00    -0.340 OA
HETATM    9  C14 UNL     1      23.423   2.895  51.057  1.00  0.00     0.151 C 
HETATM   10  C18 UNL     1      24.874   3.038  50.948  1.00  0.00     0.084 C 
HETATM   11  C20 UNL     1      25.171   4.115  50.269  1.00  0.00     0.054 C 
HETATM   12  C21 UNL     1      25.631   5.275  49.534  1.00  0.00     0.120 C 
HETATM   13  N2  UNL     1      24.516   5.829  49.220  1.00  0.00    -0.254 NA
HETATM   14  C22 UNL     1      24.273   6.990  48.500  1.00  0.00     0.228 C 
HETATM   15  N3  UNL     1      24.235   7.841  49.412  1.00  0.00    -0.264 NA
HETATM   16  C23 UNL     1      24.399   7.672  50.818  1.00  0.00     0.272 C 
HETATM   17  N4  UNL     1      23.637   6.657  51.478  1.00  0.00    -0.371 N 
HETATM   18  H24 UNL     1      22.919   7.011  52.201  1.00  0.00     0.161 HD
ENDROOT
BRANCH   1  19
HETATM   19  C6  UNL     1      23.611   1.092  52.844  1.00  0.00    -0.027 A 
HETATM   20  C5  UNL     1      23.243  -0.116  53.413  1.00  0.00    -0.048 A 
HETATM   21  C24 UNL     1      24.619   0.019  52.993  1.00  0.00     0.077 A 
BRANCH  20  22
HETATM   22  C4  UNL     1      22.322  -1.072  54.016  1.00  0.00     0.007 C 
HETATM   23  C3  UNL     1      20.990  -1.183  54.022  1.00  0.00    -0.003 C 
BRANCH  23  24
HETATM   24  C2  UNL     1      19.725  -0.624  53.567  1.00  0.00    -0.026 C 
HETATM   25  C1  UNL     1      19.187  -0.185  52.409  1.00  0.00     0.031 C 
ENDBRANCH  23  24
ENDBRANCH  20  22
ENDBRANCH   1  19
BRANCH   9  26
HETATM   26  N1  UNL     1      22.787   2.093  50.084  1.00  0.00    -0.338 N 
HETATM   27  C15 UNL     1      22.569   2.285  48.724  1.00  0.00     0.218 C 
HETATM   28  O2  UNL     1      23.003   3.346  48.144  1.00  0.00    -0.274 OA
HETATM   29  H10 UNL     1      22.304   1.154  50.074  1.00  0.00     0.164 HD
BRANCH  27  30
HETATM   30  C16 UNL     1      22.137   2.087  47.359  1.00  0.00     0.098 C 
HETATM   31  C17 UNL     1      21.895   3.382  46.604  1.00  0.00     0.014 C 
ENDBRANCH  27  30
ENDBRANCH   9  26
BRANCH  10  32
HETATM   32  O3  UNL     1      25.699   2.056  51.553  1.00  0.00    -0.357 OA
HETATM   33  C19 UNL     1      27.029   2.321  51.916  1.00  0.00     0.209 C 
ENDBRANCH  10  32
TORSDOF 6
ENDMDL
MODEL 3
REMARK VINA RESULT:      -7.7      8.083     10.152
REMARK  6 active torsions:
REMARK  status: ('A' for Active; 'I' for Inactive)
REMARK    1  A    between atoms: C2_2  and  C3_3 
REMARK    2  A    between atoms: C4_4  and  C5_5 
REMARK    3  A    between atoms: C6_6  and  C7_7 
REMARK    4  A    between atoms: C14_15  and  N1_16 
REMARK       I    between atoms: N1_16  and  C15_17 
REMARK    5  A    between atoms: C15_17  and  C16_19 
REMARK    6  A    between atoms: C18_21  and  O3_22 
ROOT
HETATM    1  C7  UNL     1      32.368   6.641  48.532  1.00  0.00     0.145 C 
HETATM    2  C8  UNL     1      32.137   7.834  49.455  1.00  0.00     0.022 C 
HETATM    3  C9  UNL     1      31.194   8.774  49.250  1.00  0.00     0.029 C 
HETATM    4  C10 UNL     1      30.102   8.645  48.238  1.00  0.00     0.038 C 
HETATM    5  C11 UNL     1      30.435   7.473  47.776  1.00  0.00     0.008 C 
HETATM    6  C12 UNL     1      29.548   6.283  47.837  1.00  0.00     0.036 C 
HETATM    7  C13 UNL     1      30.321   5.230  48.243  1.00  0.00     0.137 C 
HETATM    8  O1  UNL     1      31.496   5.567  48.968  1.00  0.00    -0.340 OA
HETATM    9  C14 UNL     1      31.832   7.166  47.200  1.00  0.00     0.151 C 
HETATM   10  C18 UNL     1      32.582   8.371  46.851  1.00  0.00     0.084 C 
HETATM   11  C20 UNL     1      31.784   9.264  46.325  1.00  0.00     0.054 C 
HETATM   12  C21 UNL     1      31.009  10.332  45.731  1.00  0.00     0.120 C 
HETATM   13  N2  UNL     1      29.833   9.816  45.728  1.00  0.00    -0.254 NA
HETATM   14  C22 UNL     1      28.631  10.344  45.277  1.00  0.00     0.228 C 
HETATM   15  N3  UNL     1      28.198  10.886  46.314  1.00  0.00    -0.264 NA
HETATM   16  C23 UNL     1      28.777  10.951  47.615  1.00  0.00     0.272 C 
HETATM   17  N4  UNL     1      29.240   9.740  48.218  1.00  0.00    -0.371 N 
HETATM   18  H24 UNL     1      28.718   9.435  49.112  1.00  0.00     0.161 HD
ENDROOT
BRANCH   1  19
HETATM   19  C6  UNL     1      33.749   6.222  48.582  1.00  0.00    -0.027 A 
HETATM   20  C5  UNL     1      34.584   5.142  48.349  1.00  0.00    -0.048 A 
HETATM   21  C24 UNL     1      35.206   6.365  48.802  1.00  0.00     0.077 A 
BRANCH  20  22
HETATM   22  C4  UNL     1      34.907   3.775  47.952  1.00  0.00     0.007 C 
HETATM   23  C3  UNL     1      34.162   2.729  47.581  1.00  0.00    -0.003 C 
BRANCH  23  24
HETATM   24  C2  UNL     1      32.820   2.224  47.329  1.00  0.00    -0.026 C 
HETATM   25  C1  UNL     1      31.811   2.463  46.465  1.00  0.00     0.031 C 
ENDBRANCH  23  24
ENDBRANCH  20  22
ENDBRANCH   1  19
BRANCH   9  26
HETATM   26  N1  UNL     1      31.802   6.133  46.237  1.00  0.00    -0.338 N 
HETATM   27  C15 UNL     1      32.704   5.767  45.243  1.00  0.00     0.218 C 
HETATM   28  O2  UNL     1      33.806   6.413  45.102  1.00  0.00    -0.274 OA
HETATM   29  H10 UNL     1      31.134   5.357  45.977  1.00  0.00     0.164 HD
BRANCH  27  30
HETATM   30  C16 UNL     1      33.321   5.082  44.130  1.00  0.00     0.098 C 
HETATM   31  C17 UNL     1      34.713   4.559  44.433  1.00  0.00     0.014 C 
ENDBRANCH  27  30
ENDBRANCH   9  26
BRANCH  10  32
HETATM   32  O3  UNL     1      33.975   8.402  47.114  1.00  0.00    -0.357 OA
HETATM   33  C19 UNL     1      34.828   9.339  46.509  1.00  0.00     0.209 C 
ENDBRANCH  10  32
TORSDOF 6
ENDMDL
MODEL 4
REMARK VINA RESULT:      -7.6      2.234      6.123
REMARK  6 active torsions:
REMARK  status: ('A' for Active; 'I' for Inactive)
REMARK    1  A    between atoms: C2_2  and  C3_3 
REMARK    2  A    between atoms: C4_4  and  C5_5 
REMARK    3  A    between atoms: C6_6  and  C7_7 
REMARK    4  A    between atoms: C14_15  and  N1_16 
REMARK       I    between atoms: N1_16  and  C15_17 
REMARK    5  A    between atoms: C15_17  and  C16_19 
REMARK    6  A    between atoms: C18_21  and  O3_22 
ROOT
HETATM    1  C7  UNL     1      23.593   3.599  51.965  1.00  0.00     0.145 C 
HETATM    2  C8  UNL     1      24.143   3.712  53.385  1.00  0.00     0.022 C 
HETATM    3  C9  UNL     1      25.118   2.926  53.880  1.00  0.00     0.029 C 
HETATM    4  C10 UNL     1      25.952   2.011  53.042  1.00  0.00     0.038 C 
HETATM    5  C11 UNL     1      25.403   2.286  51.893  1.00  0.00     0.008 C 
HETATM    6  C12 UNL     1      26.147   2.860  50.742  1.00  0.00     0.036 C 
HETATM    7  C13 UNL     1      25.366   3.854  50.217  1.00  0.00     0.137 C 
HETATM    8  O1  UNL     1      24.415   4.427  51.104  1.00  0.00    -0.340 OA
HETATM    9  C14 UNL     1      23.891   2.136  51.629  1.00  0.00     0.151 C 
HETATM   10  C18 UNL     1      23.220   1.297  52.620  1.00  0.00     0.084 C 
HETATM   11  C20 UNL     1      23.982   0.285  52.944  1.00  0.00     0.054 C 
HETATM   12  C21 UNL     1      24.727  -0.875  53.386  1.00  0.00     0.120 C 
HETATM   13  N2  UNL     1      25.812  -0.748  52.711  1.00  0.00    -0.254 NA
HETATM   14  C22 UNL     1      26.941  -1.553  52.684  1.00  0.00     0.228 C 
HETATM   15  N3  UNL     1      27.641  -1.024  53.572  1.00  0.00    -0.264 NA
HETATM   16  C23 UNL     1      27.360   0.103  54.398  1.00  0.00     0.272 C 
HETATM   17  N4  UNL     1      26.904   1.308  53.776  1.00  0.00    -0.371 N 
HETATM   18  H24 UNL     1      27.567   2.155  53.862  1.00  0.00     0.161 HD
ENDROOT
BRANCH   1  19
HETATM   19  C6  UNL     1      22.217   4.032  51.920  1.00  0.00    -0.027 A 
HETATM   20  C5  UNL     1      21.362   4.928  51.300  1.00  0.00    -0.048 A 
HETATM   21  C24 UNL     1      20.780   4.033  52.274  1.00  0.00     0.077 A 
BRANCH  20  22
HETATM   22  C4  UNL     1      21.004   5.999  50.376  1.00  0.00     0.007 C 
HETATM   23  C3  UNL     1      21.601   7.142  50.025  1.00  0.00    -0.003 C 
BRANCH  23  24
HETATM   24  C2  UNL     1      22.754   8.012  50.202  1.00  0.00    -0.026 C 
HETATM   25  C1  UNL     1      24.013   7.915  50.682  1.00  0.00     0.031 C 
ENDBRANCH  23  24
ENDBRANCH  20  22
ENDBRANCH   1  19
BRANCH   9  26
HETATM   26  N1  UNL     1      23.603   1.873  50.272  1.00  0.00    -0.338 N 
HETATM   27  C15 UNL     1      22.418   1.544  49.623  1.00  0.00     0.218 C 
HETATM   28  O2  UNL     1      21.321   1.455  50.288  1.00  0.00    -0.274 OA
HETATM   29  H10 UNL     1      24.155   1.843  49.372  1.00  0.00     0.164 HD
BRANCH  27  30
HETATM   30  C16 UNL     1      21.464   1.190  48.597  1.00  0.00     0.098 C 
HETATM   31  C17 UNL     1      20.244   2.093  48.560  1.00  0.00     0.014 C 
ENDBRANCH  27  30
ENDBRANCH   9  26
BRANCH  10  32
HETATM   32  O3  UNL     1      21.926   1.672  53.062  1.00  0.00    -0.357 OA
HETATM   33  C19 UNL     1      21.065   0.766  53.701  1.00  0.00     0.209 C 
ENDBRANCH  10  32
TORSDOF 6
ENDMDL
MODEL 5
REMARK VINA RESULT:      -7.4      1.978      2.913
REMARK  6 active torsions:
REMARK  status: ('A' for Active; 'I' for Inactive)
REMARK    1  A    between atoms: C2_2  and  C3_3 
REMARK    2  A    between atoms: C4_4  and  C5_5 
REMARK    3  A    between atoms: C6_6  and  C7_7 
REMARK    4  A    between atoms: C14_15  and  N1_16 
REMARK       I    between atoms: N1_16  and  C15_17 
REMARK    5  A    between atoms: C15_17  and  C16_19 
REMARK    6  A    between atoms: C18_21  and  O3_22 
ROOT
HETATM    1  C7  UNL     1      22.650   4.296  50.823  1.00  0.00     0.145 C 
HETATM    2  C8  UNL     1      23.566   4.943  51.859  1.00  0.00     0.022 C 
HETATM    3  C9  UNL     1      24.168   6.136  51.692  1.00  0.00     0.029 C 
HETATM    4  C10 UNL     1      23.833   7.087  50.588  1.00  0.00     0.038 C 
HETATM    5  C11 UNL     1      22.908   6.367  50.019  1.00  0.00     0.008 C 
HETATM    6  C12 UNL     1      21.498   6.811  49.869  1.00  0.00     0.036 C 
HETATM    7  C13 UNL     1      20.706   5.748  50.208  1.00  0.00     0.137 C 
HETATM    8  O1  UNL     1      21.303   4.779  51.059  1.00  0.00    -0.340 OA
HETATM    9  C14 UNL     1      23.152   4.928  49.524  1.00  0.00     0.151 C 
HETATM   10  C18 UNL     1      24.571   4.607  49.381  1.00  0.00     0.084 C 
HETATM   11  C20 UNL     1      25.220   5.637  48.902  1.00  0.00     0.054 C 
HETATM   12  C21 UNL     1      26.050   6.700  48.377  1.00  0.00     0.120 C 
HETATM   13  N2  UNL     1      25.187   7.637  48.220  1.00  0.00    -0.254 NA
HETATM   14  C22 UNL     1      25.354   8.928  47.741  1.00  0.00     0.228 C 
HETATM   15  N3  UNL     1      25.578   9.555  48.796  1.00  0.00    -0.264 NA
HETATM   16  C23 UNL     1      25.648   9.078  50.137  1.00  0.00     0.272 C 
HETATM   17  N4  UNL     1      24.581   8.261  50.629  1.00  0.00    -0.371 N 
HETATM   18  H24 UNL     1      24.004   8.685  51.435  1.00  0.00     0.161 HD
ENDROOT
BRANCH   1  19
HETATM   19  C6  UNL     1      22.699   2.858  50.933  1.00  0.00    -0.027 A 
HETATM   20  C5  UNL     1      23.149   1.828  51.742  1.00  0.00    -0.048 A 
HETATM   21  C24 UNL     1      22.441   1.455  50.538  1.00  0.00     0.077 A 
BRANCH  20  22
HETATM   22  C4  UNL     1      23.802   1.245  52.909  1.00  0.00     0.007 C 
HETATM   23  C3  UNL     1      24.925   0.537  53.073  1.00  0.00    -0.003 C 
BRANCH  23  24
HETATM   24  C2  UNL     1      26.087  -0.059  52.430  1.00  0.00    -0.026 C 
HETATM   25  C1  UNL     1      26.762  -1.227  52.473  1.00  0.00     0.031 C 
ENDBRANCH  23  24
ENDBRANCH  20  22
ENDBRANCH   1  19
BRANCH   9  26
HETATM   26  N1  UNL     1      22.307   4.578  48.446  1.00  0.00    -0.338 N 
HETATM   27  C15 UNL     1      22.199   5.081  47.154  1.00  0.00     0.218 C 
HETATM   28  O2  UNL     1      22.976   6.025  46.761  1.00  0.00    -0.274 OA
HETATM   29  H10 UNL     1      21.539   3.872  48.284  1.00  0.00     0.164 HD
BRANCH  27  30
HETATM   30  C16 UNL     1      21.759   5.295  45.794  1.00  0.00     0.098 C 
HETATM   31  C17 UNL     1      21.491   4.010  45.031  1.00  0.00     0.014 C 
ENDBRANCH  27  30
ENDBRANCH   9  26
BRANCH  10  32
HETATM   32  O3  UNL     1      25.014   3.314  49.756  1.00  0.00    -0.357 OA
HETATM   33  C19 UNL     1      26.336   3.067  50.160  1.00  0.00     0.209 C 
ENDBRANCH  10  32
TORSDOF 6
ENDMDL
MODEL 6
REMARK VINA RESULT:      -7.4      2.069      3.507
REMARK  6 active torsions:
REMARK  status: ('A' for Active; 'I' for Inactive)
REMARK    1  A    between atoms: C2_2  and  C3_3 
REMARK    2  A    between atoms: C4_4  and  C5_5 
REMARK    3  A    between atoms: C6_6  and  C7_7 
REMARK    4  A    between atoms: C14_15  and  N1_16 
REMARK       I    between atoms: N1_16  and  C15_17 
REMARK    5  A    between atoms: C15_17  and  C16_19 
REMARK    6  A    between atoms: C18_21  and  O3_22 
ROOT
HETATM    1  C7  UNL     1      22.208   2.229  50.501  1.00  0.00     0.145 C 
HETATM    2  C8  UNL     1      20.853   2.745  50.980  1.00  0.00     0.022 C 
HETATM    3  C9  UNL     1      20.254   3.850  50.496  1.00  0.00     0.029 C 
HETATM    4  C10 UNL     1      20.713   4.574  49.271  1.00  0.00     0.038 C 
HETATM    5  C11 UNL     1      21.721   3.799  48.984  1.00  0.00     0.008 C 
HETATM    6  C12 UNL     1      21.837   3.039  47.713  1.00  0.00     0.036 C 
HETATM    7  C13 UNL     1      22.255   1.777  48.039  1.00  0.00     0.137 C 
HETATM    8  O1  UNL     1      21.973   1.356  49.367  1.00  0.00    -0.340 OA
HETATM    9  C14 UNL     1      22.863   3.508  49.977  1.00  0.00     0.151 C 
HETATM   10  C18 UNL     1      22.923   4.470  51.076  1.00  0.00     0.084 C 
HETATM   11  C20 UNL     1      22.662   5.674  50.636  1.00  0.00     0.054 C 
HETATM   12  C21 UNL     1      22.391   7.049  50.276  1.00  0.00     0.120 C 
HETATM   13  N2  UNL     1      22.159   6.938  49.018  1.00  0.00    -0.254 NA
HETATM   14  C22 UNL     1      21.837   7.911  48.083  1.00  0.00     0.228 C 
HETATM   15  N3  UNL     1      20.590   7.896  48.134  1.00  0.00    -0.264 NA
HETATM   16  C23 UNL     1      19.723   7.097  48.935  1.00  0.00     0.272 C 
HETATM   17  N4  UNL     1      19.928   5.682  48.961  1.00  0.00    -0.371 N 
HETATM   18  H24 UNL     1      19.126   5.088  48.550  1.00  0.00     0.161 HD
ENDROOT
BRANCH   1  19
HETATM   19  C6  UNL     1      22.880   1.514  51.559  1.00  0.00    -0.027 A 
HETATM   20  C5  UNL     1      24.129   1.102  51.992  1.00  0.00    -0.048 A 
HETATM   21  C24 UNL     1      23.001   0.761  52.828  1.00  0.00     0.077 A 
BRANCH  20  22
HETATM   22  C4  UNL     1      25.581   0.970  51.924  1.00  0.00     0.007 C 
HETATM   23  C3  UNL     1      26.426  -0.020  52.230  1.00  0.00    -0.003 C 
BRANCH  23  24
HETATM   24  C2  UNL     1      26.570  -1.381  52.726  1.00  0.00    -0.026 C 
HETATM   25  C1  UNL     1      27.453  -2.396  52.611  1.00  0.00     0.031 C 
ENDBRANCH  23  24
ENDBRANCH  20  22
ENDBRANCH   1  19
BRANCH   9  26
HETATM   26  N1  UNL     1      24.081   3.208  49.326  1.00  0.00    -0.338 N 
HETATM   27  C15 UNL     1      25.370   3.699  49.501  1.00  0.00     0.218 C 
HETATM   28  O2  UNL     1      25.609   4.578  50.408  1.00  0.00    -0.274 OA
HETATM   29  H10 UNL     1      24.386   2.559  48.551  1.00  0.00     0.164 HD
BRANCH  27  30
HETATM   30  C16 UNL     1      26.788   3.927  49.342  1.00  0.00     0.098 C 
HETATM   31  C17 UNL     1      27.122   5.269  48.714  1.00  0.00     0.014 C 
ENDBRANCH  27  30
ENDBRANCH   9  26
BRANCH  10  32
HETATM   32  O3  UNL     1      23.234   3.996  52.375  1.00  0.00    -0.357 OA
HETATM   33  C19 UNL     1      23.738   4.843  53.377  1.00  0.00     0.209 C 
ENDBRANCH  10  32
TORSDOF 6
ENDMDL
MODEL 7
REMARK VINA RESULT:      -7.3      2.096      6.076
REMARK  6 active torsions:
REMARK  status: ('A' for Active; 'I' for Inactive)
REMARK    1  A    between atoms: C2_2  and  C3_3 
REMARK    2  A    between atoms: C4_4  and  C5_5 
REMARK    3  A    between atoms: C6_6  and  C7_7 
REMARK    4  A    between atoms: C14_15  and  N1_16 
REMARK       I    between atoms: N1_16  and  C15_17 
REMARK    5  A    between atoms: C15_17  and  C16_19 
REMARK    6  A    between atoms: C18_21  and  O3_22 
ROOT
HETATM    1  C7  UNL     1      22.744   5.204  50.172  1.00  0.00     0.145 C 
HETATM    2  C8  UNL     1      21.230   5.075  50.324  1.00  0.00     0.022 C 
HETATM    3  C9  UNL     1      20.627   4.156  51.104  1.00  0.00     0.029 C 
HETATM    4  C10 UNL     1      21.351   3.309  52.100  1.00  0.00     0.038 C 
HETATM    5  C11 UNL     1      22.546   3.784  51.889  1.00  0.00     0.008 C 
HETATM    6  C12 UNL     1      23.360   4.457  52.934  1.00  0.00     0.036 C 
HETATM    7  C13 UNL     1      23.908   5.571  52.358  1.00  0.00     0.137 C 
HETATM    8  O1  UNL     1      23.221   6.082  51.223  1.00  0.00    -0.340 OA
HETATM    9  C14 UNL     1      23.214   3.786  50.499  1.00  0.00     0.151 C 
HETATM   10  C18 UNL     1      22.575   2.867  49.559  1.00  0.00     0.084 C 
HETATM   11  C20 UNL     1      22.226   1.766  50.171  1.00  0.00     0.054 C 
HETATM   12  C21 UNL     1      21.792   0.503  50.729  1.00  0.00     0.120 C 
HETATM   13  N2  UNL     1      22.132   0.642  51.959  1.00  0.00    -0.254 NA
HETATM   14  C22 UNL     1      21.989  -0.233  53.026  1.00  0.00     0.228 C 
HETATM   15  N3  UNL     1      20.879   0.112  53.479  1.00  0.00    -0.264 NA
HETATM   16  C23 UNL     1      19.990   1.130  53.025  1.00  0.00     0.272 C 
HETATM   17  N4  UNL     1      20.513   2.441  52.795  1.00  0.00    -0.371 N 
HETATM   18  H24 UNL     1      20.126   3.216  53.439  1.00  0.00     0.161 HD
ENDROOT
BRANCH   1  19
HETATM   19  C6  UNL     1      23.078   5.740  48.875  1.00  0.00    -0.027 A 
HETATM   20  C5  UNL     1      24.015   6.511  48.207  1.00  0.00    -0.048 A 
HETATM   21  C24 UNL     1      22.925   5.979  47.422  1.00  0.00     0.077 A 
BRANCH  20  22
HETATM   22  C4  UNL     1      25.225   7.317  48.083  1.00  0.00     0.007 C 
HETATM   23  C3  UNL     1      26.527   7.038  48.194  1.00  0.00    -0.003 C 
BRANCH  23  24
HETATM   24  C2  UNL     1      27.530   6.013  48.446  1.00  0.00    -0.026 C 
HETATM   25  C1  UNL     1      27.560   4.687  48.698  1.00  0.00     0.031 C 
ENDBRANCH  23  24
ENDBRANCH  20  22
ENDBRANCH   1  19
BRANCH   9  26
HETATM   26  N1  UNL     1      24.624   3.739  50.578  1.00  0.00    -0.338 N 
HETATM   27  C15 UNL     1      25.492   2.760  51.049  1.00  0.00     0.218 C 
HETATM   28  O2  UNL     1      25.030   1.649  51.501  1.00  0.00    -0.274 OA
HETATM   29  H10 UNL     1      25.419   4.385  50.323  1.00  0.00     0.164 HD
BRANCH  27  30
HETATM   30  C16 UNL     1      26.697   2.057  51.426  1.00  0.00     0.098 C 
HETATM   31  C17 UNL     1      26.926   1.999  52.925  1.00  0.00     0.014 C 
ENDBRANCH  27  30
ENDBRANCH   9  26
BRANCH  10  32
HETATM   32  O3  UNL     1      22.433   3.272  48.207  1.00  0.00    -0.357 OA
HETATM   33  C19 UNL     1      22.231   2.347  47.169  1.00  0.00     0.209 C 
ENDBRANCH  10  32
TORSDOF 6
ENDMDL
MODEL 8
REMARK VINA RESULT:      -7.3      2.588      5.743
REMARK  6 active torsions:
REMARK  status: ('A' for Active; 'I' for Inactive)
REMARK    1  A    between atoms: C2_2  and  C3_3 
REMARK    2  A    between atoms: C4_4  and  C5_5 
REMARK    3  A    between atoms: C6_6  and  C7_7 
REMARK    4  A    between atoms: C14_15  and  N1_16 
REMARK       I    between atoms: N1_16  and  C15_17 
REMARK    5  A    between atoms: C15_17  and  C16_19 
REMARK    6  A    between atoms: C18_21  and  O3_22 
ROOT
HETATM    1  C7  UNL     1      22.690   3.799  48.559  1.00  0.00     0.145 C 
HETATM    2  C8  UNL     1      22.820   2.323  48.927  1.00  0.00     0.022 C 
HETATM    3  C9  UNL     1      21.789   1.551  49.321  1.00  0.00     0.029 C 
HETATM    4  C10 UNL     1      20.357   1.966  49.220  1.00  0.00     0.038 C 
HETATM    5  C11 UNL     1      20.557   3.141  48.695  1.00  0.00     0.008 C 
HETATM    6  C12 UNL     1      20.029   3.549  47.367  1.00  0.00     0.036 C 
HETATM    7  C13 UNL     1      21.044   4.196  46.716  1.00  0.00     0.137 C 
HETATM    8  O1  UNL     1      22.360   3.877  47.149  1.00  0.00    -0.340 OA
HETATM    9  C14 UNL     1      21.450   4.212  49.353  1.00  0.00     0.151 C 
HETATM   10  C18 UNL     1      21.707   3.948  50.768  1.00  0.00     0.084 C 
HETATM   11  C20 UNL     1      20.630   3.478  51.342  1.00  0.00     0.054 C 
HETATM   12  C21 UNL     1      19.510   2.954  52.093  1.00  0.00     0.120 C 
HETATM   13  N2  UNL     1      18.609   2.882  51.181  1.00  0.00    -0.254 NA
HETATM   14  C22 UNL     1      17.292   2.454  51.264  1.00  0.00     0.228 C 
HETATM   15  N3  UNL     1      17.411   1.241  50.993  1.00  0.00    -0.264 NA
HETATM   16  C23 UNL     1      18.582   0.491  50.683  1.00  0.00     0.272 C 
HETATM   17  N4  UNL     1      19.470   0.995  49.680  1.00  0.00    -0.371 N 
HETATM   18  H24 UNL     1      19.563   0.387  48.793  1.00  0.00     0.161 HD
ENDROOT
BRANCH   1  19
HETATM   19  C6  UNL     1      23.924   4.498  48.829  1.00  0.00    -0.027 A 
HETATM   20  C5  UNL     1      25.229   4.310  49.254  1.00  0.00    -0.048 A 
HETATM   21  C24 UNL     1      24.838   5.659  48.914  1.00  0.00     0.077 A 
BRANCH  20  22
HETATM   22  C4  UNL     1      26.376   3.535  49.713  1.00  0.00     0.007 C 
HETATM   23  C3  UNL     1      26.541   2.630  50.683  1.00  0.00    -0.003 C 
BRANCH  23  24
HETATM   24  C2  UNL     1      25.912   1.878  51.759  1.00  0.00    -0.026 C 
HETATM   25  C1  UNL     1      24.771   1.184  51.957  1.00  0.00     0.031 C 
ENDBRANCH  23  24
ENDBRANCH  20  22
ENDBRANCH   1  19
BRANCH   9  26
HETATM   26  N1  UNL     1      21.059   5.525  49.010  1.00  0.00    -0.338 N 
HETATM   27  C15 UNL     1      21.222   6.741  49.667  1.00  0.00     0.218 C 
HETATM   28  O2  UNL     1      21.844   6.790  50.790  1.00  0.00    -0.274 OA
HETATM   29  H10 UNL     1      20.553   5.979  48.203  1.00  0.00     0.164 HD
BRANCH  27  30
HETATM   30  C16 UNL     1      21.161   8.148  49.990  1.00  0.00     0.098 C 
HETATM   31  C17 UNL     1      19.838   8.799  49.630  1.00  0.00     0.014 C 
ENDBRANCH  27  30
ENDBRANCH   9  26
BRANCH  10  32
HETATM   32  O3  UNL     1      23.000   4.219  51.283  1.00  0.00    -0.357 OA
HETATM   33  C19 UNL     1      23.235   4.383  52.658  1.00  0.00     0.209 C 
ENDBRANCH  10  32
TORSDOF 6
ENDMDL
MODEL 9
REMARK VINA RESULT:      -7.2      3.032      4.478
REMARK  6 active torsions:
REMARK  status: ('A' for Active; 'I' for Inactive)
REMARK    1  A    between atoms: C2_2  and  C3_3 
REMARK    2  A    between atoms: C4_4  and  C5_5 
REMARK    3  A    between atoms: C6_6  and  C7_7 
REMARK    4  A    between atoms: C14_15  and  N1_16 
REMARK       I    between atoms: N1_16  and  C15_17 
REMARK    5  A    between atoms: C15_17  and  C16_19 
REMARK    6  A    between atoms: C18_21  and  O3_22 
ROOT
HETATM    1  C7  UNL     1      23.027   2.990  50.362  1.00  0.00     0.145 C 
HETATM    2  C8  UNL     1      24.438   2.850  49.796  1.00  0.00     0.022 C 
HETATM    3  C9  UNL     1      25.289   3.881  49.631  1.00  0.00     0.029 C 
HETATM    4  C10 UNL     1      25.060   5.245  50.198  1.00  0.00     0.038 C 
HETATM    5  C11 UNL     1      23.921   4.997  50.780  1.00  0.00     0.008 C 
HETATM    6  C12 UNL     1      23.699   5.128  52.243  1.00  0.00     0.036 C 
HETATM    7  C13 UNL     1      22.997   4.023  52.642  1.00  0.00     0.137 C 
HETATM    8  O1  UNL     1      23.116   2.880  51.806  1.00  0.00    -0.340 OA
HETATM    9  C14 UNL     1      22.696   4.444  50.024  1.00  0.00     0.151 C 
HETATM   10  C18 UNL     1      22.799   4.608  48.575  1.00  0.00     0.084 C 
HETATM   11  C20 UNL     1      23.341   5.764  48.290  1.00  0.00     0.054 C 
HETATM   12  C21 UNL     1      23.926   7.010  47.842  1.00  0.00     0.120 C 
HETATM   13  N2  UNL     1      24.187   7.580  48.963  1.00  0.00    -0.254 NA
HETATM   14  C22 UNL     1      24.761   8.817  49.219  1.00  0.00     0.228 C 
HETATM   15  N3  UNL     1      25.969   8.516  49.294  1.00  0.00    -0.264 NA
HETATM   16  C23 UNL     1      26.598   7.245  49.153  1.00  0.00     0.272 C 
HETATM   17  N4  UNL     1      26.085   6.141  49.904  1.00  0.00    -0.371 N 
HETATM   18  H24 UNL     1      26.754   5.730  50.644  1.00  0.00     0.161 HD
ENDROOT
BRANCH   1  19
HETATM   19  C6  UNL     1      22.164   1.963  49.829  1.00  0.00    -0.027 A 
HETATM   20  C5  UNL     1      21.161   1.074  50.178  1.00  0.00    -0.048 A 
HETATM   21  C24 UNL     1      21.579   1.081  48.795  1.00  0.00     0.077 A 
BRANCH  20  22
HETATM   22  C4  UNL     1      20.218   0.425  51.083  1.00  0.00     0.007 C 
HETATM   23  C3  UNL     1      20.243   0.152  52.391  1.00  0.00    -0.003 C 
BRANCH  23  24
HETATM   24  C2  UNL     1      20.993   0.248  53.635  1.00  0.00    -0.026 C 
HETATM   25  C1  UNL     1      21.313  -0.556  54.672  1.00  0.00     0.031 C 
ENDBRANCH  23  24
ENDBRANCH  20  22
ENDBRANCH   1  19
BRANCH   9  26
HETATM   26  N1  UNL     1      21.475   4.825  50.624  1.00  0.00    -0.338 N 
HETATM   27  C15 UNL     1      20.159   4.731  50.184  1.00  0.00     0.218 C 
HETATM   28  O2  UNL     1      19.895   4.200  49.044  1.00  0.00    -0.274 OA
HETATM   29  H10 UNL     1      21.185   5.272  51.535  1.00  0.00     0.164 HD
BRANCH  27  30
HETATM   30  C16 UNL     1      18.719   4.837  50.121  1.00  0.00     0.098 C 
HETATM   31  C17 UNL     1      17.994   3.774  50.928  1.00  0.00     0.014 C 
ENDBRANCH  27  30
ENDBRANCH   9  26
BRANCH  10  32
HETATM   32  O3  UNL     1      22.330   3.563  47.740  1.00  0.00    -0.357 OA
HETATM   33  C19 UNL     1      22.012   3.775  46.388  1.00  0.00     0.209 C 
ENDBRANCH  10  32
TORSDOF 6
ENDMDL
