MODEL 1
REMARK VINA RESULT:      -9.2      0.000      0.000
REMARK  6 active torsions:
REMARK  status: ('A' for Active; 'I' for Inactive)
REMARK    1  A    between atoms: O1_2  and  C2_3 
REMARK    2  A    between atoms: C4_5  and  N1_6 
REMARK    3  A    between atoms: C7_9  and  N2_10 
REMARK       I    between atoms: N2_10  and  C8_11 
REMARK    4  A    between atoms: C8_11  and  C9_13 
REMARK    5  A    between atoms: C10_14  and  C11_15 
REMARK    6  A    between atoms: C11_15  and  N3_16 
ROOT
HETATM    1  N1  UNL     1      25.094   5.052  49.564  1.00  0.00    -0.372 N 
HETATM    2  C5  UNL     1      24.295   5.322  50.714  1.00  0.00     0.153 C 
HETATM    3  C6  UNL     1      24.140   4.223  51.648  1.00  0.00     0.023 C 
HETATM    4  C7  UNL     1      22.907   3.841  51.898  1.00  0.00     0.041 C 
HETATM    5  C16 UNL     1      21.472   3.868  51.765  1.00  0.00    -0.004 C 
HETATM    6  C17 UNL     1      20.485   3.144  52.588  1.00  0.00     0.053 C 
HETATM    7  C18 UNL     1      20.736   4.524  50.838  1.00  0.00     0.094 C 
HETATM    8  N4  UNL     1      20.922   3.832  49.706  1.00  0.00    -0.257 NA
HETATM    9  C19 UNL     1      22.349   3.711  49.474  1.00  0.00     0.137 C 
HETATM   10  C20 UNL     1      22.978   4.652  48.744  1.00  0.00     0.057 C 
HETATM   11  C21 UNL     1      21.751   5.306  48.564  1.00  0.00     0.098 C 
HETATM   12  N5  UNL     1      20.754   5.850  48.401  1.00  0.00    -0.192 NA
HETATM   13  C22 UNL     1      24.253   3.997  48.915  1.00  0.00     0.174 C 
ENDROOT
BRANCH   1  14
HETATM   14  C4  UNL     1      26.321   5.576  49.105  1.00  0.00     0.033 A 
HETATM   15  C3  UNL     1      26.413   6.943  49.028  1.00  0.00     0.069 A 
HETATM   16  C2  UNL     1      27.578   7.503  48.588  1.00  0.00     0.108 A 
HETATM   17  C25 UNL     1      28.662   6.697  48.224  1.00  0.00     0.149 A 
HETATM   18  C24 UNL     1      28.545   5.317  48.311  1.00  0.00     0.047 A 
HETATM   19  F1  UNL     1      29.853   7.215  47.777  1.00  0.00    -0.203 F 
HETATM   20  C23 UNL     1      27.377   4.785  48.750  1.00  0.00     0.032 A 
BRANCH  16  21
HETATM   21  O1  UNL     1      27.823   8.842  48.456  1.00  0.00    -0.353 OA
HETATM   22  C1  UNL     1      28.223   9.587  49.576  1.00  0.00     0.210 C 
ENDBRANCH  16  21
ENDBRANCH   1  14
BRANCH   4  23
HETATM   23  N2  UNL     1      23.275   2.788  52.831  1.00  0.00    -0.323 N 
HETATM   24  C8  UNL     1      23.499   1.460  52.312  1.00  0.00     0.245 C 
HETATM   25  O2  UNL     1      23.362   1.235  51.061  1.00  0.00    -0.268 OA
HETATM   26  H8  UNL     1      23.416   2.841  53.878  1.00  0.00     0.169 HD
BRANCH  24  27
HETATM   27  C9  UNL     1      23.879   0.322  53.121  1.00  0.00     0.072 C 
HETATM   28  C10 UNL     1      25.016  -0.351  53.092  1.00  0.00     0.008 C 
BRANCH  28  29
HETATM   29  C11 UNL     1      26.282  -0.325  52.365  1.00  0.00     0.300 C 
BRANCH  29  30
HETATM   30  N3  UNL     1      27.348   0.401  52.965  1.00  0.00     0.096 N 
HETATM   31  C12 UNL     1      27.675  -0.091  54.266  1.00  0.00     0.299 C 
HETATM   32  C13 UNL     1      28.889   0.606  54.854  1.00  0.00     0.198 C 
HETATM   33  O3  UNL     1      28.815   1.982  54.705  1.00  0.00    -0.388 OA
HETATM   34  C14 UNL     1      28.553   2.401  53.412  1.00  0.00     0.198 C 
HETATM   35  C15 UNL     1      27.188   1.821  53.032  1.00  0.00     0.299 C 
ENDBRANCH  29  30
ENDBRANCH  28  29
ENDBRANCH  24  27
ENDBRANCH   4  23
TORSDOF 6
ENDMDL
MODEL 2
REMARK VINA RESULT:      -8.9      3.082      5.942
REMARK  6 active torsions:
REMARK  status: ('A' for Active; 'I' for Inactive)
REMARK    1  A    between atoms: O1_2  and  C2_3 
REMARK    2  A    between atoms: C4_5  and  N1_6 
REMARK    3  A    between atoms: C7_9  and  N2_10 
REMARK       I    between atoms: N2_10  and  C8_11 
REMARK    4  A    between atoms: C8_11  and  C9_13 
REMARK    5  A    between atoms: C10_14  and  C11_15 
REMARK    6  A    between atoms: C11_15  and  N3_16 
ROOT
HETATM    1  N1  UNL     1      25.992   2.602  51.666  1.00  0.00    -0.372 N 
HETATM    2  C5  UNL     1      24.975   3.528  52.038  1.00  0.00     0.153 C 
HETATM    3  C6  UNL     1      23.612   3.121  51.748  1.00  0.00     0.023 C 
HETATM    4  C7  UNL     1      22.915   3.926  50.976  1.00  0.00     0.041 C 
HETATM    5  C16 UNL     1      22.692   5.090  50.156  1.00  0.00    -0.004 C 
HETATM    6  C17 UNL     1      21.407   5.561  49.605  1.00  0.00     0.053 C 
HETATM    7  C18 UNL     1      23.612   5.965  49.687  1.00  0.00     0.094 C 
HETATM    8  N4  UNL     1      24.257   5.293  48.724  1.00  0.00    -0.257 NA
HETATM    9  C19 UNL     1      24.737   4.043  49.281  1.00  0.00     0.137 C 
HETATM   10  C20 UNL     1      25.965   3.997  49.832  1.00  0.00     0.057 C 
HETATM   11  C21 UNL     1      26.141   5.349  49.505  1.00  0.00     0.098 C 
HETATM   12  N5  UNL     1      26.306   6.452  49.237  1.00  0.00    -0.192 NA
HETATM   13  C22 UNL     1      25.806   2.605  50.181  1.00  0.00     0.174 C 
ENDROOT
BRANCH   1  14
HETATM   14  C4  UNL     1      26.933   1.860  52.413  1.00  0.00     0.033 A 
HETATM   15  C3  UNL     1      26.792   0.495  52.391  1.00  0.00     0.069 A 
HETATM   16  C2  UNL     1      27.675  -0.271  53.098  1.00  0.00     0.108 A 
HETATM   17  C25 UNL     1      28.706   0.325  53.832  1.00  0.00     0.149 A 
HETATM   18  C24 UNL     1      28.827   1.708  53.838  1.00  0.00     0.047 A 
HETATM   19  F1  UNL     1      29.617  -0.403  54.556  1.00  0.00    -0.203 F 
HETATM   20  C23 UNL     1      27.937   2.447  53.129  1.00  0.00     0.032 A 
BRANCH  16  21
HETATM   21  O1  UNL     1      27.667  -1.635  53.174  1.00  0.00    -0.353 OA
HETATM   22  C1  UNL     1      26.835  -2.374  52.320  1.00  0.00     0.210 C 
ENDBRANCH  16  21
ENDBRANCH   1  14
BRANCH   4  23
HETATM   23  N2  UNL     1      21.704   3.122  50.995  1.00  0.00    -0.323 N 
HETATM   24  C8  UNL     1      21.608   2.007  50.082  1.00  0.00     0.245 C 
HETATM   25  O2  UNL     1      22.571   1.760  49.279  1.00  0.00    -0.268 OA
HETATM   26  H8  UNL     1      20.843   3.222  51.601  1.00  0.00     0.169 HD
BRANCH  24  27
HETATM   27  C9  UNL     1      20.469   1.119  49.999  1.00  0.00     0.072 C 
HETATM   28  C10 UNL     1      19.825   0.531  50.991  1.00  0.00     0.008 C 
BRANCH  28  29
HETATM   29  C11 UNL     1      19.891   0.464  52.448  1.00  0.00     0.300 C 
BRANCH  29  30
HETATM   30  N3  UNL     1      21.003  -0.225  53.006  1.00  0.00     0.096 N 
HETATM   31  C12 UNL     1      20.615  -1.139  54.033  1.00  0.00     0.299 C 
HETATM   32  C13 UNL     1      21.787  -1.959  54.544  1.00  0.00     0.198 C 
HETATM   33  O3  UNL     1      22.897  -1.168  54.796  1.00  0.00    -0.388 OA
HETATM   34  C14 UNL     1      23.260  -0.344  53.744  1.00  0.00     0.198 C 
HETATM   35  C15 UNL     1      22.074   0.591  53.491  1.00  0.00     0.299 C 
ENDBRANCH  29  30
ENDBRANCH  28  29
ENDBRANCH  24  27
ENDBRANCH   4  23
TORSDOF 6
ENDMDL
MODEL 3
REMARK VINA RESULT:      -8.9      1.644      2.024
REMARK  6 active torsions:
REMARK  status: ('A' for Active; 'I' for Inactive)
REMARK    1  A    between atoms: O1_2  and  C2_3 
REMARK    2  A    between atoms: C4_5  and  N1_6 
REMARK    3  A    between atoms: C7_9  and  N2_10 
REMARK       I    between atoms: N2_10  and  C8_11 
REMARK    4  A    between atoms: C8_11  and  C9_13 
REMARK    5  A    between atoms: C10_14  and  C11_15 
REMARK    6  A    between atoms: C11_15  and  N3_16 
ROOT
HETATM    1  N1  UNL     1      25.513   6.110  48.879  1.00  0.00    -0.372 N 
HETATM    2  C5  UNL     1      25.093   5.912  50.226  1.00  0.00     0.153 C 
HETATM    3  C6  UNL     1      24.680   4.563  50.568  1.00  0.00     0.023 C 
HETATM    4  C7  UNL     1      23.458   4.429  51.034  1.00  0.00     0.041 C 
HETATM    5  C16 UNL     1      22.148   4.880  51.434  1.00  0.00    -0.004 C 
HETATM    6  C17 UNL     1      21.112   4.101  52.138  1.00  0.00     0.053 C 
HETATM    7  C18 UNL     1      21.583   6.089  51.212  1.00  0.00     0.094 C 
HETATM    8  N4  UNL     1      21.287   6.090  49.906  1.00  0.00    -0.257 NA
HETATM    9  C19 UNL     1      22.490   5.761  49.165  1.00  0.00     0.137 C 
HETATM   10  C20 UNL     1      23.304   6.754  48.758  1.00  0.00     0.057 C 
HETATM   11  C21 UNL     1      22.421   7.684  49.324  1.00  0.00     0.098 C 
HETATM   12  N5  UNL     1      21.705   8.459  49.775  1.00  0.00    -0.192 NA
HETATM   13  C22 UNL     1      24.229   5.816  48.168  1.00  0.00     0.174 C 
ENDROOT
BRANCH   1  14
HETATM   14  C4  UNL     1      26.750   6.473  48.304  1.00  0.00     0.033 A 
HETATM   15  C3  UNL     1      27.811   5.640  48.559  1.00  0.00     0.069 A 
HETATM   16  C2  UNL     1      29.032   5.945  48.028  1.00  0.00     0.108 A 
HETATM   17  C25 UNL     1      29.199   7.087  47.237  1.00  0.00     0.149 A 
HETATM   18  C24 UNL     1      28.111   7.913  46.994  1.00  0.00     0.047 A 
HETATM   19  F1  UNL     1      30.407   7.434  46.681  1.00  0.00    -0.203 F 
HETATM   20  C23 UNL     1      26.909   7.589  47.533  1.00  0.00     0.032 A 
BRANCH  16  21
HETATM   21  O1  UNL     1      30.179   5.219  48.190  1.00  0.00    -0.353 OA
HETATM   22  C1  UNL     1      31.181   5.689  49.051  1.00  0.00     0.210 C 
ENDBRANCH  16  21
ENDBRANCH   1  14
BRANCH   4  23
HETATM   23  N2  UNL     1      23.537   2.988  51.214  1.00  0.00    -0.323 N 
HETATM   24  C8  UNL     1      24.001   2.480  52.483  1.00  0.00     0.245 C 
HETATM   25  O2  UNL     1      24.339   3.296  53.408  1.00  0.00    -0.268 OA
HETATM   26  H8  UNL     1      23.293   2.214  50.535  1.00  0.00     0.169 HD
BRANCH  24  27
HETATM   27  C9  UNL     1      24.120   1.074  52.804  1.00  0.00     0.072 C 
HETATM   28  C10 UNL     1      25.143   0.273  52.569  1.00  0.00     0.008 C 
BRANCH  28  29
HETATM   29  C11 UNL     1      26.472   0.345  51.967  1.00  0.00     0.300 C 
BRANCH  29  30
HETATM   30  N3  UNL     1      27.544   0.709  52.828  1.00  0.00     0.096 N 
HETATM   31  C12 UNL     1      27.538  -0.036  54.046  1.00  0.00     0.299 C 
HETATM   32  C13 UNL     1      28.749   0.268  54.911  1.00  0.00     0.198 C 
HETATM   33  O3  UNL     1      28.980   1.630  55.011  1.00  0.00    -0.388 OA
HETATM   34  C14 UNL     1      29.032   2.290  53.796  1.00  0.00     0.198 C 
HETATM   35  C15 UNL     1      27.663   2.101  53.135  1.00  0.00     0.299 C 
ENDBRANCH  29  30
ENDBRANCH  28  29
ENDBRANCH  24  27
ENDBRANCH   4  23
TORSDOF 6
ENDMDL
MODEL 4
REMARK VINA RESULT:      -8.7      2.747      7.084
REMARK  6 active torsions:
REMARK  status: ('A' for Active; 'I' for Inactive)
REMARK    1  A    between atoms: O1_2  and  C2_3 
REMARK    2  A    between atoms: C4_5  and  N1_6 
REMARK    3  A    between atoms: C7_9  and  N2_10 
REMARK       I    between atoms: N2_10  and  C8_11 
REMARK    4  A    between atoms: C8_11  and  C9_13 
REMARK    5  A    between atoms: C10_14  and  C11_15 
REMARK    6  A    between atoms: C11_15  and  N3_16 
ROOT
HETATM    1  N1  UNL     1      25.962   2.512  51.617  1.00  0.00    -0.372 N 
HETATM    2  C5  UNL     1      25.900   2.861  50.237  1.00  0.00     0.153 C 
HETATM    3  C6  UNL     1      25.928   4.282  49.942  1.00  0.00     0.023 C 
HETATM    4  C7  UNL     1      24.907   4.756  49.262  1.00  0.00     0.041 C 
HETATM    5  C16 UNL     1      23.640   4.686  48.577  1.00  0.00    -0.004 C 
HETATM    6  C17 UNL     1      23.010   5.739  47.757  1.00  0.00     0.053 C 
HETATM    7  C18 UNL     1      22.750   3.667  48.577  1.00  0.00     0.094 C 
HETATM    8  N4  UNL     1      22.197   3.702  49.796  1.00  0.00    -0.257 NA
HETATM    9  C19 UNL     1      23.260   3.670  50.782  1.00  0.00     0.137 C 
HETATM   10  C20 UNL     1      23.687   2.481  51.250  1.00  0.00     0.057 C 
HETATM   11  C21 UNL     1      22.735   1.843  50.443  1.00  0.00     0.098 C 
HETATM   12  N5  UNL     1      21.957   1.305  49.795  1.00  0.00    -0.192 NA
HETATM   13  C22 UNL     1      24.676   3.116  52.089  1.00  0.00     0.174 C 
ENDROOT
BRANCH   1  14
HETATM   14  C4  UNL     1      26.916   1.811  52.387  1.00  0.00     0.033 A 
HETATM   15  C3  UNL     1      26.767   0.448  52.453  1.00  0.00     0.069 A 
HETATM   16  C2  UNL     1      27.661  -0.279  53.185  1.00  0.00     0.108 A 
HETATM   17  C25 UNL     1      28.713   0.354  53.856  1.00  0.00     0.149 A 
HETATM   18  C24 UNL     1      28.842   1.734  53.774  1.00  0.00     0.047 A 
HETATM   19  F1  UNL     1      29.637  -0.335  54.604  1.00  0.00    -0.203 F 
HETATM   20  C23 UNL     1      27.940   2.434  53.041  1.00  0.00     0.032 A 
BRANCH  16  21
HETATM   21  O1  UNL     1      27.647  -1.636  53.346  1.00  0.00    -0.353 OA
HETATM   22  C1  UNL     1      27.027  -2.443  52.381  1.00  0.00     0.210 C 
ENDBRANCH  16  21
ENDBRANCH   1  14
BRANCH   4  23
HETATM   23  N2  UNL     1      25.388   6.127  49.229  1.00  0.00    -0.323 N 
HETATM   24  C8  UNL     1      25.031   7.005  50.319  1.00  0.00     0.245 C 
HETATM   25  O2  UNL     1      24.301   6.567  51.273  1.00  0.00    -0.268 OA
HETATM   26  H8  UNL     1      25.989   6.609  48.504  1.00  0.00     0.169 HD
BRANCH  24  27
HETATM   27  C9  UNL     1      25.446   8.387  50.422  1.00  0.00     0.072 C 
HETATM   28  C10 UNL     1      26.203   9.071  49.582  1.00  0.00     0.008 C 
BRANCH  28  29
HETATM   29  C11 UNL     1      26.909   8.853  48.322  1.00  0.00     0.300 C 
BRANCH  29  30
HETATM   30  N3  UNL     1      28.316   8.664  48.402  1.00  0.00     0.096 N 
HETATM   31  C12 UNL     1      28.677   7.282  48.420  1.00  0.00     0.299 C 
HETATM   32  C13 UNL     1      30.182   7.082  48.384  1.00  0.00     0.198 C 
HETATM   33  O3  UNL     1      30.832   7.911  49.285  1.00  0.00    -0.388 OA
HETATM   34  C14 UNL     1      30.485   9.247  49.182  1.00  0.00     0.198 C 
HETATM   35  C15 UNL     1      28.984   9.333  49.476  1.00  0.00     0.299 C 
ENDBRANCH  29  30
ENDBRANCH  28  29
ENDBRANCH  24  27
ENDBRANCH   4  23
TORSDOF 6
ENDMDL
MODEL 5
REMARK VINA RESULT:      -8.6      4.643      8.624
REMARK  6 active torsions:
REMARK  status: ('A' for Active; 'I' for Inactive)
REMARK    1  A    between atoms: O1_2  and  C2_3 
REMARK    2  A    between atoms: C4_5  and  N1_6 
REMARK    3  A    between atoms: C7_9  and  N2_10 
REMARK       I    between atoms: N2_10  and  C8_11 
REMARK    4  A    between atoms: C8_11  and  C9_13 
REMARK    5  A    between atoms: C10_14  and  C11_15 
REMARK    6  A    between atoms: C11_15  and  N3_16 
ROOT
HETATM    1  N1  UNL     1      22.715   1.876  51.322  1.00  0.00    -0.372 N 
HETATM    2  C5  UNL     1      21.810   0.886  50.841  1.00  0.00     0.153 C 
HETATM    3  C6  UNL     1      20.457   1.341  50.578  1.00  0.00     0.023 C 
HETATM    4  C7  UNL     1      19.497   0.721  51.230  1.00  0.00     0.041 C 
HETATM    5  C16 UNL     1      18.946  -0.235  52.157  1.00  0.00    -0.004 C 
HETATM    6  C17 UNL     1      17.523  -0.578  52.343  1.00  0.00     0.053 C 
HETATM    7  C18 UNL     1      19.606  -0.980  53.073  1.00  0.00     0.094 C 
HETATM    8  N4  UNL     1      19.953  -0.111  54.030  1.00  0.00    -0.257 NA
HETATM    9  C19 UNL     1      20.669   0.988  53.412  1.00  0.00     0.137 C 
HETATM   10  C20 UNL     1      22.009   0.918  53.295  1.00  0.00     0.057 C 
HETATM   11  C21 UNL     1      21.980  -0.328  53.938  1.00  0.00     0.098 C 
HETATM   12  N5  UNL     1      21.975  -1.345  54.469  1.00  0.00    -0.192 NA
HETATM   13  C22 UNL     1      22.064   2.198  52.631  1.00  0.00     0.174 C 
ENDROOT
BRANCH   1  14
HETATM   14  C4  UNL     1      23.893   2.440  50.786  1.00  0.00     0.033 A 
HETATM   15  C3  UNL     1      25.057   2.188  51.468  1.00  0.00     0.069 A 
HETATM   16  C2  UNL     1      26.226   2.711  50.993  1.00  0.00     0.108 A 
HETATM   17  C25 UNL     1      26.238   3.489  49.830  1.00  0.00     0.149 A 
HETATM   18  C24 UNL     1      25.047   3.729  49.158  1.00  0.00     0.047 A 
HETATM   19  F1  UNL     1      27.388   4.035  49.315  1.00  0.00    -0.203 F 
HETATM   20  C23 UNL     1      23.899   3.199  49.651  1.00  0.00     0.032 A 
BRANCH  16  21
HETATM   21  O1  UNL     1      27.461   2.551  51.556  1.00  0.00    -0.353 OA
HETATM   22  C1  UNL     1      27.566   2.112  52.884  1.00  0.00     0.210 C 
ENDBRANCH  16  21
ENDBRANCH   1  14
BRANCH   4  23
HETATM   23  N2  UNL     1      18.413   1.496  50.649  1.00  0.00    -0.323 N 
HETATM   24  C8  UNL     1      18.134   2.803  51.197  1.00  0.00     0.245 C 
HETATM   25  O2  UNL     1      18.829   3.242  52.177  1.00  0.00    -0.268 OA
HETATM   26  H8  UNL     1      17.768   1.249  49.848  1.00  0.00     0.169 HD
BRANCH  24  27
HETATM   27  C9  UNL     1      17.094   3.685  50.713  1.00  0.00     0.072 C 
HETATM   28  C10 UNL     1      16.082   4.194  51.392  1.00  0.00     0.008 C 
BRANCH  28  29
HETATM   29  C11 UNL     1      15.549   4.157  52.750  1.00  0.00     0.300 C 
BRANCH  29  30
HETATM   30  N3  UNL     1      14.175   3.816  52.889  1.00  0.00     0.096 N 
HETATM   31  C12 UNL     1      13.564   4.469  54.004  1.00  0.00     0.299 C 
HETATM   32  C13 UNL     1      12.072   4.198  54.080  1.00  0.00     0.198 C 
HETATM   33  O3  UNL     1      11.783   2.854  53.906  1.00  0.00    -0.388 OA
HETATM   34  C14 UNL     1      12.355   2.290  52.778  1.00  0.00     0.198 C 
HETATM   35  C15 UNL     1      13.872   2.419  52.945  1.00  0.00     0.299 C 
ENDBRANCH  29  30
ENDBRANCH  28  29
ENDBRANCH  24  27
ENDBRANCH   4  23
TORSDOF 6
ENDMDL
MODEL 6
REMARK VINA RESULT:      -8.6      3.856      7.650
REMARK  6 active torsions:
REMARK  status: ('A' for Active; 'I' for Inactive)
REMARK    1  A    between atoms: O1_2  and  C2_3 
REMARK    2  A    between atoms: C4_5  and  N1_6 
REMARK    3  A    between atoms: C7_9  and  N2_10 
REMARK       I    between atoms: N2_10  and  C8_11 
REMARK    4  A    between atoms: C8_11  and  C9_13 
REMARK    5  A    between atoms: C10_14  and  C11_15 
REMARK    6  A    between atoms: C11_15  and  N3_16 
ROOT
HETATM    1  N1  UNL     1      25.319   1.965  52.461  1.00  0.00    -0.372 N 
HETATM    2  C5  UNL     1      24.127   2.250  53.188  1.00  0.00     0.153 C 
HETATM    3  C6  UNL     1      22.979   1.423  52.869  1.00  0.00     0.023 C 
HETATM    4  C7  UNL     1      21.901   2.055  52.460  1.00  0.00     0.041 C 
HETATM    5  C16 UNL     1      21.114   3.206  52.094  1.00  0.00    -0.004 C 
HETATM    6  C17 UNL     1      19.665   3.246  51.818  1.00  0.00     0.053 C 
HETATM    7  C18 UNL     1      21.542   4.473  51.885  1.00  0.00     0.094 C 
HETATM    8  N4  UNL     1      22.187   4.423  50.712  1.00  0.00    -0.257 NA
HETATM    9  C19 UNL     1      23.188   3.376  50.785  1.00  0.00     0.137 C 
HETATM   10  C20 UNL     1      24.430   3.681  51.206  1.00  0.00     0.057 C 
HETATM   11  C21 UNL     1      24.035   5.020  51.340  1.00  0.00     0.098 C 
HETATM   12  N5  UNL     1      23.731   6.120  51.447  1.00  0.00    -0.192 NA
HETATM   13  C22 UNL     1      24.860   2.309  51.078  1.00  0.00     0.174 C 
ENDROOT
BRANCH   1  14
HETATM   14  C4  UNL     1      26.591   1.494  52.852  1.00  0.00     0.033 A 
HETATM   15  C3  UNL     1      26.779   0.134  52.815  1.00  0.00     0.069 A 
HETATM   16  C2  UNL     1      27.990  -0.375  53.185  1.00  0.00     0.108 A 
HETATM   17  C25 UNL     1      29.025   0.474  53.594  1.00  0.00     0.149 A 
HETATM   18  C24 UNL     1      28.811   1.845  53.622  1.00  0.00     0.047 A 
HETATM   19  F1  UNL     1      30.260   0.008  53.973  1.00  0.00    -0.203 F 
HETATM   20  C23 UNL     1      27.598   2.326  53.251  1.00  0.00     0.032 A 
BRANCH  16  21
HETATM   21  O1  UNL     1      28.330  -1.699  53.202  1.00  0.00    -0.353 OA
HETATM   22  C1  UNL     1      27.446  -2.649  52.669  1.00  0.00     0.210 C 
ENDBRANCH  16  21
ENDBRANCH   1  14
BRANCH   4  23
HETATM   23  N2  UNL     1      21.094   0.858  52.289  1.00  0.00    -0.323 N 
HETATM   24  C8  UNL     1      20.409   0.322  53.442  1.00  0.00     0.245 C 
HETATM   25  O2  UNL     1      20.532   0.897  54.577  1.00  0.00    -0.268 OA
HETATM   26  H8  UNL     1      20.916   0.290  51.414  1.00  0.00     0.169 HD
BRANCH  24  27
HETATM   27  C9  UNL     1      19.567  -0.854  53.415  1.00  0.00     0.072 C 
HETATM   28  C10 UNL     1      18.479  -1.056  52.694  1.00  0.00     0.008 C 
BRANCH  28  29
HETATM   29  C11 UNL     1      17.672  -0.341  51.710  1.00  0.00     0.300 C 
BRANCH  29  30
HETATM   30  N3  UNL     1      16.580   0.420  52.211  1.00  0.00     0.096 N 
HETATM   31  C12 UNL     1      15.451  -0.396  52.529  1.00  0.00     0.299 C 
HETATM   32  C13 UNL     1      14.331   0.401  53.175  1.00  0.00     0.198 C 
HETATM   33  O3  UNL     1      14.078   1.579  52.491  1.00  0.00    -0.388 OA
HETATM   34  C14 UNL     1      15.201   2.356  52.261  1.00  0.00     0.198 C 
HETATM   35  C15 UNL     1      16.146   1.515  51.398  1.00  0.00     0.299 C 
ENDBRANCH  29  30
ENDBRANCH  28  29
ENDBRANCH  24  27
ENDBRANCH   4  23
TORSDOF 6
ENDMDL
MODEL 7
REMARK VINA RESULT:      -8.3      3.955      7.586
REMARK  6 active torsions:
REMARK  status: ('A' for Active; 'I' for Inactive)
REMARK    1  A    between atoms: O1_2  and  C2_3 
REMARK    2  A    between atoms: C4_5  and  N1_6 
REMARK    3  A    between atoms: C7_9  and  N2_10 
REMARK       I    between atoms: N2_10  and  C8_11 
REMARK    4  A    between atoms: C8_11  and  C9_13 
REMARK    5  A    between atoms: C10_14  and  C11_15 
REMARK    6  A    between atoms: C11_15  and  N3_16 
ROOT
HETATM    1  N1  UNL     1      23.938   3.098  50.649  1.00  0.00    -0.372 N 
HETATM    2  C5  UNL     1      23.083   2.059  50.178  1.00  0.00     0.153 C 
HETATM    3  C6  UNL     1      21.668   2.377  50.132  1.00  0.00     0.023 C 
HETATM    4  C7  UNL     1      20.872   1.592  50.826  1.00  0.00     0.041 C 
HETATM    5  C16 UNL     1      20.549   0.497  51.705  1.00  0.00    -0.004 C 
HETATM    6  C17 UNL     1      19.207  -0.025  52.026  1.00  0.00     0.053 C 
HETATM    7  C18 UNL     1      21.398  -0.249  52.449  1.00  0.00     0.094 C 
HETATM    8  N4  UNL     1      21.778   0.562  53.445  1.00  0.00    -0.257 NA
HETATM    9  C19 UNL     1      22.289   1.789  52.865  1.00  0.00     0.137 C 
HETATM   10  C20 UNL     1      23.602   1.886  52.579  1.00  0.00     0.057 C 
HETATM   11  C21 UNL     1      23.786   0.590  53.084  1.00  0.00     0.098 C 
HETATM   12  N5  UNL     1      23.957  -0.465  53.500  1.00  0.00    -0.192 NA
HETATM   13  C22 UNL     1      23.436   3.220  52.054  1.00  0.00     0.174 C 
ENDROOT
BRANCH   1  14
HETATM   14  C4  UNL     1      24.970   3.841  50.037  1.00  0.00     0.033 A 
HETATM   15  C3  UNL     1      24.716   5.172  49.814  1.00  0.00     0.069 A 
HETATM   16  C2  UNL     1      25.680   5.937  49.223  1.00  0.00     0.108 A 
HETATM   17  C25 UNL     1      26.907   5.376  48.851  1.00  0.00     0.149 A 
HETATM   18  C24 UNL     1      27.139   4.028  49.087  1.00  0.00     0.047 A 
HETATM   19  F1  UNL     1      27.906   6.106  48.256  1.00  0.00    -0.203 F 
HETATM   20  C23 UNL     1      26.165   3.288  49.675  1.00  0.00     0.032 A 
BRANCH  16  21
HETATM   21  O1  UNL     1      25.580   7.270  48.937  1.00  0.00    -0.353 OA
HETATM   22  C1  UNL     1      25.992   8.216  49.886  1.00  0.00     0.210 C 
ENDBRANCH  16  21
ENDBRANCH   1  14
BRANCH   4  23
HETATM   23  N2  UNL     1      19.646   2.287  50.467  1.00  0.00    -0.323 N 
HETATM   24  C8  UNL     1      19.196   3.365  51.316  1.00  0.00     0.245 C 
HETATM   25  O2  UNL     1      19.869   3.676  52.357  1.00  0.00    -0.268 OA
HETATM   26  H8  UNL     1      19.002   2.127  49.643  1.00  0.00     0.169 HD
BRANCH  24  27
HETATM   27  C9  UNL     1      18.003   4.148  51.075  1.00  0.00     0.072 C 
HETATM   28  C10 UNL     1      16.748   3.802  51.298  1.00  0.00     0.008 C 
BRANCH  28  29
HETATM   29  C11 UNL     1      16.006   2.655  51.814  1.00  0.00     0.300 C 
BRANCH  29  30
HETATM   30  N3  UNL     1      14.726   2.921  52.373  1.00  0.00     0.096 N 
HETATM   31  C12 UNL     1      14.742   4.045  53.255  1.00  0.00     0.299 C 
HETATM   32  C13 UNL     1      13.354   4.400  53.757  1.00  0.00     0.198 C 
HETATM   33  O3  UNL     1      12.659   3.280  54.184  1.00  0.00    -0.388 OA
HETATM   34  C14 UNL     1      12.628   2.245  53.265  1.00  0.00     0.198 C 
HETATM   35  C15 UNL     1      14.082   1.825  53.029  1.00  0.00     0.299 C 
ENDBRANCH  29  30
ENDBRANCH  28  29
ENDBRANCH  24  27
ENDBRANCH   4  23
TORSDOF 6
ENDMDL
MODEL 8
REMARK VINA RESULT:      -8.3      2.603      6.559
REMARK  6 active torsions:
REMARK  status: ('A' for Active; 'I' for Inactive)
REMARK    1  A    between atoms: O1_2  and  C2_3 
REMARK    2  A    between atoms: C4_5  and  N1_6 
REMARK    3  A    between atoms: C7_9  and  N2_10 
REMARK       I    between atoms: N2_10  and  C8_11 
REMARK    4  A    between atoms: C8_11  and  C9_13 
REMARK    5  A    between atoms: C10_14  and  C11_15 
REMARK    6  A    between atoms: C11_15  and  N3_16 
ROOT
HETATM    1  N1  UNL     1      24.125   2.518  51.617  1.00  0.00    -0.372 N 
HETATM    2  C5  UNL     1      23.403   2.510  50.388  1.00  0.00     0.153 C 
HETATM    3  C6  UNL     1      23.721   3.580  49.461  1.00  0.00     0.023 C 
HETATM    4  C7  UNL     1      22.719   4.349  49.093  1.00  0.00     0.041 C 
HETATM    5  C16 UNL     1      21.352   4.807  49.079  1.00  0.00    -0.004 C 
HETATM    6  C17 UNL     1      20.754   5.804  48.172  1.00  0.00     0.053 C 
HETATM    7  C18 UNL     1      20.349   4.453  49.915  1.00  0.00     0.094 C 
HETATM    8  N4  UNL     1      20.641   5.063  51.071  1.00  0.00    -0.257 NA
HETATM    9  C19 UNL     1      21.994   4.703  51.450  1.00  0.00     0.137 C 
HETATM   10  C20 UNL     1      22.194   3.620  52.224  1.00  0.00     0.057 C 
HETATM   11  C21 UNL     1      20.807   3.418  52.267  1.00  0.00     0.098 C 
HETATM   12  N5  UNL     1      19.675   3.244  52.319  1.00  0.00    -0.192 NA
HETATM   13  C22 UNL     1      23.625   3.806  52.194  1.00  0.00     0.174 C 
ENDROOT
BRANCH   1  14
HETATM   14  C4  UNL     1      25.052   1.622  52.190  1.00  0.00     0.033 A 
HETATM   15  C3  UNL     1      26.359   2.039  52.237  1.00  0.00     0.069 A 
HETATM   16  C2  UNL     1      27.298   1.210  52.780  1.00  0.00     0.108 A 
HETATM   17  C25 UNL     1      26.935  -0.045  53.282  1.00  0.00     0.149 A 
HETATM   18  C24 UNL     1      25.607  -0.445  53.223  1.00  0.00     0.047 A 
HETATM   19  F1  UNL     1      27.843  -0.912  53.838  1.00  0.00    -0.203 F 
HETATM   20  C23 UNL     1      24.693   0.397  52.677  1.00  0.00     0.032 A 
BRANCH  16  21
HETATM   21  O1  UNL     1      28.632   1.481  52.899  1.00  0.00    -0.353 OA
HETATM   22  C1  UNL     1      29.076   2.346  53.910  1.00  0.00     0.210 C 
ENDBRANCH  16  21
ENDBRANCH   1  14
BRANCH   4  23
HETATM   23  N2  UNL     1      23.511   5.199  48.219  1.00  0.00    -0.323 N 
HETATM   24  C8  UNL     1      24.250   6.290  48.811  1.00  0.00     0.245 C 
HETATM   25  O2  UNL     1      24.186   6.490  50.072  1.00  0.00    -0.268 OA
HETATM   26  H8  UNL     1      23.645   5.143  47.171  1.00  0.00     0.169 HD
BRANCH  24  27
HETATM   27  C9  UNL     1      25.085   7.207  48.066  1.00  0.00     0.072 C 
HETATM   28  C10 UNL     1      26.396   7.163  47.905  1.00  0.00     0.008 C 
BRANCH  28  29
HETATM   29  C11 UNL     1      27.519   6.323  48.314  1.00  0.00     0.300 C 
BRANCH  29  30
HETATM   30  N3  UNL     1      28.816   6.760  47.929  1.00  0.00     0.096 N 
HETATM   31  C12 UNL     1      29.813   5.761  48.154  1.00  0.00     0.299 C 
HETATM   32  C13 UNL     1      31.176   6.184  47.633  1.00  0.00     0.198 C 
HETATM   33  O3  UNL     1      31.491   7.480  48.009  1.00  0.00    -0.388 OA
HETATM   34  C14 UNL     1      30.512   8.413  47.714  1.00  0.00     0.198 C 
HETATM   35  C15 UNL     1      29.261   7.996  48.494  1.00  0.00     0.299 C 
ENDBRANCH  29  30
ENDBRANCH  28  29
ENDBRANCH  24  27
ENDBRANCH   4  23
TORSDOF 6
ENDMDL
MODEL 9
REMARK VINA RESULT:      -8.1      2.400      3.458
REMARK  6 active torsions:
REMARK  status: ('A' for Active; 'I' for Inactive)
REMARK    1  A    between atoms: O1_2  and  C2_3 
REMARK    2  A    between atoms: C4_5  and  N1_6 
REMARK    3  A    between atoms: C7_9  and  N2_10 
REMARK       I    between atoms: N2_10  and  C8_11 
REMARK    4  A    between atoms: C8_11  and  C9_13 
REMARK    5  A    between atoms: C10_14  and  C11_15 
REMARK    6  A    between atoms: C11_15  and  N3_16 
ROOT
HETATM    1  N1  UNL     1      26.893   7.792  48.977  1.00  0.00    -0.372 N 
HETATM    2  C5  UNL     1      25.954   8.333  49.904  1.00  0.00     0.153 C 
HETATM    3  C6  UNL     1      25.340   7.380  50.809  1.00  0.00     0.023 C 
HETATM    4  C7  UNL     1      24.027   7.312  50.780  1.00  0.00     0.041 C 
HETATM    5  C16 UNL     1      22.705   7.656  50.320  1.00  0.00    -0.004 C 
HETATM    6  C17 UNL     1      21.418   7.248  50.915  1.00  0.00     0.053 C 
HETATM    7  C18 UNL     1      22.367   8.384  49.230  1.00  0.00     0.094 C 
HETATM    8  N4  UNL     1      22.621   7.576  48.192  1.00  0.00    -0.257 NA
HETATM    9  C19 UNL     1      23.991   7.113  48.298  1.00  0.00     0.137 C 
HETATM   10  C20 UNL     1      24.972   7.820  47.704  1.00  0.00     0.057 C 
HETATM   11  C21 UNL     1      24.008   8.721  47.229  1.00  0.00     0.098 C 
HETATM   12  N5  UNL     1      23.232   9.463  46.825  1.00  0.00    -0.192 NA
HETATM   13  C22 UNL     1      25.982   6.907  48.183  1.00  0.00     0.174 C 
ENDROOT
BRANCH   1  14
HETATM   14  C4  UNL     1      28.280   7.981  48.797  1.00  0.00     0.033 A 
HETATM   15  C3  UNL     1      28.811   9.141  49.304  1.00  0.00     0.069 A 
HETATM   16  C2  UNL     1      30.148   9.374  49.157  1.00  0.00     0.108 A 
HETATM   17  C25 UNL     1      30.965   8.447  48.500  1.00  0.00     0.149 A 
HETATM   18  C24 UNL     1      30.404   7.282  47.996  1.00  0.00     0.047 A 
HETATM   19  F1  UNL     1      32.314   8.638  48.328  1.00  0.00    -0.203 F 
HETATM   20  C23 UNL     1      29.073   7.073  48.154  1.00  0.00     0.032 A 
BRANCH  16  21
HETATM   21  O1  UNL     1      30.822  10.476  49.604  1.00  0.00    -0.353 OA
HETATM   22  C1  UNL     1      30.777  11.665  48.862  1.00  0.00     0.210 C 
ENDBRANCH  16  21
ENDBRANCH   1  14
BRANCH   4  23
HETATM   23  N2  UNL     1      23.918   6.285  51.804  1.00  0.00    -0.323 N 
HETATM   24  C8  UNL     1      23.926   4.902  51.389  1.00  0.00     0.245 C 
HETATM   25  O2  UNL     1      24.016   4.612  50.147  1.00  0.00    -0.268 OA
HETATM   26  H8  UNL     1      23.836   6.391  52.853  1.00  0.00     0.169 HD
BRANCH  24  27
HETATM   27  C9  UNL     1      23.836   3.779  52.297  1.00  0.00     0.072 C 
HETATM   28  C10 UNL     1      24.716   2.811  52.480  1.00  0.00     0.008 C 
BRANCH  28  29
HETATM   29  C11 UNL     1      26.023   2.411  51.965  1.00  0.00     0.300 C 
BRANCH  29  30
HETATM   30  N3  UNL     1      26.689   1.362  52.657  1.00  0.00     0.096 N 
HETATM   31  C12 UNL     1      26.407   0.079  52.097  1.00  0.00     0.299 C 
HETATM   32  C13 UNL     1      27.210  -1.026  52.761  1.00  0.00     0.198 C 
HETATM   33  O3  UNL     1      27.181  -0.925  54.142  1.00  0.00    -0.388 OA
HETATM   34  C14 UNL     1      27.519   0.326  54.630  1.00  0.00     0.198 C 
HETATM   35  C15 UNL     1      26.483   1.308  54.072  1.00  0.00     0.299 C 
ENDBRANCH  29  30
ENDBRANCH  28  29
ENDBRANCH  24  27
ENDBRANCH   4  23
TORSDOF 6
ENDMDL
