MODEL 1
REMARK VINA RESULT:      -9.8      0.000      0.000
REMARK  4 active torsions:
REMARK  status: ('A' for Active; 'I' for Inactive)
REMARK    1  A    between atoms: C11_15  and  N4_16 
REMARK       I    between atoms: N4_16  and  C12_17 
REMARK    2  A    between atoms: C12_17  and  C13_19 
REMARK    3  A    between atoms: C14_20  and  N5_21 
REMARK    4  A    between atoms: N5_21  and  C15_22 
ROOT
HETATM    1  C1  UNL     1      23.802   8.095  45.803  1.00  0.00     0.039 C 
HETATM    2  C2  UNL     1      23.635   7.319  47.017  1.00  0.00     0.007 C 
HETATM    3  C3  UNL     1      24.748   7.701  47.649  1.00  0.00     0.081 C 
HETATM    4  O1  UNL     1      26.093   8.447  47.903  1.00  0.00    -0.290 OA
HETATM    5  C4  UNL     1      27.194   7.403  47.934  1.00  0.00     0.200 A 
HETATM    6  N1  UNL     1      28.439   6.797  47.690  1.00  0.00    -0.215 NA
HETATM    7  C5  UNL     1      28.612   5.478  48.187  1.00  0.00     0.236 A 
HETATM    8  N2  UNL     1      27.899   4.458  48.920  1.00  0.00    -0.241 NA
HETATM    9  C6  UNL     1      26.603   4.915  49.251  1.00  0.00     0.093 A 
HETATM   10  C7  UNL     1      26.747   6.181  48.651  1.00  0.00     0.109 A 
HETATM   11  N3  UNL     1      26.300   6.994  50.221  1.00  0.00    -0.380 N 
HETATM   12  C8  UNL     1      24.836   7.415  50.269  1.00  0.00     0.161 C 
HETATM   13  C9  UNL     1      24.483   6.806  48.879  1.00  0.00    -0.008 C 
HETATM   14  C10 UNL     1      24.207   5.458  48.729  1.00  0.00     0.016 C 
HETATM   15  C11 UNL     1      25.142   4.488  49.602  1.00  0.00     0.163 C 
HETATM   16  H6  UNL     1      26.442   7.436  51.297  1.00  0.00     0.160 HD
ENDROOT
BRANCH  15  17
HETATM   17  N4  UNL     1      24.858   4.546  50.939  1.00  0.00    -0.344 N 
HETATM   18  C12 UNL     1      24.841   3.216  51.499  1.00  0.00     0.243 C 
HETATM   19  O2  UNL     1      25.068   2.166  50.790  1.00  0.00    -0.269 OA
HETATM   20  H11 UNL     1      24.660   5.124  51.775  1.00  0.00     0.163 HD
BRANCH  18  21
HETATM   21  C13 UNL     1      24.577   2.816  52.904  1.00  0.00     0.091 C 
HETATM   22  C14 UNL     1      25.505   2.498  53.788  1.00  0.00     0.094 C 
BRANCH  22  23
HETATM   23  N5  UNL     1      26.873   2.529  53.398  1.00  0.00    -0.366 N 
HETATM   24  H14 UNL     1      27.418   3.375  53.102  1.00  0.00     0.165 HD
BRANCH  23  25
HETATM   25  C15 UNL     1      27.601   1.285  53.404  1.00  0.00     0.033 A 
HETATM   26  C16 UNL     1      28.891   1.181  53.884  1.00  0.00     0.032 A 
HETATM   27  C17 UNL     1      29.557  -0.039  53.871  1.00  0.00     0.046 A 
HETATM   28  C18 UNL     1      28.936  -1.185  53.371  1.00  0.00     0.138 A 
HETATM   29  F1  UNL     1      29.635  -2.348  53.383  1.00  0.00    -0.204 F 
HETATM   30  C19 UNL     1      27.657  -1.104  52.888  1.00  0.00     0.074 A 
HETATM   31 CL1  UNL     1      26.880  -2.543  52.262  1.00  0.00    -0.081 Cl
HETATM   32  C20 UNL     1      27.038   0.123  52.922  1.00  0.00     0.056 A 
ENDBRANCH  23  25
ENDBRANCH  22  23
ENDBRANCH  18  21
ENDBRANCH  15  17
TORSDOF 4
ENDMDL
MODEL 2
REMARK VINA RESULT:      -9.2      3.346      4.201
REMARK  4 active torsions:
REMARK  status: ('A' for Active; 'I' for Inactive)
REMARK    1  A    between atoms: C11_15  and  N4_16 
REMARK       I    between atoms: N4_16  and  C12_17 
REMARK    2  A    between atoms: C12_17  and  C13_19 
REMARK    3  A    between atoms: C14_20  and  N5_21 
REMARK    4  A    between atoms: N5_21  and  C15_22 
ROOT
HETATM    1  C1  UNL     1      21.943   4.793  47.035  1.00  0.00     0.039 C 
HETATM    2  C2  UNL     1      22.507   4.196  48.230  1.00  0.00     0.007 C 
HETATM    3  C3  UNL     1      23.249   5.230  48.636  1.00  0.00     0.081 C 
HETATM    4  O1  UNL     1      23.879   6.656  48.636  1.00  0.00    -0.290 OA
HETATM    5  C4  UNL     1      25.371   6.494  48.408  1.00  0.00     0.200 A 
HETATM    6  N1  UNL     1      26.657   6.739  47.895  1.00  0.00    -0.215 NA
HETATM    7  C5  UNL     1      27.684   5.847  48.302  1.00  0.00     0.236 A 
HETATM    8  N2  UNL     1      27.887   4.681  49.129  1.00  0.00    -0.241 NA
HETATM    9  C6  UNL     1      26.668   4.295  49.733  1.00  0.00     0.093 A 
HETATM   10  C7  UNL     1      25.900   5.327  49.159  1.00  0.00     0.109 A 
HETATM   11  N3  UNL     1      25.345   5.856  50.813  1.00  0.00    -0.380 N 
HETATM   12  C8  UNL     1      23.967   5.313  51.172  1.00  0.00     0.161 C 
HETATM   13  C9  UNL     1      23.812   4.482  49.863  1.00  0.00    -0.008 C 
HETATM   14  C10 UNL     1      24.392   3.233  49.728  1.00  0.00     0.016 C 
HETATM   15  C11 UNL     1      25.864   3.112  50.359  1.00  0.00     0.163 C 
HETATM   16  H6  UNL     1      25.380   6.397  51.852  1.00  0.00     0.160 HD
ENDROOT
BRANCH  15  17
HETATM   17  N4  UNL     1      25.852   3.118  51.727  1.00  0.00    -0.344 N 
HETATM   18  C12 UNL     1      26.432   1.897  52.232  1.00  0.00     0.243 C 
HETATM   19  O2  UNL     1      26.878   0.973  51.454  1.00  0.00    -0.269 OA
HETATM   20  H11 UNL     1      25.628   3.618  52.605  1.00  0.00     0.163 HD
BRANCH  18  21
HETATM   21  C13 UNL     1      26.618   1.487  53.646  1.00  0.00     0.091 C 
HETATM   22  C14 UNL     1      26.085   0.412  54.200  1.00  0.00     0.094 C 
BRANCH  22  23
HETATM   23  N5  UNL     1      25.265  -0.440  53.409  1.00  0.00    -0.366 N 
HETATM   24  H14 UNL     1      25.593  -1.149  52.709  1.00  0.00     0.165 HD
BRANCH  23  25
HETATM   25  C15 UNL     1      23.836  -0.334  53.570  1.00  0.00     0.033 A 
HETATM   26  C16 UNL     1      23.150  -0.999  54.565  1.00  0.00     0.032 A 
HETATM   27  C17 UNL     1      21.770  -0.869  54.685  1.00  0.00     0.046 A 
HETATM   28  C18 UNL     1      21.051  -0.064  53.800  1.00  0.00     0.138 A 
HETATM   29  F1  UNL     1      19.707   0.025  53.964  1.00  0.00    -0.204 F 
HETATM   30  C19 UNL     1      21.712   0.603  52.804  1.00  0.00     0.074 A 
HETATM   31 CL1  UNL     1      20.808   1.613  51.695  1.00  0.00    -0.081 Cl
HETATM   32  C20 UNL     1      23.075   0.445  52.725  1.00  0.00     0.056 A 
ENDBRANCH  23  25
ENDBRANCH  22  23
ENDBRANCH  18  21
ENDBRANCH  15  17
TORSDOF 4
ENDMDL
MODEL 3
REMARK VINA RESULT:      -8.9      3.883      8.021
REMARK  4 active torsions:
REMARK  status: ('A' for Active; 'I' for Inactive)
REMARK    1  A    between atoms: C11_15  and  N4_16 
REMARK       I    between atoms: N4_16  and  C12_17 
REMARK    2  A    between atoms: C12_17  and  C13_19 
REMARK    3  A    between atoms: C14_20  and  N5_21 
REMARK    4  A    between atoms: N5_21  and  C15_22 
ROOT
HETATM    1  C1  UNL     1      27.083  -1.940  52.700  1.00  0.00     0.039 C 
HETATM    2  C2  UNL     1      27.110  -0.527  52.374  1.00  0.00     0.007 C 
HETATM    3  C3  UNL     1      26.010  -0.152  53.032  1.00  0.00     0.081 C 
HETATM    4  O1  UNL     1      24.735  -0.273  53.921  1.00  0.00    -0.290 OA
HETATM    5  C4  UNL     1      23.535   0.017  53.038  1.00  0.00     0.200 A 
HETATM    6  N1  UNL     1      22.250  -0.111  52.482  1.00  0.00    -0.215 NA
HETATM    7  C5  UNL     1      21.921   0.783  51.430  1.00  0.00     0.236 A 
HETATM    8  N2  UNL     1      22.492   1.870  50.669  1.00  0.00    -0.241 NA
HETATM    9  C6  UNL     1      23.808   2.134  51.110  1.00  0.00     0.093 A 
HETATM   10  C7  UNL     1      23.822   1.135  52.103  1.00  0.00     0.109 A 
HETATM   11  N3  UNL     1      24.267   2.373  53.366  1.00  0.00    -0.380 N 
HETATM   12  C8  UNL     1      25.762   2.397  53.664  1.00  0.00     0.161 C 
HETATM   13  C9  UNL     1      26.123   1.323  52.593  1.00  0.00    -0.008 C 
HETATM   14  C10 UNL     1      26.270   1.657  51.258  1.00  0.00     0.016 C 
HETATM   15  C11 UNL     1      25.199   2.725  50.717  1.00  0.00     0.163 C 
HETATM   16  H6  UNL     1      24.116   3.223  54.158  1.00  0.00     0.160 HD
ENDROOT
BRANCH  15  17
HETATM   17  N4  UNL     1      25.420   3.984  51.206  1.00  0.00    -0.344 N 
HETATM   18  C12 UNL     1      25.119   4.967  50.193  1.00  0.00     0.243 C 
HETATM   19  O2  UNL     1      24.706   4.642  49.018  1.00  0.00    -0.269 OA
HETATM   20  H11 UNL     1      25.696   4.586  52.002  1.00  0.00     0.163 HD
BRANCH  18  21
HETATM   21  C13 UNL     1      25.217   6.444  50.292  1.00  0.00     0.091 C 
HETATM   22  C14 UNL     1      25.899   7.216  49.465  1.00  0.00     0.094 C 
BRANCH  22  23
HETATM   23  N5  UNL     1      26.607   6.618  48.385  1.00  0.00    -0.366 N 
HETATM   24  H14 UNL     1      26.187   6.120  47.564  1.00  0.00     0.165 HD
BRANCH  23  25
HETATM   25  C15 UNL     1      28.047   6.692  48.403  1.00  0.00     0.033 A 
HETATM   26  C16 UNL     1      28.850   5.586  48.217  1.00  0.00     0.032 A 
HETATM   27  C17 UNL     1      30.236   5.703  48.242  1.00  0.00     0.046 A 
HETATM   28  C18 UNL     1      30.843   6.942  48.457  1.00  0.00     0.138 A 
HETATM   29  F1  UNL     1      32.199   6.996  48.471  1.00  0.00    -0.204 F 
HETATM   30  C19 UNL     1      30.064   8.052  48.645  1.00  0.00     0.074 A 
HETATM   31 CL1  UNL     1      30.828   9.605  48.913  1.00  0.00    -0.081 Cl
HETATM   32  C20 UNL     1      28.700   7.888  48.611  1.00  0.00     0.056 A 
ENDBRANCH  23  25
ENDBRANCH  22  23
ENDBRANCH  18  21
ENDBRANCH  15  17
TORSDOF 4
ENDMDL
MODEL 4
REMARK VINA RESULT:      -8.7      4.195      6.775
REMARK  4 active torsions:
REMARK  status: ('A' for Active; 'I' for Inactive)
REMARK    1  A    between atoms: C11_15  and  N4_16 
REMARK       I    between atoms: N4_16  and  C12_17 
REMARK    2  A    between atoms: C12_17  and  C13_19 
REMARK    3  A    between atoms: C14_20  and  N5_21 
REMARK    4  A    between atoms: N5_21  and  C15_22 
ROOT
HETATM    1  C1  UNL     1      17.164   3.226  51.616  1.00  0.00     0.039 C 
HETATM    2  C2  UNL     1      18.589   3.235  51.342  1.00  0.00     0.007 C 
HETATM    3  C3  UNL     1      18.778   1.917  51.238  1.00  0.00     0.081 C 
HETATM    4  O1  UNL     1      18.437   0.395  51.224  1.00  0.00    -0.290 OA
HETATM    5  C4  UNL     1      19.138  -0.239  52.412  1.00  0.00     0.200 A 
HETATM    6  N1  UNL     1      19.336  -1.057  53.538  1.00  0.00    -0.215 NA
HETATM    7  C5  UNL     1      20.585  -0.933  54.201  1.00  0.00     0.236 A 
HETATM    8  N2  UNL     1      21.827  -0.201  54.115  1.00  0.00    -0.241 NA
HETATM    9  C6  UNL     1      21.795   0.683  53.013  1.00  0.00     0.093 A 
HETATM   10  C7  UNL     1      20.497   0.329  52.593  1.00  0.00     0.109 A 
HETATM   11  N3  UNL     1      21.126  -0.061  50.926  1.00  0.00    -0.380 N 
HETATM   12  C8  UNL     1      20.912   1.077  49.935  1.00  0.00     0.161 C 
HETATM   13  C9  UNL     1      20.295   2.048  50.987  1.00  0.00    -0.008 C 
HETATM   14  C10 UNL     1      21.094   2.791  51.839  1.00  0.00     0.016 C 
HETATM   15  C11 UNL     1      22.372   2.002  52.408  1.00  0.00     0.163 C 
HETATM   16  H6  UNL     1      21.625  -0.687  50.070  1.00  0.00     0.160 HD
ENDROOT
BRANCH  15  17
HETATM   17  N4  UNL     1      23.331   1.796  51.454  1.00  0.00    -0.344 N 
HETATM   18  C12 UNL     1      24.324   2.842  51.517  1.00  0.00     0.243 C 
HETATM   19  O2  UNL     1      24.260   3.802  52.372  1.00  0.00    -0.269 OA
HETATM   20  H11 UNL     1      23.702   1.206  50.689  1.00  0.00     0.163 HD
BRANCH  18  21
HETATM   21  C13 UNL     1      25.532   3.011  50.672  1.00  0.00     0.091 C 
HETATM   22  C14 UNL     1      26.777   2.920  51.104  1.00  0.00     0.094 C 
BRANCH  22  23
HETATM   23  N5  UNL     1      27.015   2.640  52.478  1.00  0.00    -0.366 N 
HETATM   24  H14 UNL     1      26.746   3.243  53.293  1.00  0.00     0.165 HD
BRANCH  23  25
HETATM   25  C15 UNL     1      27.691   1.410  52.806  1.00  0.00     0.033 A 
HETATM   26  C16 UNL     1      28.923   1.382  53.426  1.00  0.00     0.032 A 
HETATM   27  C17 UNL     1      29.540   0.172  53.724  1.00  0.00     0.046 A 
HETATM   28  C18 UNL     1      28.927  -1.040  53.403  1.00  0.00     0.138 A 
HETATM   29  F1  UNL     1      29.575  -2.189  53.717  1.00  0.00    -0.204 F 
HETATM   30  C19 UNL     1      27.704  -1.035  52.787  1.00  0.00     0.074 A 
HETATM   31 CL1  UNL     1      26.934  -2.556  52.385  1.00  0.00    -0.081 Cl
HETATM   32  C20 UNL     1      27.132   0.185  52.512  1.00  0.00     0.056 A 
ENDBRANCH  23  25
ENDBRANCH  22  23
ENDBRANCH  18  21
ENDBRANCH  15  17
TORSDOF 4
ENDMDL
MODEL 5
REMARK VINA RESULT:      -8.5      4.319      8.441
REMARK  4 active torsions:
REMARK  status: ('A' for Active; 'I' for Inactive)
REMARK    1  A    between atoms: C11_15  and  N4_16 
REMARK       I    between atoms: N4_16  and  C12_17 
REMARK    2  A    between atoms: C12_17  and  C13_19 
REMARK    3  A    between atoms: C14_20  and  N5_21 
REMARK    4  A    between atoms: N5_21  and  C15_22 
ROOT
HETATM    1  C1  UNL     1      26.866  -1.878  52.636  1.00  0.00     0.039 C 
HETATM    2  C2  UNL     1      26.941  -0.461  52.336  1.00  0.00     0.007 C 
HETATM    3  C3  UNL     1      25.810  -0.073  52.932  1.00  0.00     0.081 C 
HETATM    4  O1  UNL     1      24.481  -0.182  53.740  1.00  0.00    -0.290 OA
HETATM    5  C4  UNL     1      23.343   0.146  52.790  1.00  0.00     0.200 A 
HETATM    6  N1  UNL     1      22.093   0.054  52.155  1.00  0.00    -0.215 NA
HETATM    7  C5  UNL     1      21.847   0.971  51.099  1.00  0.00     0.236 A 
HETATM    8  N2  UNL     1      22.484   2.058  50.393  1.00  0.00    -0.241 NA
HETATM    9  C6  UNL     1      23.776   2.287  50.918  1.00  0.00     0.093 A 
HETATM   10  C7  UNL     1      23.708   1.273  51.893  1.00  0.00     0.109 A 
HETATM   11  N3  UNL     1      24.100   2.481  53.201  1.00  0.00    -0.380 N 
HETATM   12  C8  UNL     1      25.574   2.470  53.590  1.00  0.00     0.161 C 
HETATM   13  C9  UNL     1      25.978   1.406  52.525  1.00  0.00    -0.008 C 
HETATM   14  C10 UNL     1      26.214   1.757  51.207  1.00  0.00     0.016 C 
HETATM   15  C11 UNL     1      25.200   2.855  50.621  1.00  0.00     0.163 C 
HETATM   16  H6  UNL     1      23.917   3.322  53.996  1.00  0.00     0.160 HD
ENDROOT
BRANCH  15  17
HETATM   17  N4  UNL     1      25.415   4.102  51.143  1.00  0.00    -0.344 N 
HETATM   18  C12 UNL     1      25.104   5.110  50.158  1.00  0.00     0.243 C 
HETATM   19  O2  UNL     1      24.688   4.815  48.977  1.00  0.00    -0.269 OA
HETATM   20  H11 UNL     1      25.690   4.683  51.954  1.00  0.00     0.163 HD
BRANCH  18  21
HETATM   21  C13 UNL     1      25.193   6.585  50.297  1.00  0.00     0.091 C 
HETATM   22  C14 UNL     1      24.336   7.336  50.966  1.00  0.00     0.094 C 
BRANCH  22  23
HETATM   23  N5  UNL     1      23.231   6.717  51.614  1.00  0.00    -0.366 N 
HETATM   24  H14 UNL     1      23.221   6.317  52.583  1.00  0.00     0.165 HD
BRANCH  23  25
HETATM   25  C15 UNL     1      21.993   6.620  50.882  1.00  0.00     0.033 A 
HETATM   26  C16 UNL     1      21.420   7.701  50.244  1.00  0.00     0.032 A 
HETATM   27  C17 UNL     1      20.223   7.564  49.550  1.00  0.00     0.046 A 
HETATM   28  C18 UNL     1      19.575   6.329  49.484  1.00  0.00     0.138 A 
HETATM   29  F1  UNL     1      18.410   6.254  48.792  1.00  0.00    -0.204 F 
HETATM   30  C19 UNL     1      20.126   5.243  50.111  1.00  0.00     0.074 A 
HETATM   31 CL1  UNL     1      19.312   3.695  50.026  1.00  0.00    -0.081 Cl
HETATM   32  C20 UNL     1      21.310   5.427  50.784  1.00  0.00     0.056 A 
ENDBRANCH  23  25
ENDBRANCH  22  23
ENDBRANCH  18  21
ENDBRANCH  15  17
TORSDOF 4
ENDMDL
MODEL 6
REMARK VINA RESULT:      -8.4      1.784      1.998
REMARK  4 active torsions:
REMARK  status: ('A' for Active; 'I' for Inactive)
REMARK    1  A    between atoms: C11_15  and  N4_16 
REMARK       I    between atoms: N4_16  and  C12_17 
REMARK    2  A    between atoms: C12_17  and  C13_19 
REMARK    3  A    between atoms: C14_20  and  N5_21 
REMARK    4  A    between atoms: N5_21  and  C15_22 
ROOT
HETATM    1  C1  UNL     1      25.239   9.614  45.525  1.00  0.00     0.039 C 
HETATM    2  C2  UNL     1      24.778   8.811  46.641  1.00  0.00     0.007 C 
HETATM    3  C3  UNL     1      25.880   8.867  47.394  1.00  0.00     0.081 C 
HETATM    4  O1  UNL     1      27.329   9.250  47.823  1.00  0.00    -0.290 OA
HETATM    5  C4  UNL     1      28.151   7.973  47.841  1.00  0.00     0.200 A 
HETATM    6  N1  UNL     1      29.239   7.108  47.638  1.00  0.00    -0.215 NA
HETATM    7  C5  UNL     1      29.053   5.752  48.018  1.00  0.00     0.236 A 
HETATM    8  N2  UNL     1      28.054   4.880  48.590  1.00  0.00    -0.241 NA
HETATM    9  C6  UNL     1      26.873   5.607  48.861  1.00  0.00     0.093 A 
HETATM   10  C7  UNL     1      27.364   6.843  48.399  1.00  0.00     0.109 A 
HETATM   11  N3  UNL     1      26.964   7.619  49.999  1.00  0.00    -0.380 N 
HETATM   12  C8  UNL     1      25.639   8.372  49.973  1.00  0.00     0.161 C 
HETATM   13  C9  UNL     1      25.294   7.972  48.506  1.00  0.00    -0.008 C 
HETATM   14  C10 UNL     1      24.731   6.744  48.206  1.00  0.00     0.016 C 
HETATM   15  C11 UNL     1      25.325   5.515  49.052  1.00  0.00     0.163 C 
HETATM   16  H6  UNL     1      27.096   7.932  51.121  1.00  0.00     0.160 HD
ENDROOT
BRANCH  15  17
HETATM   17  N4  UNL     1      24.931   5.539  50.362  1.00  0.00    -0.344 N 
HETATM   18  C12 UNL     1      24.000   4.466  50.617  1.00  0.00     0.243 C 
HETATM   19  O2  UNL     1      23.634   3.639  49.701  1.00  0.00    -0.269 OA
HETATM   20  H11 UNL     1      25.006   5.974  51.298  1.00  0.00     0.163 HD
BRANCH  18  21
HETATM   21  C13 UNL     1      23.325   4.123  51.893  1.00  0.00     0.091 C 
HETATM   22  C14 UNL     1      23.908   3.541  52.926  1.00  0.00     0.094 C 
BRANCH  22  23
HETATM   23  N5  UNL     1      25.288   3.205  52.843  1.00  0.00    -0.366 N 
HETATM   24  H14 UNL     1      26.090   3.876  52.770  1.00  0.00     0.165 HD
BRANCH  23  25
HETATM   25  C15 UNL     1      25.640   1.807  52.861  1.00  0.00     0.033 A 
HETATM   26  C16 UNL     1      26.415   1.224  51.879  1.00  0.00     0.032 A 
HETATM   27  C17 UNL     1      26.731  -0.130  51.935  1.00  0.00     0.046 A 
HETATM   28  C18 UNL     1      26.271  -0.927  52.984  1.00  0.00     0.138 A 
HETATM   29  F1  UNL     1      26.610  -2.240  52.986  1.00  0.00    -0.204 F 
HETATM   30  C19 UNL     1      25.499  -0.368  53.968  1.00  0.00     0.074 A 
HETATM   31 CL1  UNL     1      24.924  -1.369  55.285  1.00  0.00    -0.081 Cl
HETATM   32  C20 UNL     1      25.213   0.973  53.872  1.00  0.00     0.056 A 
ENDBRANCH  23  25
ENDBRANCH  22  23
ENDBRANCH  18  21
ENDBRANCH  15  17
TORSDOF 4
ENDMDL
MODEL 7
REMARK VINA RESULT:      -8.4      3.093      3.616
REMARK  4 active torsions:
REMARK  status: ('A' for Active; 'I' for Inactive)
REMARK    1  A    between atoms: C11_15  and  N4_16 
REMARK       I    between atoms: N4_16  and  C12_17 
REMARK    2  A    between atoms: C12_17  and  C13_19 
REMARK    3  A    between atoms: C14_20  and  N5_21 
REMARK    4  A    between atoms: N5_21  and  C15_22 
ROOT
HETATM    1  C1  UNL     1      26.153   9.318  44.883  1.00  0.00     0.039 C 
HETATM    2  C2  UNL     1      25.622   8.745  46.106  1.00  0.00     0.007 C 
HETATM    3  C3  UNL     1      26.731   8.800  46.848  1.00  0.00     0.081 C 
HETATM    4  O1  UNL     1      28.216   9.090  47.223  1.00  0.00    -0.290 OA
HETATM    5  C4  UNL     1      28.901   7.753  47.439  1.00  0.00     0.200 A 
HETATM    6  N1  UNL     1      29.892   6.758  47.377  1.00  0.00    -0.215 NA
HETATM    7  C5  UNL     1      29.571   5.503  47.957  1.00  0.00     0.236 A 
HETATM    8  N2  UNL     1      28.492   4.835  48.648  1.00  0.00    -0.241 NA
HETATM    9  C6  UNL     1      27.395   5.713  48.798  1.00  0.00     0.093 A 
HETATM   10  C7  UNL     1      28.007   6.808  48.157  1.00  0.00     0.109 A 
HETATM   11  N3  UNL     1      27.705   7.855  49.619  1.00  0.00    -0.380 N 
HETATM   12  C8  UNL     1      26.465   8.728  49.470  1.00  0.00     0.161 C 
HETATM   13  C9  UNL     1      26.067   8.149  48.079  1.00  0.00    -0.008 C 
HETATM   14  C10 UNL     1      25.376   6.955  47.965  1.00  0.00     0.016 C 
HETATM   15  C11 UNL     1      25.848   5.814  48.991  1.00  0.00     0.163 C 
HETATM   16  H6  UNL     1      27.880   8.318  50.681  1.00  0.00     0.160 HD
ENDROOT
BRANCH  15  17
HETATM   17  N4  UNL     1      25.471   6.076  50.280  1.00  0.00    -0.344 N 
HETATM   18  C12 UNL     1      24.354   5.239  50.648  1.00  0.00     0.243 C 
HETATM   19  O2  UNL     1      23.834   4.387  49.835  1.00  0.00    -0.269 OA
HETATM   20  H11 UNL     1      25.631   6.603  51.156  1.00  0.00     0.163 HD
BRANCH  18  21
HETATM   21  C13 UNL     1      23.632   5.193  51.943  1.00  0.00     0.091 C 
HETATM   22  C14 UNL     1      23.621   4.161  52.769  1.00  0.00     0.094 C 
BRANCH  22  23
HETATM   23  N5  UNL     1      24.347   2.988  52.420  1.00  0.00    -0.366 N 
HETATM   24  H14 UNL     1      25.286   2.951  51.955  1.00  0.00     0.165 HD
BRANCH  23  25
HETATM   25  C15 UNL     1      23.749   1.713  52.728  1.00  0.00     0.033 A 
HETATM   26  C16 UNL     1      24.487   0.633  53.168  1.00  0.00     0.032 A 
HETATM   27  C17 UNL     1      23.870  -0.580  53.453  1.00  0.00     0.046 A 
HETATM   28  C18 UNL     1      22.491  -0.732  53.300  1.00  0.00     0.138 A 
HETATM   29  F1  UNL     1      21.943  -1.938  53.593  1.00  0.00    -0.204 F 
HETATM   30  C19 UNL     1      21.740   0.327  52.863  1.00  0.00     0.074 A 
HETATM   31 CL1  UNL     1      20.009   0.135  52.672  1.00  0.00    -0.081 Cl
HETATM   32  C20 UNL     1      22.393   1.506  52.594  1.00  0.00     0.056 A 
ENDBRANCH  23  25
ENDBRANCH  22  23
ENDBRANCH  18  21
ENDBRANCH  15  17
TORSDOF 4
ENDMDL
MODEL 8
REMARK VINA RESULT:      -8.4      3.808      4.988
REMARK  4 active torsions:
REMARK  status: ('A' for Active; 'I' for Inactive)
REMARK    1  A    between atoms: C11_15  and  N4_16 
REMARK       I    between atoms: N4_16  and  C12_17 
REMARK    2  A    between atoms: C12_17  and  C13_19 
REMARK    3  A    between atoms: C14_20  and  N5_21 
REMARK    4  A    between atoms: N5_21  and  C15_22 
ROOT
HETATM    1  C1  UNL     1      19.911   4.124  48.158  1.00  0.00     0.039 C 
HETATM    2  C2  UNL     1      20.793   3.581  49.174  1.00  0.00     0.007 C 
HETATM    3  C3  UNL     1      21.097   4.721  49.801  1.00  0.00     0.081 C 
HETATM    4  O1  UNL     1      21.098   6.245  50.127  1.00  0.00    -0.290 OA
HETATM    5  C4  UNL     1      22.495   6.770  49.849  1.00  0.00     0.200 A 
HETATM    6  N1  UNL     1      23.510   7.628  49.392  1.00  0.00    -0.215 NA
HETATM    7  C5  UNL     1      24.846   7.180  49.566  1.00  0.00     0.236 A 
HETATM    8  N2  UNL     1      25.589   6.060  50.094  1.00  0.00    -0.241 NA
HETATM    9  C6  UNL     1      24.701   5.086  50.605  1.00  0.00     0.093 A 
HETATM   10  C7  UNL     1      23.525   5.800  50.299  1.00  0.00     0.109 A 
HETATM   11  N3  UNL     1      22.988   5.692  52.038  1.00  0.00    -0.380 N 
HETATM   12  C8  UNL     1      21.992   4.564  52.277  1.00  0.00     0.161 C 
HETATM   13  C9  UNL     1      22.042   4.036  50.811  1.00  0.00    -0.008 C 
HETATM   14  C10 UNL     1      23.057   3.200  50.379  1.00  0.00     0.016 C 
HETATM   15  C11 UNL     1      24.513   3.574  50.946  1.00  0.00     0.163 C 
HETATM   16  H6  UNL     1      22.916   5.970  53.174  1.00  0.00     0.160 HD
ENDROOT
BRANCH  15  17
HETATM   17  N4  UNL     1      24.648   3.289  52.277  1.00  0.00    -0.344 N 
HETATM   18  C12 UNL     1      25.660   2.278  52.466  1.00  0.00     0.243 C 
HETATM   19  O2  UNL     1      26.307   1.758  51.482  1.00  0.00    -0.269 OA
HETATM   20  H11 UNL     1      24.364   3.481  53.254  1.00  0.00     0.163 HD
BRANCH  18  21
HETATM   21  C13 UNL     1      26.127   1.675  53.739  1.00  0.00     0.091 C 
HETATM   22  C14 UNL     1      25.883   0.435  54.125  1.00  0.00     0.094 C 
BRANCH  22  23
HETATM   23  N5  UNL     1      25.116  -0.414  53.280  1.00  0.00    -0.366 N 
HETATM   24  H14 UNL     1      25.486  -1.038  52.522  1.00  0.00     0.165 HD
BRANCH  23  25
HETATM   25  C15 UNL     1      23.687  -0.436  53.468  1.00  0.00     0.033 A 
HETATM   26  C16 UNL     1      23.096  -0.914  54.620  1.00  0.00     0.032 A 
HETATM   27  C17 UNL     1      21.713  -0.917  54.760  1.00  0.00     0.046 A 
HETATM   28  C18 UNL     1      20.892  -0.437  53.738  1.00  0.00     0.138 A 
HETATM   29  F1  UNL     1      19.549  -0.464  53.930  1.00  0.00    -0.204 F 
HETATM   30  C19 UNL     1      21.458   0.041  52.586  1.00  0.00     0.074 A 
HETATM   31 CL1  UNL     1      20.427   0.644  51.305  1.00  0.00    -0.081 Cl
HETATM   32  C20 UNL     1      22.829   0.025  52.493  1.00  0.00     0.056 A 
ENDBRANCH  23  25
ENDBRANCH  22  23
ENDBRANCH  18  21
ENDBRANCH  15  17
TORSDOF 4
ENDMDL
MODEL 9
REMARK VINA RESULT:      -8.3      3.435      4.490
REMARK  4 active torsions:
REMARK  status: ('A' for Active; 'I' for Inactive)
REMARK    1  A    between atoms: C11_15  and  N4_16 
REMARK       I    between atoms: N4_16  and  C12_17 
REMARK    2  A    between atoms: C12_17  and  C13_19 
REMARK    3  A    between atoms: C14_20  and  N5_21 
REMARK    4  A    between atoms: N5_21  and  C15_22 
ROOT
HETATM    1  C1  UNL     1      21.980   7.427  50.241  1.00  0.00     0.039 C 
HETATM    2  C2  UNL     1      22.206   6.349  51.185  1.00  0.00     0.007 C 
HETATM    3  C3  UNL     1      22.969   5.569  50.415  1.00  0.00     0.081 C 
HETATM    4  O1  UNL     1      23.762   5.095  49.158  1.00  0.00    -0.290 OA
HETATM    5  C4  UNL     1      23.064   3.859  48.619  1.00  0.00     0.200 A 
HETATM    6  N1  UNL     1      22.515   2.960  47.689  1.00  0.00    -0.215 NA
HETATM    7  C5  UNL     1      21.877   1.808  48.218  1.00  0.00     0.236 A 
HETATM    8  N2  UNL     1      21.572   1.182  49.484  1.00  0.00    -0.241 NA
HETATM    9  C6  UNL     1      22.066   1.972  50.547  1.00  0.00     0.093 A 
HETATM   10  C7  UNL     1      22.613   2.978  49.727  1.00  0.00     0.109 A 
HETATM   11  N3  UNL     1      24.242   2.759  50.516  1.00  0.00    -0.380 N 
HETATM   12  C8  UNL     1      24.511   3.791  51.605  1.00  0.00     0.161 C 
HETATM   13  C9  UNL     1      23.113   4.469  51.487  1.00  0.00    -0.008 C 
HETATM   14  C10 UNL     1      21.998   3.936  52.112  1.00  0.00     0.016 C 
HETATM   15  C11 UNL     1      21.909   2.333  52.058  1.00  0.00     0.163 C 
HETATM   16  H6  UNL     1      25.296   2.293  50.725  1.00  0.00     0.160 HD
ENDROOT
BRANCH  15  17
HETATM   17  N4  UNL     1      22.831   1.728  52.868  1.00  0.00    -0.344 N 
HETATM   18  C12 UNL     1      22.297   0.491  53.386  1.00  0.00     0.243 C 
HETATM   19  O2  UNL     1      21.116   0.073  53.090  1.00  0.00    -0.269 OA
HETATM   20  H11 UNL     1      23.778   1.734  53.285  1.00  0.00     0.163 HD
BRANCH  18  21
HETATM   21  C13 UNL     1      22.952  -0.479  54.297  1.00  0.00     0.091 C 
HETATM   22  C14 UNL     1      24.152  -1.001  54.113  1.00  0.00     0.094 C 
BRANCH  22  23
HETATM   23  N5  UNL     1      24.900  -0.626  52.963  1.00  0.00    -0.366 N 
HETATM   24  H14 UNL     1      24.518  -0.429  52.006  1.00  0.00     0.165 HD
BRANCH  23  25
HETATM   25  C15 UNL     1      26.329  -0.497  53.104  1.00  0.00     0.033 A 
HETATM   26  C16 UNL     1      27.188  -1.570  52.980  1.00  0.00     0.032 A 
HETATM   27  C17 UNL     1      28.561  -1.401  53.124  1.00  0.00     0.046 A 
HETATM   28  C18 UNL     1      29.099  -0.143  53.398  1.00  0.00     0.138 A 
HETATM   29  F1  UNL     1      30.446  -0.038  53.529  1.00  0.00    -0.204 F 
HETATM   30  C19 UNL     1      28.265   0.935  53.527  1.00  0.00     0.074 A 
HETATM   31 CL1  UNL     1      28.943   2.513  53.871  1.00  0.00    -0.081 Cl
HETATM   32  C20 UNL     1      26.916   0.720  53.376  1.00  0.00     0.056 A 
ENDBRANCH  23  25
ENDBRANCH  22  23
ENDBRANCH  18  21
ENDBRANCH  15  17
TORSDOF 4
ENDMDL
