MODEL 1
REMARK VINA RESULT:      -6.9      0.000      0.000
REMARK  8 active torsions:
REMARK  status: ('A' for Active; 'I' for Inactive)
REMARK    1  A    between atoms: C3_4  and  C4_5 
REMARK    2  A    between atoms: N1_6  and  C5_7 
REMARK    3  A    between atoms: C5_7  and  N2_8 
REMARK    4  A    between atoms: N2_8  and  C6_9 
REMARK    5  A    between atoms: C6_9  and  C7_10 
REMARK    6  A    between atoms: C6_9  and  C8_12 
REMARK    7  A    between atoms: C7_10  and  O1_11 
REMARK    8  A    between atoms: N3_18  and  C14_19 
ROOT
HETATM    1  N2  UNL     1      26.094   1.576  53.810  1.00  0.00     0.113 N 
HETATM    2  H9  UNL     1      26.195   2.115  54.689  1.00  0.00     0.319 HD
ENDROOT
BRANCH   1   3
HETATM    3  C5  UNL     1      25.103   2.215  53.003  1.00  0.00     0.418 C 
BRANCH   3   4
HETATM    4  N1  UNL     1      24.575   1.395  51.976  1.00  0.00    -0.273 NA
HETATM    5  C4  UNL     1      23.380   0.995  52.017  1.00  0.00     0.121 C 
BRANCH   5   6
HETATM    6  C3  UNL     1      22.415   1.330  53.119  1.00  0.00     0.192 C 
HETATM    7  S1  UNL     1      20.879   2.066  52.550  1.00  0.00    -0.113 SA
HETATM    8  C2  UNL     1      20.321   0.618  53.490  1.00  0.00     0.148 C 
HETATM    9  C1  UNL     1      19.486  -0.276  52.586  1.00  0.00     0.044 C 
HETATM   10  N3  UNL     1      21.699   0.160  53.600  1.00  0.00    -0.328 N 
BRANCH  10  11
HETATM   11  C14 UNL     1      22.327  -1.037  54.025  1.00  0.00     0.353 C 
HETATM   12  O2  UNL     1      21.862  -1.441  55.132  1.00  0.00    -0.283 OA
ENDBRANCH  10  11
ENDBRANCH   5   6
ENDBRANCH   3   4
ENDBRANCH   1   3
BRANCH   1  13
HETATM   13  C6  UNL     1      27.343   1.362  53.119  1.00  0.00     0.278 C 
BRANCH  13  14
HETATM   14  C7  UNL     1      28.476   2.159  53.730  1.00  0.00     0.204 C 
BRANCH  14  15
HETATM   15  O1  UNL     1      29.003   3.098  52.868  1.00  0.00    -0.398 OA
HETATM   16  H13 UNL     1      29.596   2.735  52.174  1.00  0.00     0.209 HD
ENDBRANCH  14  15
ENDBRANCH  13  14
BRANCH  13  17
HETATM   17  C8  UNL     1      27.692  -0.080  53.045  1.00  0.00    -0.023 A 
HETATM   18  C9  UNL     1      28.998  -0.307  53.484  1.00  0.00     0.009 A 
HETATM   19  C10 UNL     1      29.548  -1.579  53.506  1.00  0.00     0.001 A 
HETATM   20  C11 UNL     1      28.767  -2.647  53.077  1.00  0.00     0.000 A 
HETATM   21  C12 UNL     1      27.482  -2.417  52.645  1.00  0.00     0.001 A 
HETATM   22  C13 UNL     1      26.936  -1.154  52.624  1.00  0.00     0.009 A 
ENDBRANCH  13  17
ENDBRANCH   1  13
TORSDOF 8
ENDMDL
MODEL 2
REMARK VINA RESULT:      -6.6      2.540      2.944
REMARK  8 active torsions:
REMARK  status: ('A' for Active; 'I' for Inactive)
REMARK    1  A    between atoms: C3_4  and  C4_5 
REMARK    2  A    between atoms: N1_6  and  C5_7 
REMARK    3  A    between atoms: C5_7  and  N2_8 
REMARK    4  A    between atoms: N2_8  and  C6_9 
REMARK    5  A    between atoms: C6_9  and  C7_10 
REMARK    6  A    between atoms: C6_9  and  C8_12 
REMARK    7  A    between atoms: C7_10  and  O1_11 
REMARK    8  A    between atoms: N3_18  and  C14_19 
ROOT
HETATM    1  N2  UNL     1      26.401   1.693  54.171  1.00  0.00     0.113 N 
HETATM    2  H9  UNL     1      26.694   2.083  55.085  1.00  0.00     0.319 HD
ENDROOT
BRANCH   1   3
HETATM    3  C5  UNL     1      25.416   2.561  53.607  1.00  0.00     0.418 C 
BRANCH   3   4
HETATM    4  N1  UNL     1      24.930   2.142  52.344  1.00  0.00    -0.273 NA
HETATM    5  C4  UNL     1      23.968   2.739  51.791  1.00  0.00     0.121 C 
BRANCH   5   6
HETATM    6  C3  UNL     1      23.253   3.919  52.385  1.00  0.00     0.192 C 
HETATM    7  S1  UNL     1      23.584   5.474  51.550  1.00  0.00    -0.113 SA
HETATM    8  C2  UNL     1      21.777   5.340  51.473  1.00  0.00     0.148 C 
HETATM    9  C1  UNL     1      21.330   5.387  50.019  1.00  0.00     0.044 C 
HETATM   10  N3  UNL     1      21.857   3.978  51.983  1.00  0.00    -0.328 N 
BRANCH  10  11
HETATM   11  C14 UNL     1      20.945   2.902  52.117  1.00  0.00     0.353 C 
HETATM   12  O2  UNL     1      19.915   3.242  52.772  1.00  0.00    -0.283 OA
ENDBRANCH  10  11
ENDBRANCH   5   6
ENDBRANCH   3   4
ENDBRANCH   1   3
BRANCH   1  13
HETATM   13  C6  UNL     1      27.504   1.424  53.280  1.00  0.00     0.278 C 
BRANCH  13  14
HETATM   14  C7  UNL     1      28.774   2.123  53.718  1.00  0.00     0.204 C 
BRANCH  14  15
HETATM   15  O1  UNL     1      29.120   3.179  52.902  1.00  0.00    -0.398 OA
HETATM   16  H13 UNL     1      28.362   3.636  52.473  1.00  0.00     0.209 HD
ENDBRANCH  14  15
ENDBRANCH  13  14
BRANCH  13  17
HETATM   17  C8  UNL     1      27.735  -0.034  53.113  1.00  0.00    -0.023 A 
HETATM   18  C9  UNL     1      29.012  -0.397  53.545  1.00  0.00     0.009 A 
HETATM   19  C10 UNL     1      29.456  -1.708  53.486  1.00  0.00     0.001 A 
HETATM   20  C11 UNL     1      28.595  -2.677  52.981  1.00  0.00     0.000 A 
HETATM   21  C12 UNL     1      27.339  -2.314  52.557  1.00  0.00     0.001 A 
HETATM   22  C13 UNL     1      26.899  -1.012  52.615  1.00  0.00     0.009 A 
ENDBRANCH  13  17
ENDBRANCH   1  13
TORSDOF 8
ENDMDL
MODEL 3
REMARK VINA RESULT:      -6.6      3.096      3.834
REMARK  8 active torsions:
REMARK  status: ('A' for Active; 'I' for Inactive)
REMARK    1  A    between atoms: C3_4  and  C4_5 
REMARK    2  A    between atoms: N1_6  and  C5_7 
REMARK    3  A    between atoms: C5_7  and  N2_8 
REMARK    4  A    between atoms: N2_8  and  C6_9 
REMARK    5  A    between atoms: C6_9  and  C7_10 
REMARK    6  A    between atoms: C6_9  and  C8_12 
REMARK    7  A    between atoms: C7_10  and  O1_11 
REMARK    8  A    between atoms: N3_18  and  C14_19 
ROOT
HETATM    1  N2  UNL     1      26.336   1.630  54.182  1.00  0.00     0.113 N 
HETATM    2  H9  UNL     1      26.450   2.464  54.786  1.00  0.00     0.319 HD
ENDROOT
BRANCH   1   3
HETATM    3  C5  UNL     1      25.087   1.739  53.495  1.00  0.00     0.418 C 
BRANCH   3   4
HETATM    4  N1  UNL     1      24.554   3.050  53.468  1.00  0.00    -0.273 NA
HETATM    5  C4  UNL     1      24.064   3.528  52.409  1.00  0.00     0.121 C 
BRANCH   5   6
HETATM    6  C3  UNL     1      23.992   2.787  51.103  1.00  0.00     0.192 C 
HETATM    7  S1  UNL     1      22.476   3.068  50.183  1.00  0.00    -0.113 SA
HETATM    8  C2  UNL     1      23.770   3.547  49.005  1.00  0.00     0.148 C 
HETATM    9  C1  UNL     1      23.547   4.990  48.574  1.00  0.00     0.044 C 
HETATM   10  N3  UNL     1      24.769   3.434  50.059  1.00  0.00    -0.328 N 
BRANCH  10  11
HETATM   11  C14 UNL     1      26.133   3.796  50.191  1.00  0.00     0.353 C 
HETATM   12  O2  UNL     1      26.883   3.052  49.492  1.00  0.00    -0.283 OA
ENDBRANCH  10  11
ENDBRANCH   5   6
ENDBRANCH   3   4
ENDBRANCH   1   3
BRANCH   1  13
HETATM   13  C6  UNL     1      27.455   1.402  53.299  1.00  0.00     0.278 C 
BRANCH  13  14
HETATM   14  C7  UNL     1      28.692   2.156  53.741  1.00  0.00     0.204 C 
BRANCH  14  15
HETATM   15  O1  UNL     1      29.051   3.164  52.872  1.00  0.00    -0.398 OA
HETATM   16  H13 UNL     1      28.450   3.942  52.870  1.00  0.00     0.209 HD
ENDBRANCH  14  15
ENDBRANCH  13  14
BRANCH  13  17
HETATM   17  C8  UNL     1      27.747  -0.045  53.141  1.00  0.00    -0.023 A 
HETATM   18  C9  UNL     1      29.041  -0.350  53.570  1.00  0.00     0.009 A 
HETATM   19  C10 UNL     1      29.539  -1.642  53.519  1.00  0.00     0.001 A 
HETATM   20  C11 UNL     1      28.718  -2.651  53.025  1.00  0.00     0.000 A 
HETATM   21  C12 UNL     1      27.446  -2.344  52.603  1.00  0.00     0.001 A 
HETATM   22  C13 UNL     1      26.951  -1.062  52.654  1.00  0.00     0.009 A 
ENDBRANCH  13  17
ENDBRANCH   1  13
TORSDOF 8
ENDMDL
MODEL 4
REMARK VINA RESULT:      -6.5      2.525      6.597
REMARK  8 active torsions:
REMARK  status: ('A' for Active; 'I' for Inactive)
REMARK    1  A    between atoms: C3_4  and  C4_5 
REMARK    2  A    between atoms: N1_6  and  C5_7 
REMARK    3  A    between atoms: C5_7  and  N2_8 
REMARK    4  A    between atoms: N2_8  and  C6_9 
REMARK    5  A    between atoms: C6_9  and  C7_10 
REMARK    6  A    between atoms: C6_9  and  C8_12 
REMARK    7  A    between atoms: C7_10  and  O1_11 
REMARK    8  A    between atoms: N3_18  and  C14_19 
ROOT
HETATM    1  N2  UNL     1      23.542   1.862  51.575  1.00  0.00     0.113 N 
HETATM    2  H9  UNL     1      23.269   2.087  50.601  1.00  0.00     0.319 HD
ENDROOT
BRANCH   1   3
HETATM    3  C5  UNL     1      24.708   2.621  51.902  1.00  0.00     0.418 C 
BRANCH   3   4
HETATM    4  N1  UNL     1      25.844   2.304  51.119  1.00  0.00    -0.273 NA
HETATM    5  C4  UNL     1      26.767   1.580  51.581  1.00  0.00     0.121 C 
BRANCH   5   6
HETATM    6  C3  UNL     1      26.766   0.992  52.964  1.00  0.00     0.192 C 
HETATM    7  S1  UNL     1      26.859  -0.801  52.999  1.00  0.00    -0.113 SA
HETATM    8  C2  UNL     1      28.282  -0.292  54.003  1.00  0.00     0.148 C 
HETATM    9  C1  UNL     1      29.554  -0.874  53.402  1.00  0.00     0.044 C 
HETATM   10  N3  UNL     1      28.067   1.092  53.606  1.00  0.00    -0.328 N 
BRANCH  10  11
HETATM   11  C14 UNL     1      28.802   2.297  53.729  1.00  0.00     0.353 C 
HETATM   12  O2  UNL     1      29.400   2.367  54.844  1.00  0.00    -0.283 OA
ENDBRANCH  10  11
ENDBRANCH   5   6
ENDBRANCH   3   4
ENDBRANCH   1   3
BRANCH   1  13
HETATM   13  C6  UNL     1      22.469   2.024  52.526  1.00  0.00     0.278 C 
BRANCH  13  14
HETATM   14  C7  UNL     1      21.247   2.666  51.902  1.00  0.00     0.204 C 
BRANCH  14  15
HETATM   15  O1  UNL     1      21.057   3.971  52.304  1.00  0.00    -0.398 OA
HETATM   16  H13 UNL     1      20.414   4.481  51.762  1.00  0.00     0.209 HD
ENDBRANCH  14  15
ENDBRANCH  13  14
BRANCH  13  17
HETATM   17  C8  UNL     1      22.113   0.740  53.182  1.00  0.00    -0.023 A 
HETATM   18  C9  UNL     1      20.735   0.517  53.145  1.00  0.00     0.009 A 
HETATM   19  C10 UNL     1      20.166  -0.620  53.696  1.00  0.00     0.001 A 
HETATM   20  C11 UNL     1      21.002  -1.554  54.298  1.00  0.00     0.000 A 
HETATM   21  C12 UNL     1      22.358  -1.330  54.332  1.00  0.00     0.001 A 
HETATM   22  C13 UNL     1      22.923  -0.201  53.785  1.00  0.00     0.009 A 
ENDBRANCH  13  17
ENDBRANCH   1  13
TORSDOF 8
ENDMDL
MODEL 5
REMARK VINA RESULT:      -6.4      1.478      2.241
REMARK  8 active torsions:
REMARK  status: ('A' for Active; 'I' for Inactive)
REMARK    1  A    between atoms: C3_4  and  C4_5 
REMARK    2  A    between atoms: N1_6  and  C5_7 
REMARK    3  A    between atoms: C5_7  and  N2_8 
REMARK    4  A    between atoms: N2_8  and  C6_9 
REMARK    5  A    between atoms: C6_9  and  C7_10 
REMARK    6  A    between atoms: C6_9  and  C8_12 
REMARK    7  A    between atoms: C7_10  and  O1_11 
REMARK    8  A    between atoms: N3_18  and  C14_19 
ROOT
HETATM    1  N2  UNL     1      25.238   3.129  52.479  1.00  0.00     0.113 N 
HETATM    2  H9  UNL     1      25.071   4.062  52.061  1.00  0.00     0.319 HD
ENDROOT
BRANCH   1   3
HETATM    3  C5  UNL     1      23.972   2.514  52.725  1.00  0.00     0.418 C 
BRANCH   3   4
HETATM    4  N1  UNL     1      23.723   1.365  51.935  1.00  0.00    -0.273 NA
HETATM    5  C4  UNL     1      22.747   0.607  52.184  1.00  0.00     0.121 C 
BRANCH   5   6
HETATM    6  C3  UNL     1      21.772   0.828  53.306  1.00  0.00     0.192 C 
HETATM    7  S1  UNL     1      20.234   1.605  52.800  1.00  0.00    -0.113 SA
HETATM    8  C2  UNL     1      19.681   0.070  53.592  1.00  0.00     0.148 C 
HETATM    9  C1  UNL     1      18.858  -0.739  52.600  1.00  0.00     0.044 C 
HETATM   10  N3  UNL     1      21.061  -0.387  53.667  1.00  0.00    -0.328 N 
BRANCH  10  11
HETATM   11  C14 UNL     1      21.695  -1.616  53.980  1.00  0.00     0.353 C 
HETATM   12  O2  UNL     1      21.818  -1.772  55.231  1.00  0.00    -0.283 OA
ENDBRANCH  10  11
ENDBRANCH   5   6
ENDBRANCH   3   4
ENDBRANCH   1   3
BRANCH   1  13
HETATM   13  C6  UNL     1      26.134   2.303  51.705  1.00  0.00     0.278 C 
BRANCH  13  14
HETATM   14  C7  UNL     1      26.724   3.051  50.527  1.00  0.00     0.204 C 
BRANCH  14  15
HETATM   15  O1  UNL     1      26.311   4.365  50.458  1.00  0.00    -0.398 OA
HETATM   16  H13 UNL     1      26.051   4.670  49.561  1.00  0.00     0.209 HD
ENDBRANCH  14  15
ENDBRANCH  13  14
BRANCH  13  17
HETATM   17  C8  UNL     1      27.207   1.714  52.546  1.00  0.00    -0.023 A 
HETATM   18  C9  UNL     1      27.171   0.319  52.508  1.00  0.00     0.009 A 
HETATM   19  C10 UNL     1      28.078  -0.453  53.217  1.00  0.00     0.001 A 
HETATM   20  C11 UNL     1      29.043   0.194  53.982  1.00  0.00     0.000 A 
HETATM   21  C12 UNL     1      29.073   1.568  54.017  1.00  0.00     0.001 A 
HETATM   22  C13 UNL     1      28.172   2.333  53.313  1.00  0.00     0.009 A 
ENDBRANCH  13  17
ENDBRANCH   1  13
TORSDOF 8
ENDMDL
MODEL 6
REMARK VINA RESULT:      -6.3      4.043      6.419
REMARK  8 active torsions:
REMARK  status: ('A' for Active; 'I' for Inactive)
REMARK    1  A    between atoms: C3_4  and  C4_5 
REMARK    2  A    between atoms: N1_6  and  C5_7 
REMARK    3  A    between atoms: C5_7  and  N2_8 
REMARK    4  A    between atoms: N2_8  and  C6_9 
REMARK    5  A    between atoms: C6_9  and  C7_10 
REMARK    6  A    between atoms: C6_9  and  C8_12 
REMARK    7  A    between atoms: C7_10  and  O1_11 
REMARK    8  A    between atoms: N3_18  and  C14_19 
ROOT
HETATM    1  N2  UNL     1      24.244   4.943  52.024  1.00  0.00     0.113 N 
HETATM    2  H9  UNL     1      23.907   5.765  52.557  1.00  0.00     0.319 HD
ENDROOT
BRANCH   1   3
HETATM    3  C5  UNL     1      23.707   3.764  52.628  1.00  0.00     0.418 C 
BRANCH   3   4
HETATM    4  N1  UNL     1      23.504   2.692  51.727  1.00  0.00    -0.273 NA
HETATM    5  C4  UNL     1      24.029   1.564  51.934  1.00  0.00     0.121 C 
BRANCH   5   6
HETATM    6  C3  UNL     1      24.897   1.241  53.117  1.00  0.00     0.192 C 
HETATM    7  S1  UNL     1      24.611  -0.389  53.814  1.00  0.00    -0.113 SA
HETATM    8  C2  UNL     1      26.384  -0.407  53.429  1.00  0.00     0.148 C 
HETATM    9  C1  UNL     1      26.681  -1.562  52.483  1.00  0.00     0.044 C 
HETATM   10  N3  UNL     1      26.244   0.860  52.726  1.00  0.00    -0.328 N 
BRANCH  10  11
HETATM   11  C14 UNL     1      27.072   1.632  51.874  1.00  0.00     0.353 C 
HETATM   12  O2  UNL     1      27.860   2.373  52.535  1.00  0.00    -0.283 OA
ENDBRANCH  10  11
ENDBRANCH   5   6
ENDBRANCH   3   4
ENDBRANCH   1   3
BRANCH   1  13
HETATM   13  C6  UNL     1      23.983   5.028  50.607  1.00  0.00     0.278 C 
BRANCH  13  14
HETATM   14  C7  UNL     1      22.842   5.973  50.294  1.00  0.00     0.204 C 
BRANCH  14  15
HETATM   15  O1  UNL     1      22.367   6.636  51.406  1.00  0.00    -0.398 OA
HETATM   16  H13 UNL     1      21.769   7.392  51.213  1.00  0.00     0.209 HD
ENDBRANCH  14  15
ENDBRANCH  13  14
BRANCH  13  17
HETATM   17  C8  UNL     1      25.201   5.401  49.843  1.00  0.00    -0.023 A 
HETATM   18  C9  UNL     1      26.031   4.296  49.642  1.00  0.00     0.009 A 
HETATM   19  C10 UNL     1      27.228   4.400  48.952  1.00  0.00     0.001 A 
HETATM   20  C11 UNL     1      27.600   5.644  48.453  1.00  0.00     0.000 A 
HETATM   21  C12 UNL     1      26.779   6.729  48.655  1.00  0.00     0.001 A 
HETATM   22  C13 UNL     1      25.590   6.625  49.339  1.00  0.00     0.009 A 
ENDBRANCH  13  17
ENDBRANCH   1  13
TORSDOF 8
ENDMDL
MODEL 7
REMARK VINA RESULT:      -6.2      4.466      5.890
REMARK  8 active torsions:
REMARK  status: ('A' for Active; 'I' for Inactive)
REMARK    1  A    between atoms: C3_4  and  C4_5 
REMARK    2  A    between atoms: N1_6  and  C5_7 
REMARK    3  A    between atoms: C5_7  and  N2_8 
REMARK    4  A    between atoms: N2_8  and  C6_9 
REMARK    5  A    between atoms: C6_9  and  C7_10 
REMARK    6  A    between atoms: C6_9  and  C8_12 
REMARK    7  A    between atoms: C7_10  and  O1_11 
REMARK    8  A    between atoms: N3_18  and  C14_19 
ROOT
HETATM    1  N2  UNL     1      25.942   4.041  50.746  1.00  0.00     0.113 N 
HETATM    2  H9  UNL     1      26.183   4.594  51.588  1.00  0.00     0.319 HD
ENDROOT
BRANCH   1   3
HETATM    3  C5  UNL     1      25.084   2.969  51.142  1.00  0.00     0.418 C 
BRANCH   3   4
HETATM    4  N1  UNL     1      24.410   3.188  52.368  1.00  0.00    -0.273 NA
HETATM    5  C4  UNL     1      23.837   2.241  52.971  1.00  0.00     0.121 C 
BRANCH   5   6
HETATM    6  C3  UNL     1      23.803   0.823  52.475  1.00  0.00     0.192 C 
HETATM    7  S1  UNL     1      24.406  -0.383  53.661  1.00  0.00    -0.113 SA
HETATM    8  C2  UNL     1      22.736  -0.978  53.279  1.00  0.00     0.148 C 
HETATM    9  C1  UNL     1      21.926  -1.063  54.564  1.00  0.00     0.044 C 
HETATM   10  N3  UNL     1      22.470   0.248  52.539  1.00  0.00    -0.328 N 
BRANCH  10  11
HETATM   11  C14 UNL     1      21.317   0.851  51.977  1.00  0.00     0.353 C 
HETATM   12  O2  UNL     1      20.879   0.191  50.988  1.00  0.00    -0.283 OA
ENDBRANCH  10  11
ENDBRANCH   5   6
ENDBRANCH   3   4
ENDBRANCH   1   3
BRANCH   1  13
HETATM   13  C6  UNL     1      25.401   4.837  49.670  1.00  0.00     0.278 C 
BRANCH  13  14
HETATM   14  C7  UNL     1      24.309   5.772  50.145  1.00  0.00     0.204 C 
BRANCH  14  15
HETATM   15  O1  UNL     1      24.537   6.272  51.410  1.00  0.00    -0.398 OA
HETATM   16  H13 UNL     1      25.485   6.341  51.663  1.00  0.00     0.209 HD
ENDBRANCH  14  15
ENDBRANCH  13  14
BRANCH  13  17
HETATM   17  C8  UNL     1      26.463   5.587  48.952  1.00  0.00    -0.023 A 
HETATM   18  C9  UNL     1      27.628   4.827  48.833  1.00  0.00     0.009 A 
HETATM   19  C10 UNL     1      28.757   5.319  48.198  1.00  0.00     0.001 A 
HETATM   20  C11 UNL     1      28.713   6.606  47.671  1.00  0.00     0.000 A 
HETATM   21  C12 UNL     1      27.564   7.350  47.792  1.00  0.00     0.001 A 
HETATM   22  C13 UNL     1      26.443   6.861  48.422  1.00  0.00     0.009 A 
ENDBRANCH  13  17
ENDBRANCH   1  13
TORSDOF 8
ENDMDL
MODEL 8
REMARK VINA RESULT:      -6.1      2.156      2.834
REMARK  8 active torsions:
REMARK  status: ('A' for Active; 'I' for Inactive)
REMARK    1  A    between atoms: C3_4  and  C4_5 
REMARK    2  A    between atoms: N1_6  and  C5_7 
REMARK    3  A    between atoms: C5_7  and  N2_8 
REMARK    4  A    between atoms: N2_8  and  C6_9 
REMARK    5  A    between atoms: C6_9  and  C7_10 
REMARK    6  A    between atoms: C6_9  and  C8_12 
REMARK    7  A    between atoms: C7_10  and  O1_11 
REMARK    8  A    between atoms: N3_18  and  C14_19 
ROOT
HETATM    1  N2  UNL     1      25.424   0.627  53.708  1.00  0.00     0.113 N 
HETATM    2  H9  UNL     1      25.069   1.543  54.039  1.00  0.00     0.319 HD
ENDROOT
BRANCH   1   3
HETATM    3  C5  UNL     1      24.325  -0.113  53.169  1.00  0.00     0.418 C 
BRANCH   3   4
HETATM    4  N1  UNL     1      23.068   0.236  53.718  1.00  0.00    -0.273 NA
HETATM    5  C4  UNL     1      22.225   0.886  53.042  1.00  0.00     0.121 C 
BRANCH   5   6
HETATM    6  C3  UNL     1      22.450   1.347  51.630  1.00  0.00     0.192 C 
HETATM    7  S1  UNL     1      20.946   1.509  50.662  1.00  0.00    -0.113 SA
HETATM    8  C2  UNL     1      21.691   3.159  50.549  1.00  0.00     0.148 C 
HETATM    9  C1  UNL     1      20.706   4.192  51.076  1.00  0.00     0.044 C 
HETATM   10  N3  UNL     1      22.680   2.780  51.548  1.00  0.00    -0.328 N 
BRANCH  10  11
HETATM   11  C14 UNL     1      23.653   3.474  52.310  1.00  0.00     0.353 C 
HETATM   12  O2  UNL     1      24.532   4.007  51.571  1.00  0.00    -0.283 OA
ENDBRANCH  10  11
ENDBRANCH   5   6
ENDBRANCH   3   4
ENDBRANCH   1   3
BRANCH   1  13
HETATM   13  C6  UNL     1      26.539   0.736  52.798  1.00  0.00     0.278 C 
BRANCH  13  14
HETATM   14  C7  UNL     1      27.257   2.063  52.935  1.00  0.00     0.204 C 
BRANCH  14  15
HETATM   15  O1  UNL     1      27.276   2.791  51.764  1.00  0.00    -0.398 OA
HETATM   16  H13 UNL     1      27.137   2.264  50.946  1.00  0.00     0.209 HD
ENDBRANCH  14  15
ENDBRANCH  13  14
BRANCH  13  17
HETATM   17  C8  UNL     1      27.489  -0.396  52.950  1.00  0.00    -0.023 A 
HETATM   18  C9  UNL     1      28.709   0.034  53.475  1.00  0.00     0.009 A 
HETATM   19  C10 UNL     1      29.753  -0.847  53.707  1.00  0.00     0.001 A 
HETATM   20  C11 UNL     1      29.565  -2.192  53.403  1.00  0.00     0.000 A 
HETATM   21  C12 UNL     1      28.362  -2.609  52.886  1.00  0.00     0.001 A 
HETATM   22  C13 UNL     1      27.326  -1.734  52.657  1.00  0.00     0.009 A 
ENDBRANCH  13  17
ENDBRANCH   1  13
TORSDOF 8
ENDMDL
MODEL 9
REMARK VINA RESULT:      -6.1      4.495      6.079
REMARK  8 active torsions:
REMARK  status: ('A' for Active; 'I' for Inactive)
REMARK    1  A    between atoms: C3_4  and  C4_5 
REMARK    2  A    between atoms: N1_6  and  C5_7 
REMARK    3  A    between atoms: C5_7  and  N2_8 
REMARK    4  A    between atoms: N2_8  and  C6_9 
REMARK    5  A    between atoms: C6_9  and  C7_10 
REMARK    6  A    between atoms: C6_9  and  C8_12 
REMARK    7  A    between atoms: C7_10  and  O1_11 
REMARK    8  A    between atoms: N3_18  and  C14_19 
ROOT
HETATM    1  N2  UNL     1      25.340   4.463  50.827  1.00  0.00     0.113 N 
HETATM    2  H9  UNL     1      25.620   4.773  51.775  1.00  0.00     0.319 HD
ENDROOT
BRANCH   1   3
HETATM    3  C5  UNL     1      24.248   3.550  50.957  1.00  0.00     0.418 C 
BRANCH   3   4
HETATM    4  N1  UNL     1      23.671   3.518  52.250  1.00  0.00    -0.273 NA
HETATM    5  C4  UNL     1      23.583   2.437  52.892  1.00  0.00     0.121 C 
BRANCH   5   6
HETATM    6  C3  UNL     1      24.062   1.108  52.379  1.00  0.00     0.192 C 
HETATM    7  S1  UNL     1      25.830   0.846  52.561  1.00  0.00    -0.113 SA
HETATM    8  C2  UNL     1      25.109  -0.571  53.434  1.00  0.00     0.148 C 
HETATM    9  C1  UNL     1      25.604  -0.579  54.873  1.00  0.00     0.044 C 
HETATM   10  N3  UNL     1      23.786   0.026  53.309  1.00  0.00    -0.328 N 
BRANCH  10  11
HETATM   11  C14 UNL     1      22.508  -0.243  53.860  1.00  0.00     0.353 C 
HETATM   12  O2  UNL     1      21.990  -1.281  53.352  1.00  0.00    -0.283 OA
ENDBRANCH  10  11
ENDBRANCH   5   6
ENDBRANCH   3   4
ENDBRANCH   1   3
BRANCH   1  13
HETATM   13  C6  UNL     1      25.069   5.553  49.921  1.00  0.00     0.278 C 
BRANCH  13  14
HETATM   14  C7  UNL     1      24.405   6.722  50.618  1.00  0.00     0.204 C 
BRANCH  14  15
HETATM   15  O1  UNL     1      24.558   6.693  51.988  1.00  0.00    -0.398 OA
HETATM   16  H13 UNL     1      23.836   6.237  52.476  1.00  0.00     0.209 HD
ENDBRANCH  14  15
ENDBRANCH  13  14
BRANCH  13  17
HETATM   17  C8  UNL     1      26.294   5.992  49.205  1.00  0.00    -0.023 A 
HETATM   18  C9  UNL     1      27.171   4.925  48.999  1.00  0.00     0.009 A 
HETATM   19  C10 UNL     1      28.383   5.094  48.349  1.00  0.00     0.001 A 
HETATM   20  C11 UNL     1      28.721   6.364  47.895  1.00  0.00     0.000 A 
HETATM   21  C12 UNL     1      27.854   7.411  48.101  1.00  0.00     0.001 A 
HETATM   22  C13 UNL     1      26.651   7.244  48.746  1.00  0.00     0.009 A 
ENDBRANCH  13  17
ENDBRANCH   1  13
TORSDOF 8
ENDMDL
