MODEL 1
REMARK VINA RESULT:      -8.1      0.000      0.000
REMARK  2 active torsions:
REMARK  status: ('A' for Active; 'I' for Inactive)
REMARK    1  A    between atoms: C6_7  and  O2_8 
REMARK    2  A    between atoms: O2_8  and  C7_9 
ROOT
HETATM    1  O1  UNL     1      18.631  -0.972  53.529  1.00  0.00    -0.290 OA
HETATM    2  C1  UNL     1      19.634  -0.514  52.945  1.00  0.00     0.182 A 
HETATM    3  C2  UNL     1      19.284   0.140  51.656  1.00  0.00     0.112 A 
HETATM    4  C3  UNL     1      20.527   0.649  51.040  1.00  0.00    -0.018 A 
HETATM    5  C4  UNL     1      21.765   0.570  51.502  1.00  0.00     0.015 A 
HETATM    6  C5  UNL     1      22.017  -0.089  52.778  1.00  0.00     0.049 A 
HETATM    7  C6  UNL     1      23.298  -0.183  53.279  1.00  0.00     0.183 A 
HETATM    8  N1  UNL     1      23.500  -0.801  54.467  1.00  0.00    -0.217 NA
HETATM    9  C13 UNL     1      22.459  -1.324  55.159  1.00  0.00     0.236 A 
HETATM   10  N2  UNL     1      21.189  -1.241  54.680  1.00  0.00    -0.237 NA
HETATM   11  C14 UNL     1      20.973  -0.629  53.501  1.00  0.00     0.118 A 
ENDROOT
BRANCH   7  12
HETATM   12  O2  UNL     1      24.306   0.373  52.517  1.00  0.00    -0.291 OA
BRANCH  12  13
HETATM   13  C7  UNL     1      25.641   0.119  52.803  1.00  0.00     0.081 A 
HETATM   14  C8  UNL     1      26.473   1.114  53.267  1.00  0.00     0.039 A 
HETATM   15  C9  UNL     1      27.788   0.769  53.524  1.00  0.00     0.025 A 
HETATM   16  C10 UNL     1      28.272  -0.510  53.334  1.00  0.00     0.049 A 
HETATM   17 BR1  UNL     1      30.098  -0.966  53.698  1.00  0.00    -0.048 Br
HETATM   18  C11 UNL     1      27.439  -1.507  52.870  1.00  0.00     0.136 A 
HETATM   19  F1  UNL     1      27.858  -2.770  52.667  1.00  0.00    -0.205 F 
HETATM   20  C12 UNL     1      26.122  -1.169  52.610  1.00  0.00     0.081 A 
ENDBRANCH  12  13
ENDBRANCH   7  12
TORSDOF 2
ENDMDL
MODEL 2
REMARK VINA RESULT:      -8.1      5.096      7.102
REMARK  2 active torsions:
REMARK  status: ('A' for Active; 'I' for Inactive)
REMARK    1  A    between atoms: C6_7  and  O2_8 
REMARK    2  A    between atoms: O2_8  and  C7_9 
ROOT
HETATM    1  O1  UNL     1      30.422  -1.763  53.927  1.00  0.00    -0.290 OA
HETATM    2  C1  UNL     1      29.287  -1.446  53.515  1.00  0.00     0.182 A 
HETATM    3  C2  UNL     1      28.553  -2.607  52.945  1.00  0.00     0.112 A 
HETATM    4  C3  UNL     1      27.228  -2.139  52.486  1.00  0.00    -0.018 A 
HETATM    5  C4  UNL     1      26.723  -0.916  52.542  1.00  0.00     0.015 A 
HETATM    6  C5  UNL     1      27.516   0.163  53.119  1.00  0.00     0.049 A 
HETATM    7  C6  UNL     1      27.010   1.444  53.188  1.00  0.00     0.183 A 
HETATM    8  N1  UNL     1      27.770   2.426  53.729  1.00  0.00    -0.217 NA
HETATM    9  C13 UNL     1      29.014   2.159  54.198  1.00  0.00     0.236 A 
HETATM   10  N2  UNL     1      29.528   0.901  54.137  1.00  0.00    -0.237 NA
HETATM   11  C14 UNL     1      28.784  -0.085  53.603  1.00  0.00     0.118 A 
ENDROOT
BRANCH   7  12
HETATM   12  O2  UNL     1      25.738   1.639  52.690  1.00  0.00    -0.291 OA
BRANCH  12  13
HETATM   13  C7  UNL     1      25.473   2.658  51.785  1.00  0.00     0.081 A 
HETATM   14  C8  UNL     1      24.352   3.450  51.911  1.00  0.00     0.039 A 
HETATM   15  C9  UNL     1      24.170   4.441  50.962  1.00  0.00     0.025 A 
HETATM   16  C10 UNL     1      25.056   4.650  49.925  1.00  0.00     0.049 A 
HETATM   17 BR1  UNL     1      24.783   6.030  48.623  1.00  0.00    -0.048 Br
HETATM   18  C11 UNL     1      26.179   3.858  49.799  1.00  0.00     0.136 A 
HETATM   19  F1  UNL     1      27.075   4.018  48.808  1.00  0.00    -0.205 F 
HETATM   20  C12 UNL     1      26.367   2.865  50.744  1.00  0.00     0.081 A 
ENDBRANCH  12  13
ENDBRANCH   7  12
TORSDOF 2
ENDMDL
MODEL 3
REMARK VINA RESULT:      -8.0      4.970      6.597
REMARK  2 active torsions:
REMARK  status: ('A' for Active; 'I' for Inactive)
REMARK    1  A    between atoms: C6_7  and  O2_8 
REMARK    2  A    between atoms: O2_8  and  C7_9 
ROOT
HETATM    1  O1  UNL     1      26.354  -0.393  55.988  1.00  0.00    -0.290 OA
HETATM    2  C1  UNL     1      25.972  -0.083  54.841  1.00  0.00     0.182 A 
HETATM    3  C2  UNL     1      24.693  -0.747  54.477  1.00  0.00     0.112 A 
HETATM    4  C3  UNL     1      24.321  -0.322  53.111  1.00  0.00    -0.018 A 
HETATM    5  C4  UNL     1      24.969   0.501  52.301  1.00  0.00     0.015 A 
HETATM    6  C5  UNL     1      26.219   1.109  52.742  1.00  0.00     0.049 A 
HETATM    7  C6  UNL     1      26.910   1.969  51.916  1.00  0.00     0.183 A 
HETATM    8  N1  UNL     1      28.068   2.518  52.354  1.00  0.00    -0.217 NA
HETATM    9  C13 UNL     1      28.548   2.228  53.588  1.00  0.00     0.236 A 
HETATM   10  N2  UNL     1      27.878   1.381  54.416  1.00  0.00    -0.237 NA
HETATM   11  C14 UNL     1      26.726   0.829  53.994  1.00  0.00     0.118 A 
ENDROOT
BRANCH   7  12
HETATM   12  O2  UNL     1      26.360   2.215  50.674  1.00  0.00    -0.291 OA
BRANCH  12  13
HETATM   13  C7  UNL     1      26.158   3.514  50.227  1.00  0.00     0.081 A 
HETATM   14  C8  UNL     1      25.106   4.273  50.691  1.00  0.00     0.039 A 
HETATM   15  C9  UNL     1      24.983   5.556  50.189  1.00  0.00     0.025 A 
HETATM   16  C10 UNL     1      25.862   6.080  49.262  1.00  0.00     0.049 A 
HETATM   17 BR1  UNL     1      25.672   7.862  48.580  1.00  0.00    -0.048 Br
HETATM   18  C11 UNL     1      26.916   5.320  48.797  1.00  0.00     0.136 A 
HETATM   19  F1  UNL     1      27.802   5.780  47.894  1.00  0.00    -0.205 F 
HETATM   20  C12 UNL     1      27.045   4.036  49.295  1.00  0.00     0.081 A 
ENDBRANCH  12  13
ENDBRANCH   7  12
TORSDOF 2
ENDMDL
MODEL 4
REMARK VINA RESULT:      -7.9      1.960      2.696
REMARK  2 active torsions:
REMARK  status: ('A' for Active; 'I' for Inactive)
REMARK    1  A    between atoms: C6_7  and  O2_8 
REMARK    2  A    between atoms: O2_8  and  C7_9 
ROOT
HETATM    1  O1  UNL     1      19.105   0.790  50.997  1.00  0.00    -0.290 OA
HETATM    2  C1  UNL     1      19.884   0.354  51.869  1.00  0.00     0.182 A 
HETATM    3  C2  UNL     1      19.193  -0.519  52.854  1.00  0.00     0.112 A 
HETATM    4  C3  UNL     1      20.190  -0.986  53.841  1.00  0.00    -0.018 A 
HETATM    5  C4  UNL     1      21.484  -0.712  53.895  1.00  0.00     0.015 A 
HETATM    6  C5  UNL     1      22.078   0.155  52.885  1.00  0.00     0.049 A 
HETATM    7  C6  UNL     1      23.424   0.454  52.921  1.00  0.00     0.183 A 
HETATM    8  N1  UNL     1      23.947   1.262  51.969  1.00  0.00    -0.217 NA
HETATM    9  C13 UNL     1      23.163   1.775  50.990  1.00  0.00     0.236 A 
HETATM   10  N2  UNL     1      21.833   1.491  50.939  1.00  0.00    -0.237 NA
HETATM   11  C14 UNL     1      21.300   0.689  51.879  1.00  0.00     0.118 A 
ENDROOT
BRANCH   7  12
HETATM   12  O2  UNL     1      24.157  -0.105  53.948  1.00  0.00    -0.291 OA
BRANCH  12  13
HETATM   13  C7  UNL     1      25.520  -0.335  53.810  1.00  0.00     0.081 A 
HETATM   14  C8  UNL     1      26.002  -1.227  52.877  1.00  0.00     0.039 A 
HETATM   15  C9  UNL     1      27.374  -1.393  52.812  1.00  0.00     0.025 A 
HETATM   16  C10 UNL     1      28.246  -0.706  53.632  1.00  0.00     0.049 A 
HETATM   17 BR1  UNL     1      30.145  -0.950  53.523  1.00  0.00    -0.048 Br
HETATM   18  C11 UNL     1      27.764   0.188  54.566  1.00  0.00     0.136 A 
HETATM   19  F1  UNL     1      28.569   0.884  55.391  1.00  0.00    -0.205 F 
HETATM   20  C12 UNL     1      26.393   0.358  54.638  1.00  0.00     0.081 A 
ENDBRANCH  12  13
ENDBRANCH   7  12
TORSDOF 2
ENDMDL
MODEL 5
REMARK VINA RESULT:      -7.7      4.223      4.967
REMARK  2 active torsions:
REMARK  status: ('A' for Active; 'I' for Inactive)
REMARK    1  A    between atoms: C6_7  and  O2_8 
REMARK    2  A    between atoms: O2_8  and  C7_9 
ROOT
HETATM    1  O1  UNL     1      22.405  -1.755  55.452  1.00  0.00    -0.290 OA
HETATM    2  C1  UNL     1      22.222  -1.047  54.441  1.00  0.00     0.182 A 
HETATM    3  C2  UNL     1      20.789  -0.984  54.052  1.00  0.00     0.112 A 
HETATM    4  C3  UNL     1      20.669  -0.129  52.851  1.00  0.00    -0.018 A 
HETATM    5  C4  UNL     1      21.630   0.498  52.191  1.00  0.00     0.015 A 
HETATM    6  C5  UNL     1      23.011   0.380  52.644  1.00  0.00     0.049 A 
HETATM    7  C6  UNL     1      24.027   1.024  51.971  1.00  0.00     0.183 A 
HETATM    8  N1  UNL     1      25.300   0.895  52.416  1.00  0.00    -0.217 NA
HETATM    9  C13 UNL     1      25.577   0.143  53.509  1.00  0.00     0.236 A 
HETATM   10  N2  UNL     1      24.587  -0.500  54.184  1.00  0.00    -0.237 NA
HETATM   11  C14 UNL     1      23.318  -0.381  53.754  1.00  0.00     0.118 A 
ENDROOT
BRANCH   7  12
HETATM   12  O2  UNL     1      23.667   1.771  50.868  1.00  0.00    -0.291 OA
BRANCH  12  13
HETATM   13  C7  UNL     1      24.073   3.092  50.736  1.00  0.00     0.081 A 
HETATM   14  C8  UNL     1      23.534   4.086  51.525  1.00  0.00     0.039 A 
HETATM   15  C9  UNL     1      23.998   5.374  51.323  1.00  0.00     0.025 A 
HETATM   16  C10 UNL     1      24.959   5.679  50.380  1.00  0.00     0.049 A 
HETATM   17 BR1  UNL     1      25.588   7.471  50.117  1.00  0.00    -0.048 Br
HETATM   18  C11 UNL     1      25.499   4.684  49.589  1.00  0.00     0.136 A 
HETATM   19  F1  UNL     1      26.437   4.925  48.655  1.00  0.00    -0.205 F 
HETATM   20  C12 UNL     1      25.039   3.394  49.786  1.00  0.00     0.081 A 
ENDBRANCH  12  13
ENDBRANCH   7  12
TORSDOF 2
ENDMDL
MODEL 6
REMARK VINA RESULT:      -7.6      4.783      7.021
REMARK  2 active torsions:
REMARK  status: ('A' for Active; 'I' for Inactive)
REMARK    1  A    between atoms: C6_7  and  O2_8 
REMARK    2  A    between atoms: O2_8  and  C7_9 
ROOT
HETATM    1  O1  UNL     1      28.856  -1.565  53.792  1.00  0.00    -0.290 OA
HETATM    2  C1  UNL     1      28.406  -0.403  53.716  1.00  0.00     0.182 A 
HETATM    3  C2  UNL     1      29.485   0.619  53.732  1.00  0.00     0.112 A 
HETATM    4  C3  UNL     1      28.860   1.956  53.639  1.00  0.00    -0.018 A 
HETATM    5  C4  UNL     1      27.574   2.258  53.554  1.00  0.00     0.015 A 
HETATM    6  C5  UNL     1      26.583   1.188  53.545  1.00  0.00     0.049 A 
HETATM    7  C6  UNL     1      25.238   1.479  53.458  1.00  0.00     0.183 A 
HETATM    8  N1  UNL     1      24.341   0.464  53.452  1.00  0.00    -0.217 NA
HETATM    9  C13 UNL     1      24.755  -0.824  53.531  1.00  0.00     0.236 A 
HETATM   10  N2  UNL     1      26.078  -1.129  53.618  1.00  0.00    -0.237 NA
HETATM   11  C14 UNL     1      26.980  -0.131  53.625  1.00  0.00     0.118 A 
ENDROOT
BRANCH   7  12
HETATM   12  O2  UNL     1      24.894   2.813  53.381  1.00  0.00    -0.291 OA
BRANCH  12  13
HETATM   13  C7  UNL     1      24.281   3.329  52.247  1.00  0.00     0.081 A 
HETATM   14  C8  UNL     1      24.668   2.936  50.984  1.00  0.00     0.039 A 
HETATM   15  C9  UNL     1      24.001   3.503  49.913  1.00  0.00     0.025 A 
HETATM   16  C10 UNL     1      22.986   4.425  50.073  1.00  0.00     0.049 A 
HETATM   17 BR1  UNL     1      22.075   5.198  48.573  1.00  0.00    -0.048 Br
HETATM   18  C11 UNL     1      22.597   4.819  51.337  1.00  0.00     0.136 A 
HETATM   19  F1  UNL     1      21.615   5.714  51.550  1.00  0.00    -0.205 F 
HETATM   20  C12 UNL     1      23.260   4.256  52.413  1.00  0.00     0.081 A 
ENDBRANCH  12  13
ENDBRANCH   7  12
TORSDOF 2
ENDMDL
MODEL 7
REMARK VINA RESULT:      -7.4      5.398      7.265
REMARK  2 active torsions:
REMARK  status: ('A' for Active; 'I' for Inactive)
REMARK    1  A    between atoms: C6_7  and  O2_8 
REMARK    2  A    between atoms: O2_8  and  C7_9 
ROOT
HETATM    1  O1  UNL     1      26.198   8.023  49.648  1.00  0.00    -0.290 OA
HETATM    2  C1  UNL     1      26.179   6.777  49.586  1.00  0.00     0.182 A 
HETATM    3  C2  UNL     1      27.317   6.236  48.796  1.00  0.00     0.112 A 
HETATM    4  C3  UNL     1      27.212   4.762  48.778  1.00  0.00    -0.018 A 
HETATM    5  C4  UNL     1      26.293   3.996  49.345  1.00  0.00     0.015 A 
HETATM    6  C5  UNL     1      25.211   4.613  50.103  1.00  0.00     0.049 A 
HETATM    7  C6  UNL     1      24.243   3.836  50.702  1.00  0.00     0.183 A 
HETATM    8  N1  UNL     1      23.250   4.438  51.399  1.00  0.00    -0.217 NA
HETATM    9  C13 UNL     1      23.203   5.788  51.510  1.00  0.00     0.236 A 
HETATM   10  N2  UNL     1      24.150   6.570  50.926  1.00  0.00    -0.237 NA
HETATM   11  C14 UNL     1      25.142   5.986  50.230  1.00  0.00     0.118 A 
ENDROOT
BRANCH   7  12
HETATM   12  O2  UNL     1      24.356   2.470  50.544  1.00  0.00    -0.291 OA
BRANCH  12  13
HETATM   13  C7  UNL     1      23.764   1.594  51.445  1.00  0.00     0.081 A 
HETATM   14  C8  UNL     1      24.433   1.169  52.572  1.00  0.00     0.039 A 
HETATM   15  C9  UNL     1      23.764   0.296  53.412  1.00  0.00     0.025 A 
HETATM   16  C10 UNL     1      22.480  -0.144  53.158  1.00  0.00     0.049 A 
HETATM   17 BR1  UNL     1      21.572  -1.352  54.337  1.00  0.00    -0.048 Br
HETATM   18  C11 UNL     1      21.809   0.282  52.029  1.00  0.00     0.136 A 
HETATM   19  F1  UNL     1      20.558  -0.115  51.733  1.00  0.00    -0.205 F 
HETATM   20  C12 UNL     1      22.473   1.155  51.185  1.00  0.00     0.081 A 
ENDBRANCH  12  13
ENDBRANCH   7  12
TORSDOF 2
ENDMDL
MODEL 8
REMARK VINA RESULT:      -7.3      4.051      6.871
REMARK  2 active torsions:
REMARK  status: ('A' for Active; 'I' for Inactive)
REMARK    1  A    between atoms: C6_7  and  O2_8 
REMARK    2  A    between atoms: O2_8  and  C7_9 
ROOT
HETATM    1  O1  UNL     1      27.999  -0.470  54.921  1.00  0.00    -0.290 OA
HETATM    2  C1  UNL     1      27.144  -0.117  54.084  1.00  0.00     0.182 A 
HETATM    3  C2  UNL     1      27.749   0.599  52.930  1.00  0.00     0.112 A 
HETATM    4  C3  UNL     1      26.667   0.976  51.996  1.00  0.00    -0.018 A 
HETATM    5  C4  UNL     1      25.368   0.746  52.108  1.00  0.00     0.015 A 
HETATM    6  C5  UNL     1      24.861   0.034  53.276  1.00  0.00     0.049 A 
HETATM    7  C6  UNL     1      23.513  -0.216  53.413  1.00  0.00     0.183 A 
HETATM    8  N1  UNL     1      23.072  -0.879  54.509  1.00  0.00    -0.217 NA
HETATM    9  C13 UNL     1      23.942  -1.293  55.462  1.00  0.00     0.236 A 
HETATM   10  N2  UNL     1      25.275  -1.054  55.343  1.00  0.00    -0.237 NA
HETATM   11  C14 UNL     1      25.727  -0.397  54.259  1.00  0.00     0.118 A 
ENDROOT
BRANCH   7  12
HETATM   12  O2  UNL     1      22.689   0.237  52.402  1.00  0.00    -0.291 OA
BRANCH  12  13
HETATM   13  C7  UNL     1      21.322  -0.000  52.434  1.00  0.00     0.081 A 
HETATM   14  C8  UNL     1      20.722  -0.573  53.535  1.00  0.00     0.039 A 
HETATM   15  C9  UNL     1      19.354  -0.772  53.477  1.00  0.00     0.025 A 
HETATM   16  C10 UNL     1      18.597  -0.421  52.377  1.00  0.00     0.049 A 
HETATM   17 BR1  UNL     1      16.702  -0.705  52.319  1.00  0.00    -0.048 Br
HETATM   18  C11 UNL     1      19.197   0.153  51.274  1.00  0.00     0.136 A 
HETATM   19  F1  UNL     1      18.508   0.514  50.176  1.00  0.00    -0.205 F 
HETATM   20  C12 UNL     1      20.565   0.355  51.326  1.00  0.00     0.081 A 
ENDBRANCH  12  13
ENDBRANCH   7  12
TORSDOF 2
ENDMDL
MODEL 9
REMARK VINA RESULT:      -7.3      2.837      3.351
REMARK  2 active torsions:
REMARK  status: ('A' for Active; 'I' for Inactive)
REMARK    1  A    between atoms: C6_7  and  O2_8 
REMARK    2  A    between atoms: O2_8  and  C7_9 
ROOT
HETATM    1  O1  UNL     1      18.417   3.641  51.990  1.00  0.00    -0.290 OA
HETATM    2  C1  UNL     1      19.298   2.792  51.745  1.00  0.00     0.182 A 
HETATM    3  C2  UNL     1      18.719   1.465  51.406  1.00  0.00     0.112 A 
HETATM    4  C3  UNL     1      19.830   0.529  51.131  1.00  0.00    -0.018 A 
HETATM    5  C4  UNL     1      21.131   0.767  51.165  1.00  0.00     0.015 A 
HETATM    6  C5  UNL     1      21.611   2.101  51.508  1.00  0.00     0.049 A 
HETATM    7  C6  UNL     1      22.962   2.370  51.549  1.00  0.00     0.183 A 
HETATM    8  N1  UNL     1      23.377   3.619  51.871  1.00  0.00    -0.217 NA
HETATM    9  C13 UNL     1      22.479   4.595  52.151  1.00  0.00     0.236 A 
HETATM   10  N2  UNL     1      21.143   4.346  52.115  1.00  0.00    -0.237 NA
HETATM   11  C14 UNL     1      20.716   3.110  51.797  1.00  0.00     0.118 A 
ENDROOT
BRANCH   7  12
HETATM   12  O2  UNL     1      23.815   1.327  51.252  1.00  0.00    -0.291 OA
BRANCH  12  13
HETATM   13  C7  UNL     1      24.948   1.089  52.020  1.00  0.00     0.081 A 
HETATM   14  C8  UNL     1      26.191   1.517  51.608  1.00  0.00     0.039 A 
HETATM   15  C9  UNL     1      27.262   1.235  52.437  1.00  0.00     0.025 A 
HETATM   16  C10 UNL     1      27.121   0.556  53.630  1.00  0.00     0.049 A 
HETATM   17 BR1  UNL     1      28.620   0.176  54.764  1.00  0.00    -0.048 Br
HETATM   18  C11 UNL     1      25.876   0.126  54.043  1.00  0.00     0.136 A 
HETATM   19  F1  UNL     1      25.681  -0.540  55.196  1.00  0.00    -0.205 F 
HETATM   20  C12 UNL     1      24.800   0.405  53.219  1.00  0.00     0.081 A 
ENDBRANCH  12  13
ENDBRANCH   7  12
TORSDOF 2
ENDMDL
