MODEL 1
REMARK VINA RESULT:      -7.8      0.000      0.000
REMARK  3 active torsions:
REMARK  status: ('A' for Active; 'I' for Inactive)
REMARK    1  A    between atoms: N1_1  and  C1_2 
REMARK    2  A    between atoms: C5_6  and  N2_7 
REMARK    3  A    between atoms: N2_7  and  C6_8 
ROOT
HETATM    1  C6  UNL     1      24.587   1.539  52.534  1.00  0.00     0.169 C 
HETATM    2  C7  UNL     1      23.445   0.950  52.825  1.00  0.00     0.170 C 
HETATM    3  N3  UNL     1      23.082  -0.434  52.610  1.00  0.00    -0.238 NA
HETATM    4  C8  UNL     1      21.859  -0.708  53.011  1.00  0.00     0.147 C 
HETATM    5  C9  UNL     1      21.055   0.155  52.113  1.00  0.00     0.071 C 
HETATM    6  N4  UNL     1      20.480   0.205  50.953  1.00  0.00    -0.243 NA
HETATM    7  C10 UNL     1      19.781   1.384  50.562  1.00  0.00     0.232 C 
HETATM    8  N5  UNL     1      20.193   2.494  50.078  1.00  0.00    -0.253 NA
HETATM    9  C11 UNL     1      21.581   2.712  49.840  1.00  0.00     0.137 C 
HETATM   10  C12 UNL     1      22.677   3.371  50.247  1.00  0.00     0.034 C 
HETATM   11 CL1  UNL     1      24.256   3.226  49.494  1.00  0.00    -0.087 Cl
HETATM   12  C13 UNL     1      22.902   4.331  51.340  1.00  0.00     0.099 C 
HETATM   13  C14 UNL     1      23.923   3.807  52.270  1.00  0.00     0.097 C 
HETATM   14  N6  UNL     1      24.656   2.936  52.850  1.00  0.00    -0.244 NA
HETATM   15  C15 UNL     1      20.973   1.351  53.025  1.00  0.00     0.182 C 
HETATM   16  N7  UNL     1      22.352   1.670  53.432  1.00  0.00    -0.366 N 
HETATM   17  H20 UNL     1      22.536   2.406  54.149  1.00  0.00     0.161 HD
ENDROOT
BRANCH   1  18
HETATM   18  N2  UNL     1      25.710   0.914  51.941  1.00  0.00    -0.367 N 
HETATM   19  H11 UNL     1      25.598   0.789  50.903  1.00  0.00     0.161 HD
BRANCH  18  20
HETATM   20  C5  UNL     1      26.755   0.588  52.892  1.00  0.00     0.085 C 
HETATM   21  C4  UNL     1      27.255  -0.784  52.591  1.00  0.00     0.025 C 
HETATM   22  C3  UNL     1      28.511  -1.165  53.306  1.00  0.00     0.004 C 
HETATM   23  C2  UNL     1      29.395  -0.042  53.737  1.00  0.00     0.035 C 
HETATM   24  C1  UNL     1      28.676   1.194  54.184  1.00  0.00     0.220 C 
HETATM   25  C16 UNL     1      27.839   1.635  52.976  1.00  0.00     0.060 C 
BRANCH  24  26
HETATM   26  N1  UNL     1      29.642   2.194  54.547  1.00  0.00     0.083 N 
HETATM   27  H1  UNL     1      30.622   1.910  54.339  1.00  0.00     0.313 HD
HETATM   28  H2  UNL     1      29.459   3.019  53.944  1.00  0.00     0.313 HD
ENDBRANCH  24  26
ENDBRANCH  18  20
ENDBRANCH   1  18
TORSDOF 3
ENDMDL
MODEL 2
REMARK VINA RESULT:      -7.4      3.434      5.621
REMARK  3 active torsions:
REMARK  status: ('A' for Active; 'I' for Inactive)
REMARK    1  A    between atoms: N1_1  and  C1_2 
REMARK    2  A    between atoms: C5_6  and  N2_7 
REMARK    3  A    between atoms: N2_7  and  C6_8 
ROOT
HETATM    1  C6  UNL     1      25.185   3.794  51.022  1.00  0.00     0.169 C 
HETATM    2  C7  UNL     1      25.885   3.093  51.889  1.00  0.00     0.170 C 
HETATM    3  N3  UNL     1      27.089   2.328  51.646  1.00  0.00    -0.238 NA
HETATM    4  C8  UNL     1      27.546   1.738  52.729  1.00  0.00     0.147 C 
HETATM    5  C9  UNL     1      26.433   0.812  53.051  1.00  0.00     0.071 C 
HETATM    6  N4  UNL     1      25.957  -0.369  52.814  1.00  0.00    -0.243 NA
HETATM    7  C10 UNL     1      24.747  -0.782  53.446  1.00  0.00     0.232 C 
HETATM    8  N5  UNL     1      23.521  -0.553  53.163  1.00  0.00    -0.253 NA
HETATM    9  C11 UNL     1      23.173   0.245  52.035  1.00  0.00     0.137 C 
HETATM   10  C12 UNL     1      22.682   1.428  51.634  1.00  0.00     0.034 C 
HETATM   11 CL1  UNL     1      22.459   1.889  49.955  1.00  0.00    -0.087 Cl
HETATM   12  C13 UNL     1      22.217   2.607  52.380  1.00  0.00     0.099 C 
HETATM   13  C14 UNL     1      23.022   3.790  52.009  1.00  0.00     0.097 C 
HETATM   14  N6  UNL     1      24.021   4.442  51.551  1.00  0.00    -0.244 NA
HETATM   15  C15 UNL     1      25.692   1.728  53.989  1.00  0.00     0.182 C 
HETATM   16  N7  UNL     1      25.503   3.003  53.278  1.00  0.00    -0.366 N 
HETATM   17  H20 UNL     1      25.099   3.830  53.771  1.00  0.00     0.161 HD
ENDROOT
BRANCH   1  18
HETATM   18  N2  UNL     1      25.484   3.940  49.645  1.00  0.00    -0.367 N 
HETATM   19  H11 UNL     1      25.087   3.159  49.064  1.00  0.00     0.161 HD
BRANCH  18  20
HETATM   20  C5  UNL     1      26.265   5.124  49.349  1.00  0.00     0.085 C 
HETATM   21  C4  UNL     1      27.566   4.697  48.760  1.00  0.00     0.025 C 
HETATM   22  C3  UNL     1      28.373   5.799  48.155  1.00  0.00     0.004 C 
HETATM   23  C2  UNL     1      27.616   6.999  47.694  1.00  0.00     0.035 C 
HETATM   24  C1  UNL     1      26.441   7.371  48.545  1.00  0.00     0.220 C 
HETATM   25  C16 UNL     1      25.519   6.144  48.523  1.00  0.00     0.060 C 
BRANCH  24  26
HETATM   26  N1  UNL     1      25.796   8.523  47.977  1.00  0.00     0.083 N 
HETATM   27  H1  UNL     1      25.232   8.300  47.131  1.00  0.00     0.313 HD
HETATM   28  H2  UNL     1      25.114   8.862  48.683  1.00  0.00     0.313 HD
ENDBRANCH  24  26
ENDBRANCH  18  20
ENDBRANCH   1  18
TORSDOF 3
ENDMDL
MODEL 3
REMARK VINA RESULT:      -7.2      3.173      5.334
REMARK  3 active torsions:
REMARK  status: ('A' for Active; 'I' for Inactive)
REMARK    1  A    between atoms: N1_1  and  C1_2 
REMARK    2  A    between atoms: C5_6  and  N2_7 
REMARK    3  A    between atoms: N2_7  and  C6_8 
ROOT
HETATM    1  C6  UNL     1      24.554   3.687  50.374  1.00  0.00     0.169 C 
HETATM    2  C7  UNL     1      24.810   4.762  49.657  1.00  0.00     0.170 C 
HETATM    3  N3  UNL     1      25.838   5.755  49.884  1.00  0.00    -0.238 NA
HETATM    4  C8  UNL     1      25.829   6.712  48.982  1.00  0.00     0.147 C 
HETATM    5  C9  UNL     1      24.497   7.323  49.214  1.00  0.00     0.071 C 
HETATM    6  N4  UNL     1      23.864   8.210  49.914  1.00  0.00    -0.243 NA
HETATM    7  C10 UNL     1      22.465   8.399  49.712  1.00  0.00     0.232 C 
HETATM    8  N5  UNL     1      21.450   7.757  50.150  1.00  0.00    -0.253 NA
HETATM    9  C11 UNL     1      21.617   6.628  51.004  1.00  0.00     0.137 C 
HETATM   10  C12 UNL     1      21.530   5.291  51.090  1.00  0.00     0.034 C 
HETATM   11 CL1  UNL     1      21.897   4.367  52.537  1.00  0.00    -0.087 Cl
HETATM   12  C13 UNL     1      21.139   4.263  50.113  1.00  0.00     0.099 C 
HETATM   13  C14 UNL     1      22.253   3.314  49.907  1.00  0.00     0.097 C 
HETATM   14  N6  UNL     1      23.458   2.887  49.913  1.00  0.00    -0.244 NA
HETATM   15  C15 UNL     1      23.738   6.506  48.202  1.00  0.00     0.182 C 
HETATM   16  N7  UNL     1      24.040   5.092  48.483  1.00  0.00    -0.366 N 
HETATM   17  H20 UNL     1      23.702   4.340  47.842  1.00  0.00     0.161 HD
ENDROOT
BRANCH   1  18
HETATM   18  N2  UNL     1      25.256   3.284  51.536  1.00  0.00    -0.367 N 
HETATM   19  H11 UNL     1      25.712   4.092  52.030  1.00  0.00     0.161 HD
BRANCH  18  20
HETATM   20  C5  UNL     1      25.187   1.857  51.783  1.00  0.00     0.085 C 
HETATM   21  C4  UNL     1      26.552   1.283  51.616  1.00  0.00     0.025 C 
HETATM   22  C3  UNL     1      26.705  -0.124  52.095  1.00  0.00     0.004 C 
HETATM   23  C2  UNL     1      25.746  -0.574  53.146  1.00  0.00     0.035 C 
HETATM   24  C1  UNL     1      24.361  -0.019  53.019  1.00  0.00     0.220 C 
HETATM   25  C16 UNL     1      24.526   1.505  53.094  1.00  0.00     0.060 C 
BRANCH  24  26
HETATM   26  N1  UNL     1      23.555  -0.514  54.101  1.00  0.00     0.083 N 
HETATM   27  H1  UNL     1      22.662   0.009  54.218  1.00  0.00     0.313 HD
HETATM   28  H2  UNL     1      23.278  -1.482  53.849  1.00  0.00     0.313 HD
ENDBRANCH  24  26
ENDBRANCH  18  20
ENDBRANCH   1  18
TORSDOF 3
ENDMDL
MODEL 4
REMARK VINA RESULT:      -7.1      2.202      3.837
REMARK  3 active torsions:
REMARK  status: ('A' for Active; 'I' for Inactive)
REMARK    1  A    between atoms: N1_1  and  C1_2 
REMARK    2  A    between atoms: C5_6  and  N2_7 
REMARK    3  A    between atoms: N2_7  and  C6_8 
ROOT
HETATM    1  C6  UNL     1      23.419   1.228  51.782  1.00  0.00     0.169 C 
HETATM    2  C7  UNL     1      23.443   2.252  50.953  1.00  0.00     0.170 C 
HETATM    3  N3  UNL     1      24.164   3.498  51.104  1.00  0.00    -0.238 NA
HETATM    4  C8  UNL     1      23.977   4.320  50.094  1.00  0.00     0.147 C 
HETATM    5  C9  UNL     1      22.520   4.580  50.193  1.00  0.00     0.071 C 
HETATM    6  N4  UNL     1      21.632   5.339  50.753  1.00  0.00    -0.243 NA
HETATM    7  C10 UNL     1      20.250   5.133  50.470  1.00  0.00     0.232 C 
HETATM    8  N5  UNL     1      19.403   4.297  50.937  1.00  0.00    -0.253 NA
HETATM    9  C11 UNL     1      19.790   3.347  51.926  1.00  0.00     0.137 C 
HETATM   10  C12 UNL     1      20.041   2.050  52.168  1.00  0.00     0.034 C 
HETATM   11 CL1  UNL     1      20.525   1.411  53.730  1.00  0.00    -0.087 Cl
HETATM   12  C13 UNL     1      19.998   0.860  51.305  1.00  0.00     0.099 C 
HETATM   13  C14 UNL     1      21.329   0.219  51.263  1.00  0.00     0.097 C 
HETATM   14  N6  UNL     1      22.599   0.125  51.373  1.00  0.00    -0.244 NA
HETATM   15  C15 UNL     1      22.071   3.492  49.254  1.00  0.00     0.182 C 
HETATM   16  N7  UNL     1      22.702   2.245  49.715  1.00  0.00    -0.366 N 
HETATM   17  H20 UNL     1      22.615   1.368  49.155  1.00  0.00     0.161 HD
ENDROOT
BRANCH   1  18
HETATM   18  N2  UNL     1      24.112   1.147  53.013  1.00  0.00    -0.367 N 
HETATM   19  H11 UNL     1      23.520   1.450  53.828  1.00  0.00     0.161 HD
BRANCH  18  20
HETATM   20  C5  UNL     1      25.474   0.667  52.876  1.00  0.00     0.085 C 
HETATM   21  C4  UNL     1      26.377   1.595  53.614  1.00  0.00     0.025 C 
HETATM   22  C3  UNL     1      27.775   1.098  53.794  1.00  0.00     0.004 C 
HETATM   23  C2  UNL     1      27.961  -0.383  53.764  1.00  0.00     0.035 C 
HETATM   24  C1  UNL     1      27.071  -1.113  52.805  1.00  0.00     0.220 C 
HETATM   25  C16 UNL     1      25.639  -0.785  53.251  1.00  0.00     0.060 C 
BRANCH  24  26
HETATM   26  N1  UNL     1      27.340  -2.522  52.895  1.00  0.00     0.083 N 
HETATM   27  H1  UNL     1      26.906  -3.071  52.123  1.00  0.00     0.313 HD
HETATM   28  H2  UNL     1      28.364  -2.639  52.776  1.00  0.00     0.313 HD
ENDBRANCH  24  26
ENDBRANCH  18  20
ENDBRANCH   1  18
TORSDOF 3
ENDMDL
MODEL 5
REMARK VINA RESULT:      -7.1      1.926      2.393
REMARK  3 active torsions:
REMARK  status: ('A' for Active; 'I' for Inactive)
REMARK    1  A    between atoms: N1_1  and  C1_2 
REMARK    2  A    between atoms: C5_6  and  N2_7 
REMARK    3  A    between atoms: N2_7  and  C6_8 
ROOT
HETATM    1  C6  UNL     1      23.898   3.682  52.474  1.00  0.00     0.169 C 
HETATM    2  C7  UNL     1      22.817   2.929  52.447  1.00  0.00     0.170 C 
HETATM    3  N3  UNL     1      22.694   1.539  52.828  1.00  0.00    -0.238 NA
HETATM    4  C8  UNL     1      21.472   1.076  52.681  1.00  0.00     0.147 C 
HETATM    5  C9  UNL     1      21.285   1.201  51.215  1.00  0.00     0.071 C 
HETATM    6  N4  UNL     1      21.468   0.594  50.085  1.00  0.00    -0.243 NA
HETATM    7  C10 UNL     1      21.067   1.228  48.873  1.00  0.00     0.232 C 
HETATM    8  N5  UNL     1      21.636   2.117  48.151  1.00  0.00    -0.253 NA
HETATM    9  C11 UNL     1      22.905   2.650  48.522  1.00  0.00     0.137 C 
HETATM   10  C12 UNL     1      23.550   3.728  48.994  1.00  0.00     0.034 C 
HETATM   11 CL1  UNL     1      25.281   3.804  49.270  1.00  0.00    -0.087 Cl
HETATM   12  C13 UNL     1      23.077   5.063  49.395  1.00  0.00     0.099 C 
HETATM   13  C14 UNL     1      23.412   5.311  50.813  1.00  0.00     0.097 C 
HETATM   14  N6  UNL     1      23.721   5.030  52.021  1.00  0.00    -0.244 NA
HETATM   15  C15 UNL     1      20.653   2.568  51.222  1.00  0.00     0.182 C 
HETATM   16  N7  UNL     1      21.544   3.444  52.001  1.00  0.00    -0.366 N 
HETATM   17  H20 UNL     1      21.260   4.423  52.227  1.00  0.00     0.161 HD
ENDROOT
BRANCH   1  18
HETATM   18  N2  UNL     1      25.183   3.264  52.896  1.00  0.00    -0.367 N 
HETATM   19  H11 UNL     1      25.824   4.074  53.092  1.00  0.00     0.161 HD
BRANCH  18  20
HETATM   20  C5  UNL     1      25.326   1.822  52.963  1.00  0.00     0.085 C 
HETATM   21  C4  UNL     1      26.183   1.380  51.827  1.00  0.00     0.025 C 
HETATM   22  C3  UNL     1      26.646  -0.039  51.905  1.00  0.00     0.004 C 
HETATM   23  C2  UNL     1      26.711  -0.640  53.269  1.00  0.00     0.035 C 
HETATM   24  C1  UNL     1      25.632  -0.198  54.208  1.00  0.00     0.220 C 
HETATM   25  C16 UNL     1      25.784   1.326  54.312  1.00  0.00     0.060 C 
BRANCH  24  26
HETATM   26  N1  UNL     1      25.828  -0.833  55.483  1.00  0.00     0.083 N 
HETATM   27  H1  UNL     1      26.752  -0.613  55.911  1.00  0.00     0.313 HD
HETATM   28  H2  UNL     1      25.121  -0.432  56.129  1.00  0.00     0.313 HD
ENDBRANCH  24  26
ENDBRANCH  18  20
ENDBRANCH   1  18
TORSDOF 3
ENDMDL
MODEL 6
REMARK VINA RESULT:      -7.1      2.188      3.404
REMARK  3 active torsions:
REMARK  status: ('A' for Active; 'I' for Inactive)
REMARK    1  A    between atoms: N1_1  and  C1_2 
REMARK    2  A    between atoms: C5_6  and  N2_7 
REMARK    3  A    between atoms: N2_7  and  C6_8 
ROOT
HETATM    1  C6  UNL     1      23.191   2.399  51.208  1.00  0.00     0.169 C 
HETATM    2  C7  UNL     1      22.202   2.415  50.338  1.00  0.00     0.170 C 
HETATM    3  N3  UNL     1      21.960   1.487  49.254  1.00  0.00    -0.238 NA
HETATM    4  C8  UNL     1      20.881   1.783  48.562  1.00  0.00     0.147 C 
HETATM    5  C9  UNL     1      21.245   3.107  48.002  1.00  0.00     0.071 C 
HETATM    6  N4  UNL     1      21.835   3.692  47.009  1.00  0.00    -0.243 NA
HETATM    7  C10 UNL     1      21.903   5.116  46.969  1.00  0.00     0.232 C 
HETATM    8  N5  UNL     1      22.690   5.944  47.543  1.00  0.00    -0.253 NA
HETATM    9  C11 UNL     1      23.729   5.484  48.402  1.00  0.00     0.137 C 
HETATM   10  C12 UNL     1      24.146   5.395  49.675  1.00  0.00     0.034 C 
HETATM   11 CL1  UNL     1      25.655   4.648  50.172  1.00  0.00    -0.087 Cl
HETATM   12  C13 UNL     1      23.549   5.844  50.942  1.00  0.00     0.099 C 
HETATM   13  C14 UNL     1      23.336   4.688  51.837  1.00  0.00     0.097 C 
HETATM   14  N6  UNL     1      23.182   3.463  52.169  1.00  0.00    -0.244 NA
HETATM   15  C15 UNL     1      20.644   3.947  49.098  1.00  0.00     0.182 C 
HETATM   16  N7  UNL     1      21.179   3.432  50.370  1.00  0.00    -0.366 N 
HETATM   17  H20 UNL     1      20.823   3.797  51.281  1.00  0.00     0.161 HD
ENDROOT
BRANCH   1  18
HETATM   18  N2  UNL     1      24.235   1.444  51.253  1.00  0.00    -0.367 N 
HETATM   19  H11 UNL     1      24.321   0.901  50.357  1.00  0.00     0.161 HD
BRANCH  18  20
HETATM   20  C5  UNL     1      24.947   1.429  52.516  1.00  0.00     0.085 C 
HETATM   21  C4  UNL     1      24.754   0.094  53.150  1.00  0.00     0.025 C 
HETATM   22  C3  UNL     1      25.638  -0.176  54.325  1.00  0.00     0.004 C 
HETATM   23  C2  UNL     1      26.922   0.583  54.376  1.00  0.00     0.035 C 
HETATM   24  C1  UNL     1      26.850   1.985  53.856  1.00  0.00     0.220 C 
HETATM   25  C16 UNL     1      26.390   1.854  52.398  1.00  0.00     0.060 C 
BRANCH  24  26
HETATM   26  N1  UNL     1      28.153   2.587  53.944  1.00  0.00     0.083 N 
HETATM   27  H1  UNL     1      28.473   3.000  53.043  1.00  0.00     0.313 HD
HETATM   28  H2  UNL     1      28.068   3.386  54.601  1.00  0.00     0.313 HD
ENDBRANCH  24  26
ENDBRANCH  18  20
ENDBRANCH   1  18
TORSDOF 3
ENDMDL
MODEL 7
REMARK VINA RESULT:      -7.0      3.971      5.243
REMARK  3 active torsions:
REMARK  status: ('A' for Active; 'I' for Inactive)
REMARK    1  A    between atoms: N1_1  and  C1_2 
REMARK    2  A    between atoms: C5_6  and  N2_7 
REMARK    3  A    between atoms: N2_7  and  C6_8 
ROOT
HETATM    1  C6  UNL     1      24.894   5.025  50.340  1.00  0.00     0.169 C 
HETATM    2  C7  UNL     1      24.982   3.981  51.139  1.00  0.00     0.170 C 
HETATM    3  N3  UNL     1      25.617   2.710  50.869  1.00  0.00    -0.238 NA
HETATM    4  C8  UNL     1      25.529   1.871  51.879  1.00  0.00     0.147 C 
HETATM    5  C9  UNL     1      24.062   1.676  51.972  1.00  0.00     0.071 C 
HETATM    6  N4  UNL     1      23.073   0.971  51.522  1.00  0.00    -0.243 NA
HETATM    7  C10 UNL     1      21.752   1.229  51.993  1.00  0.00     0.232 C 
HETATM    8  N5  UNL     1      20.890   2.112  51.659  1.00  0.00    -0.253 NA
HETATM    9  C11 UNL     1      21.185   3.069  50.645  1.00  0.00     0.137 C 
HETATM   10  C12 UNL     1      21.460   4.359  50.396  1.00  0.00     0.034 C 
HETATM   11 CL1  UNL     1      21.761   5.015  48.796  1.00  0.00    -0.087 Cl
HETATM   12  C13 UNL     1      21.588   5.528  51.279  1.00  0.00     0.099 C 
HETATM   13  C14 UNL     1      22.940   6.110  51.154  1.00  0.00     0.097 C 
HETATM   14  N6  UNL     1      24.187   6.152  50.876  1.00  0.00    -0.244 NA
HETATM   15  C15 UNL     1      23.792   2.759  52.984  1.00  0.00     0.182 C 
HETATM   16  N7  UNL     1      24.413   3.989  52.465  1.00  0.00    -0.366 N 
HETATM   17  H20 UNL     1      24.442   4.855  53.048  1.00  0.00     0.161 HD
ENDROOT
BRANCH   1  18
HETATM   18  N2  UNL     1      25.420   5.107  49.028  1.00  0.00    -0.367 N 
HETATM   19  H11 UNL     1      24.806   4.632  48.320  1.00  0.00     0.161 HD
BRANCH  18  20
HETATM   20  C5  UNL     1      26.679   5.823  48.957  1.00  0.00     0.085 C 
HETATM   21  C4  UNL     1      27.750   4.858  48.583  1.00  0.00     0.025 C 
HETATM   22  C3  UNL     1      29.055   5.482  48.207  1.00  0.00     0.004 C 
HETATM   23  C2  UNL     1      28.997   6.885  47.702  1.00  0.00     0.035 C 
HETATM   24  C1  UNL     1      27.962   7.750  48.353  1.00  0.00     0.220 C 
HETATM   25  C16 UNL     1      26.621   7.052  48.083  1.00  0.00     0.060 C 
BRANCH  24  26
HETATM   26  N1  UNL     1      28.001   9.059  47.759  1.00  0.00     0.083 N 
HETATM   27  H1  UNL     1      27.343   9.731  48.206  1.00  0.00     0.313 HD
HETATM   28  H2  UNL     1      28.950   9.439  47.938  1.00  0.00     0.313 HD
ENDBRANCH  24  26
ENDBRANCH  18  20
ENDBRANCH   1  18
TORSDOF 3
ENDMDL
MODEL 8
REMARK VINA RESULT:      -6.9      2.476      6.668
REMARK  3 active torsions:
REMARK  status: ('A' for Active; 'I' for Inactive)
REMARK    1  A    between atoms: N1_1  and  C1_2 
REMARK    2  A    between atoms: C5_6  and  N2_7 
REMARK    3  A    between atoms: N2_7  and  C6_8 
ROOT
HETATM    1  C6  UNL     1      23.800   3.102  50.651  1.00  0.00     0.169 C 
HETATM    2  C7  UNL     1      24.858   2.877  51.402  1.00  0.00     0.170 C 
HETATM    3  N3  UNL     1      26.153   2.385  50.985  1.00  0.00    -0.238 NA
HETATM    4  C8  UNL     1      27.000   2.268  51.984  1.00  0.00     0.147 C 
HETATM    5  C9  UNL     1      26.331   1.241  52.819  1.00  0.00     0.071 C 
HETATM    6  N4  UNL     1      26.205  -0.036  53.000  1.00  0.00    -0.243 NA
HETATM    7  C10 UNL     1      25.356  -0.519  54.038  1.00  0.00     0.232 C 
HETATM    8  N5  UNL     1      24.089  -0.684  54.091  1.00  0.00    -0.253 NA
HETATM    9  C11 UNL     1      23.267  -0.362  52.972  1.00  0.00     0.137 C 
HETATM   10  C12 UNL     1      22.357   0.497  52.486  1.00  0.00     0.034 C 
HETATM   11 CL1  UNL     1      21.633   0.373  50.892  1.00  0.00    -0.087 Cl
HETATM   12  C13 UNL     1      21.729   1.697  53.059  1.00  0.00     0.099 C 
HETATM   13  C14 UNL     1      22.023   2.873  52.215  1.00  0.00     0.097 C 
HETATM   14  N6  UNL     1      22.642   3.580  51.348  1.00  0.00    -0.244 NA
HETATM   15  C15 UNL     1      25.572   2.188  53.710  1.00  0.00     0.182 C 
HETATM   16  N7  UNL     1      24.843   3.113  52.826  1.00  0.00    -0.366 N 
HETATM   17  H20 UNL     1      24.324   3.927  53.223  1.00  0.00     0.161 HD
ENDROOT
BRANCH   1  18
HETATM   18  N2  UNL     1      23.724   2.902  49.252  1.00  0.00    -0.367 N 
HETATM   19  H11 UNL     1      24.352   2.126  48.923  1.00  0.00     0.161 HD
BRANCH  18  20
HETATM   20  C5  UNL     1      22.802   3.806  48.591  1.00  0.00     0.085 C 
HETATM   21  C4  UNL     1      23.511   5.088  48.322  1.00  0.00     0.025 C 
HETATM   22  C3  UNL     1      22.788   6.026  47.411  1.00  0.00     0.004 C 
HETATM   23  C2  UNL     1      21.814   5.411  46.464  1.00  0.00     0.035 C 
HETATM   24  C1  UNL     1      21.062   4.234  47.006  1.00  0.00     0.220 C 
HETATM   25  C16 UNL     1      22.136   3.203  47.378  1.00  0.00     0.060 C 
BRANCH  24  26
HETATM   26  N1  UNL     1      20.181   3.730  45.987  1.00  0.00     0.083 N 
HETATM   27  H1  UNL     1      19.175   3.905  46.194  1.00  0.00     0.313 HD
HETATM   28  H2  UNL     1      20.384   4.269  45.124  1.00  0.00     0.313 HD
ENDBRANCH  24  26
ENDBRANCH  18  20
ENDBRANCH   1  18
TORSDOF 3
ENDMDL
MODEL 9
REMARK VINA RESULT:      -6.8      9.443     11.171
REMARK  3 active torsions:
REMARK  status: ('A' for Active; 'I' for Inactive)
REMARK    1  A    between atoms: N1_1  and  C1_2 
REMARK    2  A    between atoms: C5_6  and  N2_7 
REMARK    3  A    between atoms: N2_7  and  C6_8 
ROOT
HETATM    1  C6  UNL     1      31.341   9.088  47.859  1.00  0.00     0.169 C 
HETATM    2  C7  UNL     1      30.825  10.292  48.000  1.00  0.00     0.170 C 
HETATM    3  N3  UNL     1      30.757  11.092  49.204  1.00  0.00    -0.238 NA
HETATM    4  C8  UNL     1      30.175  12.255  49.010  1.00  0.00     0.147 C 
HETATM    5  C9  UNL     1      28.806  11.838  48.620  1.00  0.00     0.071 C 
HETATM    6  N4  UNL     1      27.639  11.524  49.087  1.00  0.00    -0.243 NA
HETATM    7  C10 UNL     1      26.591  11.172  48.186  1.00  0.00     0.232 C 
HETATM    8  N5  UNL     1      26.321  10.076  47.585  1.00  0.00    -0.253 NA
HETATM    9  C11 UNL     1      27.141   8.925  47.769  1.00  0.00     0.137 C 
HETATM   10  C12 UNL     1      28.046   8.117  47.196  1.00  0.00     0.034 C 
HETATM   11 CL1  UNL     1      28.770   6.726  47.986  1.00  0.00    -0.087 Cl
HETATM   12  C13 UNL     1      28.668   8.120  45.863  1.00  0.00     0.099 C 
HETATM   13  C14 UNL     1      30.135   8.246  45.991  1.00  0.00     0.097 C 
HETATM   14  N6  UNL     1      31.253   8.531  46.541  1.00  0.00    -0.244 NA
HETATM   15  C15 UNL     1      29.031  11.821  47.131  1.00  0.00     0.182 C 
HETATM   16  N7  UNL     1      30.227  10.996  46.892  1.00  0.00    -0.366 N 
HETATM   17  H20 UNL     1      30.637  10.922  45.934  1.00  0.00     0.161 HD
ENDROOT
BRANCH   1  18
HETATM   18  N2  UNL     1      31.946   8.324  48.886  1.00  0.00    -0.367 N 
HETATM   19  H11 UNL     1      31.631   8.619  49.844  1.00  0.00     0.161 HD
BRANCH  18  20
HETATM   20  C5  UNL     1      32.859   7.313  48.389  1.00  0.00     0.085 C 
HETATM   21  C4  UNL     1      34.254   7.777  48.634  1.00  0.00     0.025 C 
HETATM   22  C3  UNL     1      35.307   6.737  48.424  1.00  0.00     0.004 C 
HETATM   23  C2  UNL     1      34.873   5.316  48.570  1.00  0.00     0.035 C 
HETATM   24  C1  UNL     1      33.487   5.025  48.083  1.00  0.00     0.220 C 
HETATM   25  C16 UNL     1      32.567   5.929  48.915  1.00  0.00     0.060 C 
BRANCH  24  26
HETATM   26  N1  UNL     1      33.194   3.634  48.303  1.00  0.00     0.083 N 
HETATM   27  H1  UNL     1      33.759   2.998  47.702  1.00  0.00     0.313 HD
HETATM   28  H2  UNL     1      33.480   3.420  49.278  1.00  0.00     0.313 HD
ENDBRANCH  24  26
ENDBRANCH  18  20
ENDBRANCH   1  18
TORSDOF 3
ENDMDL
