MODEL 1
REMARK VINA RESULT:      -7.4      0.000      0.000
REMARK  8 active torsions:
REMARK  status: ('A' for Active; 'I' for Inactive)
REMARK    1  A    between atoms: N1_1  and  C1_2 
REMARK    2  A    between atoms: C2_3  and  C3_4 
REMARK    3  A    between atoms: C3_4  and  C4_5 
REMARK    4  A    between atoms: C4_5  and  C5_6 
REMARK    5  A    between atoms: N4_12  and  C9_13 
REMARK    6  A    between atoms: C9_13  and  N5_14 
REMARK    7  A    between atoms: N5_14  and  C10_15 
REMARK    8  A    between atoms: C15_20  and  C16_21 
ROOT
HETATM    1  C3  UNL     1      25.591   2.549  51.025  1.00  0.00     0.037 C 
HETATM    2  N4  UNL     1      24.451   2.231  51.513  1.00  0.00    -0.274 NA
ENDROOT
BRANCH   1   3
HETATM    3  C2  UNL     1      25.615   3.107  49.679  1.00  0.00     0.043 C 
HETATM    4  C1  UNL     1      25.677   4.406  49.519  1.00  0.00     0.082 C 
BRANCH   4   5
HETATM    5  N1  UNL     1      25.732   5.498  50.425  1.00  0.00    -0.408 N 
HETATM    6  H1  UNL     1      25.162   6.355  50.549  1.00  0.00     0.155 HD
HETATM    7  H2  UNL     1      26.434   5.611  51.183  1.00  0.00     0.155 HD
ENDBRANCH   4   5
ENDBRANCH   1   3
BRANCH   1   8
HETATM    8  C4  UNL     1      26.818   2.356  51.798  1.00  0.00     0.113 C 
BRANCH   8   9
HETATM    9  C5  UNL     1      26.863   1.052  52.514  1.00  0.00     0.019 C 
HETATM   10  N2  UNL     1      26.905  -0.096  51.971  1.00  0.00    -0.276 NA
HETATM   11  C6  UNL     1      26.944  -1.270  52.831  1.00  0.00     0.296 C 
HETATM   12  N3  UNL     1      27.960  -0.985  53.814  1.00  0.00    -0.284 NA
HETATM   13  C7  UNL     1      27.961   0.145  54.417  1.00  0.00     0.091 C 
HETATM   14  C8  UNL     1      26.857   1.092  54.017  1.00  0.00     0.101 C 
ENDBRANCH   8   9
ENDBRANCH   1   8
BRANCH   2  15
HETATM   15  C9  UNL     1      23.203   2.400  50.798  1.00  0.00     0.270 C 
BRANCH  15  16
HETATM   16  N5  UNL     1      22.377   1.252  50.739  1.00  0.00    -0.377 N 
HETATM   17  H14 UNL     1      21.992   0.913  49.838  1.00  0.00     0.160 HD
BRANCH  16  18
HETATM   18  C10 UNL     1      22.067   0.537  51.967  1.00  0.00     0.005 A 
HETATM   19  C11 UNL     1      20.878   0.173  52.465  1.00  0.00     0.081 A 
HETATM   20  C12 UNL     1      21.457  -0.503  53.661  1.00  0.00     0.059 A 
HETATM   21  C15 UNL     1      22.170  -0.171  53.229  1.00  0.00     0.034 A 
HETATM   22  C13 UNL     1      22.530  -0.983  54.573  1.00  0.00     0.054 A 
HETATM   23  N6  UNL     1      20.237  -1.090  54.332  1.00  0.00    -0.408 N 
HETATM   24  C16 UNL     1      20.960   0.076  54.363  1.00  0.00     0.146 A 
HETATM   25  C14 UNL     1      23.489  -0.467  53.795  1.00  0.00    -0.027 A 
HETATM   26  H20 UNL     1      19.360  -1.536  54.801  1.00  0.00     0.154 HD
ENDBRANCH  16  18
ENDBRANCH  15  16
ENDBRANCH   2  15
TORSDOF 8
ENDMDL
MODEL 2
REMARK VINA RESULT:      -7.4      1.058      1.281
REMARK  8 active torsions:
REMARK  status: ('A' for Active; 'I' for Inactive)
REMARK    1  A    between atoms: N1_1  and  C1_2 
REMARK    2  A    between atoms: C2_3  and  C3_4 
REMARK    3  A    between atoms: C3_4  and  C4_5 
REMARK    4  A    between atoms: C4_5  and  C5_6 
REMARK    5  A    between atoms: N4_12  and  C9_13 
REMARK    6  A    between atoms: C9_13  and  N5_14 
REMARK    7  A    between atoms: N5_14  and  C10_15 
REMARK    8  A    between atoms: C15_20  and  C16_21 
ROOT
HETATM    1  C3  UNL     1      24.798   2.482  51.895  1.00  0.00     0.037 C 
HETATM    2  N4  UNL     1      24.231   2.096  50.814  1.00  0.00    -0.274 NA
ENDROOT
BRANCH   1   3
HETATM    3  C2  UNL     1      23.964   3.140  52.893  1.00  0.00     0.043 C 
HETATM    4  C1  UNL     1      23.743   4.428  52.804  1.00  0.00     0.082 C 
BRANCH   4   5
HETATM    5  N1  UNL     1      24.160   5.427  51.884  1.00  0.00    -0.408 N 
HETATM    6  H1  UNL     1      23.906   6.423  51.744  1.00  0.00     0.155 HD
HETATM    7  H2  UNL     1      24.861   5.290  51.130  1.00  0.00     0.155 HD
ENDBRANCH   4   5
ENDBRANCH   1   3
BRANCH   1   8
HETATM    8  C4  UNL     1      26.228   2.266  52.110  1.00  0.00     0.113 C 
BRANCH   8   9
HETATM    9  C5  UNL     1      26.539   0.940  52.710  1.00  0.00     0.019 C 
HETATM   10  N2  UNL     1      26.724  -0.142  52.070  1.00  0.00    -0.276 NA
HETATM   11  C6  UNL     1      27.020  -1.352  52.824  1.00  0.00     0.296 C 
HETATM   12  N3  UNL     1      28.049  -0.973  53.760  1.00  0.00    -0.284 NA
HETATM   13  C7  UNL     1      27.913   0.095  54.455  1.00  0.00     0.091 C 
HETATM   14  C8  UNL     1      26.643   0.870  54.207  1.00  0.00     0.101 C 
ENDBRANCH   8   9
ENDBRANCH   1   8
BRANCH   2  15
HETATM   15  C9  UNL     1      22.820   2.280  50.544  1.00  0.00     0.270 C 
BRANCH  15  16
HETATM   16  N5  UNL     1      22.046   1.095  50.526  1.00  0.00    -0.377 N 
HETATM   17  H14 UNL     1      21.663   0.716  49.640  1.00  0.00     0.160 HD
BRANCH  16  18
HETATM   18  C10 UNL     1      21.786   0.398  51.776  1.00  0.00     0.005 A 
HETATM   19  C11 UNL     1      20.617   0.072  52.345  1.00  0.00     0.081 A 
HETATM   20  C12 UNL     1      21.244  -0.613  53.511  1.00  0.00     0.059 A 
HETATM   21  C15 UNL     1      21.941  -0.305  53.036  1.00  0.00     0.034 A 
HETATM   22  C13 UNL     1      22.354  -1.118  54.364  1.00  0.00     0.054 A 
HETATM   23  N6  UNL     1      20.048  -1.159  54.255  1.00  0.00    -0.408 N 
HETATM   24  C16 UNL     1      20.805  -0.014  54.236  1.00  0.00     0.146 A 
HETATM   25  C14 UNL     1      23.281  -0.636  53.528  1.00  0.00    -0.027 A 
HETATM   26  H20 UNL     1      19.187  -1.575  54.778  1.00  0.00     0.154 HD
ENDBRANCH  16  18
ENDBRANCH  15  16
ENDBRANCH   2  15
TORSDOF 8
ENDMDL
MODEL 3
REMARK VINA RESULT:      -7.2      1.346      5.506
REMARK  8 active torsions:
REMARK  status: ('A' for Active; 'I' for Inactive)
REMARK    1  A    between atoms: N1_1  and  C1_2 
REMARK    2  A    between atoms: C2_3  and  C3_4 
REMARK    3  A    between atoms: C3_4  and  C4_5 
REMARK    4  A    between atoms: C4_5  and  C5_6 
REMARK    5  A    between atoms: N4_12  and  C9_13 
REMARK    6  A    between atoms: C9_13  and  N5_14 
REMARK    7  A    between atoms: N5_14  and  C10_15 
REMARK    8  A    between atoms: C15_20  and  C16_21 
ROOT
HETATM    1  C3  UNL     1      23.595  -0.123  53.538  1.00  0.00     0.037 C 
HETATM    2  N4  UNL     1      23.812   1.078  53.154  1.00  0.00    -0.274 NA
ENDROOT
BRANCH   1   3
HETATM    3  C2  UNL     1      22.405  -0.789  53.025  1.00  0.00     0.043 C 
HETATM    4  C1  UNL     1      21.274  -0.688  53.678  1.00  0.00     0.082 C 
BRANCH   4   5
HETATM    5  N1  UNL     1      20.897  -0.023  54.876  1.00  0.00    -0.408 N 
HETATM    6  H1  UNL     1      21.299   0.015  55.831  1.00  0.00     0.155 HD
HETATM    7  H2  UNL     1      20.067   0.593  54.981  1.00  0.00     0.155 HD
ENDBRANCH   4   5
ENDBRANCH   1   3
BRANCH   1   8
HETATM    8  C4  UNL     1      24.515  -0.794  54.458  1.00  0.00     0.113 C 
BRANCH   8   9
HETATM    9  C5  UNL     1      25.947  -0.561  54.130  1.00  0.00     0.019 C 
HETATM   10  N2  UNL     1      26.833  -0.123  54.929  1.00  0.00    -0.276 NA
HETATM   11  C6  UNL     1      28.192   0.045  54.435  1.00  0.00     0.296 C 
HETATM   12  N3  UNL     1      28.498  -1.184  53.745  1.00  0.00    -0.284 NA
HETATM   13  C7  UNL     1      27.658  -1.669  52.907  1.00  0.00     0.091 C 
HETATM   14  C8  UNL     1      26.391  -0.870  52.728  1.00  0.00     0.101 C 
ENDBRANCH   8   9
ENDBRANCH   1   8
BRANCH   2  15
HETATM   15  C9  UNL     1      22.939   1.793  52.245  1.00  0.00     0.270 C 
BRANCH  15  16
HETATM   16  N5  UNL     1      23.396   1.880  50.908  1.00  0.00    -0.377 N 
HETATM   17  H14 UNL     1      23.091   1.197  50.190  1.00  0.00     0.160 HD
BRANCH  16  18
HETATM   18  C10 UNL     1      24.309   2.950  50.538  1.00  0.00     0.005 A 
HETATM   19  C11 UNL     1      24.201   4.271  50.736  1.00  0.00     0.081 A 
HETATM   20  C12 UNL     1      25.518   4.588  50.114  1.00  0.00     0.059 A 
HETATM   21  C15 UNL     1      25.440   3.699  50.023  1.00  0.00     0.034 A 
HETATM   22  C13 UNL     1      26.813   4.306  49.437  1.00  0.00     0.054 A 
HETATM   23  N6  UNL     1      25.636   6.079  50.332  1.00  0.00    -0.408 N 
HETATM   24  C16 UNL     1      25.142   5.220  49.382  1.00  0.00     0.146 A 
HETATM   25  C14 UNL     1      26.570   2.990  49.416  1.00  0.00    -0.027 A 
HETATM   26  H20 UNL     1      25.733   7.149  50.512  1.00  0.00     0.154 HD
ENDBRANCH  16  18
ENDBRANCH  15  16
ENDBRANCH   2  15
TORSDOF 8
ENDMDL
MODEL 4
REMARK VINA RESULT:      -7.1      2.321      6.901
REMARK  8 active torsions:
REMARK  status: ('A' for Active; 'I' for Inactive)
REMARK    1  A    between atoms: N1_1  and  C1_2 
REMARK    2  A    between atoms: C2_3  and  C3_4 
REMARK    3  A    between atoms: C3_4  and  C4_5 
REMARK    4  A    between atoms: C4_5  and  C5_6 
REMARK    5  A    between atoms: N4_12  and  C9_13 
REMARK    6  A    between atoms: C9_13  and  N5_14 
REMARK    7  A    between atoms: N5_14  and  C10_15 
REMARK    8  A    between atoms: C15_20  and  C16_21 
ROOT
HETATM    1  C3  UNL     1      22.511  -0.042  52.579  1.00  0.00     0.037 C 
HETATM    2  N4  UNL     1      23.674   0.385  52.900  1.00  0.00    -0.274 NA
ENDROOT
BRANCH   1   3
HETATM    3  C2  UNL     1      22.002  -1.207  53.292  1.00  0.00     0.043 C 
HETATM    4  C1  UNL     1      21.210  -1.041  54.322  1.00  0.00     0.082 C 
BRANCH   4   5
HETATM    5  N1  UNL     1      20.681   0.108  54.968  1.00  0.00    -0.408 N 
HETATM    6  H1  UNL     1      21.062   0.781  55.659  1.00  0.00     0.155 HD
HETATM    7  H2  UNL     1      19.723   0.485  54.827  1.00  0.00     0.155 HD
ENDBRANCH   4   5
ENDBRANCH   1   3
BRANCH   1   8
HETATM    8  C4  UNL     1      21.730   0.622  51.536  1.00  0.00     0.113 C 
BRANCH   8   9
HETATM    9  C5  UNL     1      21.524   2.073  51.790  1.00  0.00     0.019 C 
HETATM   10  N2  UNL     1      22.311   3.010  51.443  1.00  0.00    -0.276 NA
HETATM   11  C6  UNL     1      21.948   4.379  51.777  1.00  0.00     0.296 C 
HETATM   12  N3  UNL     1      20.570   4.515  51.375  1.00  0.00    -0.284 NA
HETATM   13  C7  UNL     1      19.719   3.618  51.713  1.00  0.00     0.091 C 
HETATM   14  C8  UNL     1      20.274   2.473  52.523  1.00  0.00     0.101 C 
ENDBRANCH   8   9
ENDBRANCH   1   8
BRANCH   2  15
HETATM   15  C9  UNL     1      24.494  -0.229  53.925  1.00  0.00     0.270 C 
BRANCH  15  16
HETATM   16  N5  UNL     1      25.620  -0.945  53.453  1.00  0.00    -0.377 N 
HETATM   17  H14 UNL     1      25.516  -1.857  52.972  1.00  0.00     0.160 HD
BRANCH  16  18
HETATM   18  C10 UNL     1      26.949  -0.384  53.647  1.00  0.00     0.005 A 
HETATM   19  C11 UNL     1      27.307   0.825  54.101  1.00  0.00     0.081 A 
HETATM   20  C12 UNL     1      28.770   0.551  54.014  1.00  0.00     0.059 A 
HETATM   21  C15 UNL     1      28.386  -0.197  53.700  1.00  0.00     0.034 A 
HETATM   22  C13 UNL     1      29.997  -0.242  53.732  1.00  0.00     0.054 A 
HETATM   23  N6  UNL     1      29.376   1.806  54.597  1.00  0.00    -0.408 N 
HETATM   24  C16 UNL     1      28.987   1.333  53.369  1.00  0.00     0.146 A 
HETATM   25  C14 UNL     1      29.280  -1.299  53.331  1.00  0.00    -0.027 A 
HETATM   26  H20 UNL     1      29.812   2.700  55.042  1.00  0.00     0.154 HD
ENDBRANCH  16  18
ENDBRANCH  15  16
ENDBRANCH   2  15
TORSDOF 8
ENDMDL
MODEL 5
REMARK VINA RESULT:      -7.0      1.388      5.248
REMARK  8 active torsions:
REMARK  status: ('A' for Active; 'I' for Inactive)
REMARK    1  A    between atoms: N1_1  and  C1_2 
REMARK    2  A    between atoms: C2_3  and  C3_4 
REMARK    3  A    between atoms: C3_4  and  C4_5 
REMARK    4  A    between atoms: C4_5  and  C5_6 
REMARK    5  A    between atoms: N4_12  and  C9_13 
REMARK    6  A    between atoms: C9_13  and  N5_14 
REMARK    7  A    between atoms: N5_14  and  C10_15 
REMARK    8  A    between atoms: C15_20  and  C16_21 
ROOT
HETATM    1  C3  UNL     1      22.954   1.822  50.973  1.00  0.00     0.037 C 
HETATM    2  N4  UNL     1      24.173   1.879  51.358  1.00  0.00    -0.274 NA
ENDROOT
BRANCH   1   3
HETATM    3  C2  UNL     1      22.386   3.013  50.355  1.00  0.00     0.043 C 
HETATM    4  C1  UNL     1      21.533   3.746  51.026  1.00  0.00     0.082 C 
BRANCH   4   5
HETATM    5  N1  UNL     1      20.978   3.648  52.330  1.00  0.00    -0.408 N 
HETATM    6  H1  UNL     1      20.255   3.040  52.757  1.00  0.00     0.155 HD
HETATM    7  H2  UNL     1      21.248   4.241  53.140  1.00  0.00     0.155 HD
ENDBRANCH   4   5
ENDBRANCH   1   3
BRANCH   1   8
HETATM    8  C4  UNL     1      22.168   0.600  51.152  1.00  0.00     0.113 C 
BRANCH   8   9
HETATM    9  C5  UNL     1      21.910   0.271  52.580  1.00  0.00     0.019 C 
HETATM   10  N2  UNL     1      20.913   0.658  53.266  1.00  0.00    -0.276 NA
HETATM   11  C6  UNL     1      20.823   0.238  54.657  1.00  0.00     0.296 C 
HETATM   12  N3  UNL     1      21.081  -1.181  54.641  1.00  0.00    -0.284 NA
HETATM   13  C7  UNL     1      22.085  -1.636  53.988  1.00  0.00     0.091 C 
HETATM   14  C8  UNL     1      22.918  -0.599  53.278  1.00  0.00     0.101 C 
ENDBRANCH   8   9
ENDBRANCH   1   8
BRANCH   2  15
HETATM   15  C9  UNL     1      25.001   3.058  51.206  1.00  0.00     0.270 C 
BRANCH  15  16
HETATM   16  N5  UNL     1      26.358   2.899  51.577  1.00  0.00    -0.377 N 
HETATM   17  H14 UNL     1      27.073   3.602  51.316  1.00  0.00     0.160 HD
BRANCH  16  18
HETATM   18  C10 UNL     1      26.751   1.725  52.342  1.00  0.00     0.005 A 
HETATM   19  C11 UNL     1      27.359   1.647  53.533  1.00  0.00     0.081 A 
HETATM   20  C12 UNL     1      27.342   0.157  53.573  1.00  0.00     0.059 A 
HETATM   21  C15 UNL     1      26.974   0.360  52.780  1.00  0.00     0.034 A 
HETATM   22  C13 UNL     1      27.058  -1.220  53.085  1.00  0.00     0.054 A 
HETATM   23  N6  UNL     1      27.918  -0.144  54.937  1.00  0.00    -0.408 N 
HETATM   24  C16 UNL     1      28.370   0.040  53.654  1.00  0.00     0.146 A 
HETATM   25  C14 UNL     1      26.494  -0.757  51.962  1.00  0.00    -0.027 A 
HETATM   26  H20 UNL     1      28.310  -0.360  55.931  1.00  0.00     0.154 HD
ENDBRANCH  16  18
ENDBRANCH  15  16
ENDBRANCH   2  15
TORSDOF 8
ENDMDL
MODEL 6
REMARK VINA RESULT:      -7.0      3.136      6.814
REMARK  8 active torsions:
REMARK  status: ('A' for Active; 'I' for Inactive)
REMARK    1  A    between atoms: N1_1  and  C1_2 
REMARK    2  A    between atoms: C2_3  and  C3_4 
REMARK    3  A    between atoms: C3_4  and  C4_5 
REMARK    4  A    between atoms: C4_5  and  C5_6 
REMARK    5  A    between atoms: N4_12  and  C9_13 
REMARK    6  A    between atoms: C9_13  and  N5_14 
REMARK    7  A    between atoms: N5_14  and  C10_15 
REMARK    8  A    between atoms: C15_20  and  C16_21 
ROOT
HETATM    1  C3  UNL     1      24.929   2.625  52.286  1.00  0.00     0.037 C 
HETATM    2  N4  UNL     1      25.807   2.733  51.362  1.00  0.00    -0.274 NA
ENDROOT
BRANCH   1   3
HETATM    3  C2  UNL     1      23.603   3.168  52.021  1.00  0.00     0.043 C 
HETATM    4  C1  UNL     1      23.260   4.320  52.540  1.00  0.00     0.082 C 
BRANCH   4   5
HETATM    5  N1  UNL     1      23.934   5.253  53.374  1.00  0.00    -0.408 N 
HETATM    6  H1  UNL     1      23.818   6.267  53.554  1.00  0.00     0.155 HD
HETATM    7  H2  UNL     1      24.733   5.027  53.998  1.00  0.00     0.155 HD
ENDBRANCH   4   5
ENDBRANCH   1   3
BRANCH   1   8
HETATM    8  C4  UNL     1      25.254   1.977  53.557  1.00  0.00     0.113 C 
BRANCH   8   9
HETATM    9  C5  UNL     1      26.705   1.692  53.717  1.00  0.00     0.019 C 
HETATM   10  N2  UNL     1      27.604   2.540  54.012  1.00  0.00    -0.276 NA
HETATM   11  C6  UNL     1      28.981   2.081  54.127  1.00  0.00     0.296 C 
HETATM   12  N3  UNL     1      28.918   0.899  54.949  1.00  0.00    -0.284 NA
HETATM   13  C7  UNL     1      28.050  -0.009  54.692  1.00  0.00     0.091 C 
HETATM   14  C8  UNL     1      27.154   0.272  53.512  1.00  0.00     0.101 C 
ENDBRANCH   8   9
ENDBRANCH   1   8
BRANCH   2  15
HETATM   15  C9  UNL     1      25.544   3.361  50.083  1.00  0.00     0.270 C 
BRANCH  15  16
HETATM   16  N5  UNL     1      26.655   3.447  49.210  1.00  0.00    -0.377 N 
HETATM   17  H14 UNL     1      27.098   2.596  48.818  1.00  0.00     0.160 HD
BRANCH  16  18
HETATM   18  C10 UNL     1      27.179   4.757  48.854  1.00  0.00     0.005 A 
HETATM   19  C11 UNL     1      26.579   5.954  48.889  1.00  0.00     0.081 A 
HETATM   20  C12 UNL     1      27.783   6.700  48.425  1.00  0.00     0.059 A 
HETATM   21  C15 UNL     1      28.042   5.840  48.422  1.00  0.00     0.034 A 
HETATM   22  C13 UNL     1      29.189   6.877  47.969  1.00  0.00     0.054 A 
HETATM   23  N6  UNL     1      27.328   8.139  48.492  1.00  0.00    -0.408 N 
HETATM   24  C16 UNL     1      27.337   7.111  47.583  1.00  0.00     0.146 A 
HETATM   25  C14 UNL     1      29.435   5.565  48.059  1.00  0.00    -0.027 A 
HETATM   26  H20 UNL     1      27.007   9.178  48.566  1.00  0.00     0.154 HD
ENDBRANCH  16  18
ENDBRANCH  15  16
ENDBRANCH   2  15
TORSDOF 8
ENDMDL
MODEL 7
REMARK VINA RESULT:      -6.9      1.959      6.008
REMARK  8 active torsions:
REMARK  status: ('A' for Active; 'I' for Inactive)
REMARK    1  A    between atoms: N1_1  and  C1_2 
REMARK    2  A    between atoms: C2_3  and  C3_4 
REMARK    3  A    between atoms: C3_4  and  C4_5 
REMARK    4  A    between atoms: C4_5  and  C5_6 
REMARK    5  A    between atoms: N4_12  and  C9_13 
REMARK    6  A    between atoms: C9_13  and  N5_14 
REMARK    7  A    between atoms: N5_14  and  C10_15 
REMARK    8  A    between atoms: C15_20  and  C16_21 
ROOT
HETATM    1  C3  UNL     1      24.729   2.022  51.612  1.00  0.00     0.037 C 
HETATM    2  N4  UNL     1      24.863   3.252  51.943  1.00  0.00    -0.274 NA
ENDROOT
BRANCH   1   3
HETATM    3  C2  UNL     1      23.406   1.579  51.193  1.00  0.00     0.043 C 
HETATM    4  C1  UNL     1      22.643   0.931  52.037  1.00  0.00     0.082 C 
BRANCH   4   5
HETATM    5  N1  UNL     1      22.812   0.521  53.387  1.00  0.00    -0.408 N 
HETATM    6  H1  UNL     1      23.401   0.860  54.170  1.00  0.00     0.155 HD
HETATM    7  H2  UNL     1      22.314  -0.272  53.838  1.00  0.00     0.155 HD
ENDBRANCH   4   5
ENDBRANCH   1   3
BRANCH   1   8
HETATM    8  C4  UNL     1      25.868   1.106  51.656  1.00  0.00     0.113 C 
BRANCH   8   9
HETATM    9  C5  UNL     1      26.387   0.879  53.031  1.00  0.00     0.019 C 
HETATM   10  N2  UNL     1      25.823   0.189  53.937  1.00  0.00    -0.276 NA
HETATM   11  C6  UNL     1      26.478   0.075  55.232  1.00  0.00     0.296 C 
HETATM   12  N3  UNL     1      27.850  -0.253  54.935  1.00  0.00    -0.284 NA
HETATM   13  C7  UNL     1      28.486   0.420  54.049  1.00  0.00     0.091 C 
HETATM   14  C8  UNL     1      27.698   1.523  53.387  1.00  0.00     0.101 C 
ENDBRANCH   8   9
ENDBRANCH   1   8
BRANCH   2  15
HETATM   15  C9  UNL     1      23.773   4.206  51.918  1.00  0.00     0.270 C 
BRANCH  15  16
HETATM   16  N5  UNL     1      23.749   5.070  50.797  1.00  0.00    -0.377 N 
HETATM   17  H14 UNL     1      22.860   5.469  50.444  1.00  0.00     0.160 HD
BRANCH  16  18
HETATM   18  C10 UNL     1      24.999   5.406  50.132  1.00  0.00     0.005 A 
HETATM   19  C11 UNL     1      25.576   6.601  49.953  1.00  0.00     0.081 A 
HETATM   20  C12 UNL     1      26.771   6.048  49.253  1.00  0.00     0.059 A 
HETATM   21  C15 UNL     1      26.259   5.329  49.416  1.00  0.00     0.034 A 
HETATM   22  C13 UNL     1      27.647   4.996  48.670  1.00  0.00     0.054 A 
HETATM   23  N6  UNL     1      27.628   7.275  49.043  1.00  0.00    -0.408 N 
HETATM   24  C16 UNL     1      26.643   6.589  48.377  1.00  0.00     0.146 A 
HETATM   25  C14 UNL     1      26.797   4.025  49.021  1.00  0.00    -0.027 A 
HETATM   26  H20 UNL     1      28.258   8.155  48.915  1.00  0.00     0.154 HD
ENDBRANCH  16  18
ENDBRANCH  15  16
ENDBRANCH   2  15
TORSDOF 8
ENDMDL
MODEL 8
REMARK VINA RESULT:      -6.9      1.898      5.549
REMARK  8 active torsions:
REMARK  status: ('A' for Active; 'I' for Inactive)
REMARK    1  A    between atoms: N1_1  and  C1_2 
REMARK    2  A    between atoms: C2_3  and  C3_4 
REMARK    3  A    between atoms: C3_4  and  C4_5 
REMARK    4  A    between atoms: C4_5  and  C5_6 
REMARK    5  A    between atoms: N4_12  and  C9_13 
REMARK    6  A    between atoms: C9_13  and  N5_14 
REMARK    7  A    between atoms: N5_14  and  C10_15 
REMARK    8  A    between atoms: C15_20  and  C16_21 
ROOT
HETATM    1  C3  UNL     1      23.490   3.971  51.405  1.00  0.00     0.037 C 
HETATM    2  N4  UNL     1      24.458   3.133  51.414  1.00  0.00    -0.274 NA
ENDROOT
BRANCH   1   3
HETATM    3  C2  UNL     1      23.575   5.087  50.473  1.00  0.00     0.043 C 
HETATM    4  C1  UNL     1      23.971   6.260  50.903  1.00  0.00     0.082 C 
BRANCH   4   5
HETATM    5  N1  UNL     1      24.375   6.747  52.175  1.00  0.00    -0.408 N 
HETATM    6  H1  UNL     1      24.882   6.325  52.975  1.00  0.00     0.155 HD
HETATM    7  H2  UNL     1      24.200   7.707  52.530  1.00  0.00     0.155 HD
ENDBRANCH   4   5
ENDBRANCH   1   3
BRANCH   1   8
HETATM    8  C4  UNL     1      22.346   3.804  52.302  1.00  0.00     0.113 C 
BRANCH   8   9
HETATM    9  C5  UNL     1      21.480   2.649  51.941  1.00  0.00     0.019 C 
HETATM   10  N2  UNL     1      20.692   2.590  50.946  1.00  0.00    -0.276 NA
HETATM   11  C6  UNL     1      19.917   1.374  50.746  1.00  0.00     0.296 C 
HETATM   12  N3  UNL     1      20.863   0.295  50.881  1.00  0.00    -0.284 NA
HETATM   13  C7  UNL     1      21.672   0.280  51.874  1.00  0.00     0.091 C 
HETATM   14  C8  UNL     1      21.541   1.439  52.831  1.00  0.00     0.101 C 
ENDBRANCH   8   9
ENDBRANCH   1   8
BRANCH   2  15
HETATM   15  C9  UNL     1      25.615   3.245  50.550  1.00  0.00     0.270 C 
BRANCH  15  16
HETATM   16  N5  UNL     1      26.867   3.252  51.210  1.00  0.00    -0.377 N 
HETATM   17  H14 UNL     1      27.554   4.012  51.053  1.00  0.00     0.160 HD
BRANCH  16  18
HETATM   18  C10 UNL     1      27.191   2.170  52.128  1.00  0.00     0.005 A 
HETATM   19  C11 UNL     1      27.836   2.212  53.301  1.00  0.00     0.081 A 
HETATM   20  C12 UNL     1      27.698   0.750  53.560  1.00  0.00     0.059 A 
HETATM   21  C15 UNL     1      27.318   0.869  52.755  1.00  0.00     0.034 A 
HETATM   22  C13 UNL     1      27.282  -0.653  53.286  1.00  0.00     0.054 A 
HETATM   23  N6  UNL     1      28.300   0.600  54.938  1.00  0.00    -0.408 N 
HETATM   24  C16 UNL     1      28.715   0.557  53.630  1.00  0.00     0.146 A 
HETATM   25  C14 UNL     1      26.715  -0.309  52.124  1.00  0.00    -0.027 A 
HETATM   26  H20 UNL     1      28.710   0.496  55.942  1.00  0.00     0.154 HD
ENDBRANCH  16  18
ENDBRANCH  15  16
ENDBRANCH   2  15
TORSDOF 8
ENDMDL
MODEL 9
REMARK VINA RESULT:      -6.6      1.575      4.902
REMARK  8 active torsions:
REMARK  status: ('A' for Active; 'I' for Inactive)
REMARK    1  A    between atoms: N1_1  and  C1_2 
REMARK    2  A    between atoms: C2_3  and  C3_4 
REMARK    3  A    between atoms: C3_4  and  C4_5 
REMARK    4  A    between atoms: C4_5  and  C5_6 
REMARK    5  A    between atoms: N4_12  and  C9_13 
REMARK    6  A    between atoms: C9_13  and  N5_14 
REMARK    7  A    between atoms: N5_14  and  C10_15 
REMARK    8  A    between atoms: C15_20  and  C16_21 
ROOT
HETATM    1  C3  UNL     1      23.320   2.764  51.470  1.00  0.00     0.037 C 
HETATM    2  N4  UNL     1      24.234   2.643  50.583  1.00  0.00    -0.274 NA
ENDROOT
BRANCH   1   3
HETATM    3  C2  UNL     1      23.647   3.512  52.676  1.00  0.00     0.043 C 
HETATM    4  C1  UNL     1      23.233   4.748  52.803  1.00  0.00     0.082 C 
BRANCH   4   5
HETATM    5  N1  UNL     1      22.472   5.612  51.971  1.00  0.00    -0.408 N 
HETATM    6  H1  UNL     1      22.253   5.619  50.957  1.00  0.00     0.155 HD
HETATM    7  H2  UNL     1      21.965   6.459  52.293  1.00  0.00     0.155 HD
ENDBRANCH   4   5
ENDBRANCH   1   3
BRANCH   1   8
HETATM    8  C4  UNL     1      21.998   2.170  51.270  1.00  0.00     0.113 C 
BRANCH   8   9
HETATM    9  C5  UNL     1      21.800   0.905  52.028  1.00  0.00     0.019 C 
HETATM   10  N2  UNL     1      22.680   0.307  52.722  1.00  0.00    -0.276 NA
HETATM   11  C6  UNL     1      22.309  -0.927  53.399  1.00  0.00     0.296 C 
HETATM   12  N3  UNL     1      21.059  -0.637  54.056  1.00  0.00    -0.284 NA
HETATM   13  C7  UNL     1      20.119  -0.057  53.406  1.00  0.00     0.091 C 
HETATM   14  C8  UNL     1      20.437   0.274  51.969  1.00  0.00     0.101 C 
ENDBRANCH   8   9
ENDBRANCH   1   8
BRANCH   2  15
HETATM   15  C9  UNL     1      25.560   3.209  50.724  1.00  0.00     0.270 C 
BRANCH  15  16
HETATM   16  N5  UNL     1      26.618   2.270  50.780  1.00  0.00    -0.377 N 
HETATM   17  H14 UNL     1      27.388   2.284  50.086  1.00  0.00     0.160 HD
BRANCH  16  18
HETATM   18  C10 UNL     1      26.622   1.268  51.836  1.00  0.00     0.005 A 
HETATM   19  C11 UNL     1      26.828  -0.053  51.758  1.00  0.00     0.081 A 
HETATM   20  C12 UNL     1      26.699  -0.277  53.226  1.00  0.00     0.059 A 
HETATM   21  C15 UNL     1      26.549   0.602  53.123  1.00  0.00     0.034 A 
HETATM   22  C13 UNL     1      26.485   0.095  54.651  1.00  0.00     0.054 A 
HETATM   23  N6  UNL     1      27.007  -1.750  53.364  1.00  0.00    -0.408 N 
HETATM   24  C16 UNL     1      25.910  -0.948  53.163  1.00  0.00     0.146 A 
HETATM   25  C14 UNL     1      26.328   1.387  54.340  1.00  0.00    -0.027 A 
HETATM   26  H20 UNL     1      27.254  -2.806  53.467  1.00  0.00     0.154 HD
ENDBRANCH  16  18
ENDBRANCH  15  16
ENDBRANCH   2  15
TORSDOF 8
ENDMDL
