MODEL 1
REMARK VINA RESULT:     -10.2      0.000      0.000
REMARK  3 active torsions:
REMARK  status: ('A' for Active; 'I' for Inactive)
REMARK    1  A    between atoms: C3_4  and  C4_5 
REMARK    2  A    between atoms: C5_6  and  N2_7 
REMARK    3  A    between atoms: N2_7  and  C6_8 
ROOT
HETATM    1  C4  UNL     1      24.300   0.842  52.651  1.00  0.00     0.016 A 
HETATM    2  C5  UNL     1      23.991   1.558  51.515  1.00  0.00     0.045 A 
HETATM    3  C14 UNL     1      22.716   1.480  51.000  1.00  0.00     0.033 A 
HETATM    4  C15 UNL     1      21.788   0.676  51.656  1.00  0.00     0.035 A 
HETATM    5  C16 UNL     1      22.066  -0.056  52.798  1.00  0.00     0.067 A 
HETATM    6  N5  UNL     1      21.129  -0.815  53.388  1.00  0.00    -0.260 NA
HETATM    7  C17 UNL     1      21.405  -1.527  54.506  1.00  0.00     0.117 A 
HETATM    8  C18 UNL     1      22.677  -1.467  55.045  1.00  0.00     0.020 A 
HETATM    9  C19 UNL     1      23.623  -0.682  54.423  1.00  0.00     0.016 A 
HETATM   10  C20 UNL     1      23.361   0.051  53.282  1.00  0.00     0.006 A 
ENDROOT
BRANCH   2  11
HETATM   11  N2  UNL     1      24.996   2.359  50.911  1.00  0.00    -0.339 N 
HETATM   12  H5  UNL     1      25.873   1.931  50.544  1.00  0.00     0.167 HD
BRANCH  11  13
HETATM   13  C6  UNL     1      24.939   3.747  50.742  1.00  0.00     0.142 A 
HETATM   14  N3  UNL     1      23.918   4.301  51.420  1.00  0.00    -0.224 NA
HETATM   15  C7  UNL     1      23.699   5.648  51.380  1.00  0.00     0.236 A 
HETATM   16  N4  UNL     1      24.505   6.447  50.660  1.00  0.00    -0.241 NA
HETATM   17  C8  UNL     1      25.535   5.914  49.975  1.00  0.00     0.072 A 
HETATM   18  C9  UNL     1      26.390   6.708  49.223  1.00  0.00     0.032 A 
HETATM   19  C13 UNL     1      25.775   4.556  50.000  1.00  0.00     0.039 A 
HETATM   20  C10 UNL     1      27.422   6.092  48.548  1.00  0.00     0.002 A 
HETATM   21  C11 UNL     1      27.636   4.725  48.594  1.00  0.00     0.001 A 
HETATM   22  C12 UNL     1      26.785   3.915  49.347  1.00  0.00     0.018 A 
ENDBRANCH  11  13
ENDBRANCH   2  11
BRANCH   1  23
HETATM   23  C3  UNL     1      25.611   0.836  53.298  1.00  0.00     0.014 A 
HETATM   24  C2  UNL     1      26.636  -0.086  53.196  1.00  0.00     0.125 A 
HETATM   25  N1  UNL     1      27.681   0.266  53.952  1.00  0.00    -0.285 N 
HETATM   26  C1  UNL     1      28.945  -0.393  54.144  1.00  0.00     0.179 C 
HETATM   27  N6  UNL     1      27.347   1.399  54.536  1.00  0.00    -0.185 NA
HETATM   28  C21 UNL     1      26.098   1.786  54.171  1.00  0.00     0.152 A 
ENDBRANCH   1  23
TORSDOF 3
ENDMDL
MODEL 2
REMARK VINA RESULT:      -9.8      2.191      5.870
REMARK  3 active torsions:
REMARK  status: ('A' for Active; 'I' for Inactive)
REMARK    1  A    between atoms: C3_4  and  C4_5 
REMARK    2  A    between atoms: C5_6  and  N2_7 
REMARK    3  A    between atoms: N2_7  and  C6_8 
ROOT
HETATM    1  C4  UNL     1      23.634   1.699  51.662  1.00  0.00     0.016 A 
HETATM    2  C5  UNL     1      24.902   2.176  51.916  1.00  0.00     0.045 A 
HETATM    3  C14 UNL     1      25.560   2.885  50.936  1.00  0.00     0.033 A 
HETATM    4  C15 UNL     1      24.911   3.092  49.722  1.00  0.00     0.035 A 
HETATM    5  C16 UNL     1      23.638   2.627  49.436  1.00  0.00     0.067 A 
HETATM    6  N5  UNL     1      23.061   2.858  48.245  1.00  0.00    -0.260 NA
HETATM    7  C17 UNL     1      21.817   2.402  47.969  1.00  0.00     0.117 A 
HETATM    8  C18 UNL     1      21.132   1.688  48.935  1.00  0.00     0.020 A 
HETATM    9  C19 UNL     1      21.743   1.462  50.149  1.00  0.00     0.016 A 
HETATM   10  C20 UNL     1      23.012   1.918  50.449  1.00  0.00     0.006 A 
ENDROOT
BRANCH   2  11
HETATM   11  N2  UNL     1      25.491   1.925  53.184  1.00  0.00    -0.339 N 
HETATM   12  H5  UNL     1      24.957   2.089  54.065  1.00  0.00     0.167 HD
BRANCH  11  13
HETATM   13  C6  UNL     1      26.790   1.452  53.398  1.00  0.00     0.142 A 
HETATM   14  N3  UNL     1      27.612   2.411  53.858  1.00  0.00    -0.224 NA
HETATM   15  C7  UNL     1      28.923   2.140  54.129  1.00  0.00     0.236 A 
HETATM   16  N4  UNL     1      29.415   0.903  53.941  1.00  0.00    -0.241 NA
HETATM   17  C8  UNL     1      28.608  -0.074  53.484  1.00  0.00     0.072 A 
HETATM   18  C9  UNL     1      29.080  -1.363  53.279  1.00  0.00     0.032 A 
HETATM   19  C13 UNL     1      27.281   0.177  53.202  1.00  0.00     0.039 A 
HETATM   20  C10 UNL     1      28.196  -2.311  52.809  1.00  0.00     0.002 A 
HETATM   21  C11 UNL     1      26.869  -2.027  52.536  1.00  0.00     0.001 A 
HETATM   22  C12 UNL     1      26.381  -0.734  52.737  1.00  0.00     0.018 A 
ENDBRANCH  11  13
ENDBRANCH   2  11
BRANCH   1  23
HETATM   23  C3  UNL     1      22.829   0.934  52.612  1.00  0.00     0.014 A 
HETATM   24  C2  UNL     1      22.943  -0.390  52.991  1.00  0.00     0.125 A 
HETATM   25  N1  UNL     1      22.008  -0.719  53.890  1.00  0.00    -0.285 N 
HETATM   26  C1  UNL     1      21.759  -1.973  54.546  1.00  0.00     0.179 C 
HETATM   27  N6  UNL     1      21.297   0.371  54.094  1.00  0.00    -0.185 NA
HETATM   28  C21 UNL     1      21.756   1.402  53.341  1.00  0.00     0.152 A 
ENDBRANCH   1  23
TORSDOF 3
ENDMDL
MODEL 3
REMARK VINA RESULT:      -9.4      1.426      3.826
REMARK  3 active torsions:
REMARK  status: ('A' for Active; 'I' for Inactive)
REMARK    1  A    between atoms: C3_4  and  C4_5 
REMARK    2  A    between atoms: C5_6  and  N2_7 
REMARK    3  A    between atoms: N2_7  and  C6_8 
ROOT
HETATM    1  C4  UNL     1      23.434   1.023  52.348  1.00  0.00     0.016 A 
HETATM    2  C5  UNL     1      24.469   1.621  51.663  1.00  0.00     0.045 A 
HETATM    3  C14 UNL     1      25.765   1.379  52.061  1.00  0.00     0.033 A 
HETATM    4  C15 UNL     1      25.974   0.533  53.146  1.00  0.00     0.035 A 
HETATM    5  C16 UNL     1      24.957  -0.084  53.855  1.00  0.00     0.067 A 
HETATM    6  N5  UNL     1      25.219  -0.893  54.895  1.00  0.00    -0.260 NA
HETATM    7  C17 UNL     1      24.221  -1.494  55.584  1.00  0.00     0.117 A 
HETATM    8  C18 UNL     1      22.911  -1.269  55.205  1.00  0.00     0.020 A 
HETATM    9  C19 UNL     1      22.664  -0.436  54.136  1.00  0.00     0.016 A 
HETATM   10  C20 UNL     1      23.668   0.187  53.421  1.00  0.00     0.006 A 
ENDROOT
BRANCH   2  11
HETATM   11  N2  UNL     1      24.168   2.468  50.563  1.00  0.00    -0.339 N 
HETATM   12  H5  UNL     1      23.796   2.077  49.671  1.00  0.00     0.167 HD
BRANCH  11  13
HETATM   13  C6  UNL     1      24.326   3.858  50.539  1.00  0.00     0.142 A 
HETATM   14  N3  UNL     1      23.335   4.494  51.188  1.00  0.00    -0.224 NA
HETATM   15  C7  UNL     1      23.316   5.857  51.276  1.00  0.00     0.236 A 
HETATM   16  N4  UNL     1      24.293   6.588  50.712  1.00  0.00    -0.241 NA
HETATM   17  C8  UNL     1      25.296   5.972  50.058  1.00  0.00     0.072 A 
HETATM   18  C9  UNL     1      26.322   6.694  49.465  1.00  0.00     0.032 A 
HETATM   19  C13 UNL     1      25.336   4.597  49.956  1.00  0.00     0.039 A 
HETATM   20  C10 UNL     1      27.315   5.995  48.813  1.00  0.00     0.002 A 
HETATM   21  C11 UNL     1      27.326   4.613  48.729  1.00  0.00     0.001 A 
HETATM   22  C12 UNL     1      26.300   3.874  49.321  1.00  0.00     0.018 A 
ENDBRANCH  11  13
ENDBRANCH   2  11
BRANCH   1  23
HETATM   23  C3  UNL     1      22.018   1.196  52.029  1.00  0.00     0.014 A 
HETATM   24  C2  UNL     1      21.232   0.511  51.121  1.00  0.00     0.125 A 
HETATM   25  N1  UNL     1      19.977   0.972  51.122  1.00  0.00    -0.285 N 
HETATM   26  C1  UNL     1      18.840   0.557  50.345  1.00  0.00     0.179 C 
HETATM   27  N6  UNL     1      19.942   1.941  52.015  1.00  0.00    -0.185 NA
HETATM   28  C21 UNL     1      21.158   2.115  52.593  1.00  0.00     0.152 A 
ENDBRANCH   1  23
TORSDOF 3
ENDMDL
MODEL 4
REMARK VINA RESULT:      -9.4      2.624      5.631
REMARK  3 active torsions:
REMARK  status: ('A' for Active; 'I' for Inactive)
REMARK    1  A    between atoms: C3_4  and  C4_5 
REMARK    2  A    between atoms: C5_6  and  N2_7 
REMARK    3  A    between atoms: N2_7  and  C6_8 
ROOT
HETATM    1  C4  UNL     1      23.256   0.809  52.838  1.00  0.00     0.016 A 
HETATM    2  C5  UNL     1      24.492   0.526  53.379  1.00  0.00     0.045 A 
HETATM    3  C14 UNL     1      24.597  -0.465  54.329  1.00  0.00     0.033 A 
HETATM    4  C15 UNL     1      23.441  -1.145  54.703  1.00  0.00     0.035 A 
HETATM    5  C16 UNL     1      22.186  -0.886  54.180  1.00  0.00     0.067 A 
HETATM    6  N5  UNL     1      21.105  -1.576  54.579  1.00  0.00    -0.260 NA
HETATM    7  C17 UNL     1      19.880  -1.320  54.064  1.00  0.00     0.117 A 
HETATM    8  C18 UNL     1      19.746  -0.330  53.108  1.00  0.00     0.020 A 
HETATM    9  C19 UNL     1      20.867   0.366  52.713  1.00  0.00     0.016 A 
HETATM   10  C20 UNL     1      22.125   0.120  53.227  1.00  0.00     0.006 A 
ENDROOT
BRANCH   2  11
HETATM   11  N2  UNL     1      25.622   1.265  52.937  1.00  0.00    -0.339 N 
HETATM   12  H5  UNL     1      25.516   2.057  52.267  1.00  0.00     0.167 HD
BRANCH  11  13
HETATM   13  C6  UNL     1      26.947   1.034  53.325  1.00  0.00     0.142 A 
HETATM   14  N3  UNL     1      27.528   2.136  53.832  1.00  0.00    -0.224 NA
HETATM   15  C7  UNL     1      28.821   2.108  54.268  1.00  0.00     0.236 A 
HETATM   16  N4  UNL     1      29.539   0.973  54.198  1.00  0.00    -0.241 NA
HETATM   17  C8  UNL     1      28.976  -0.143  53.695  1.00  0.00     0.072 A 
HETATM   18  C9  UNL     1      29.685  -1.333  53.608  1.00  0.00     0.032 A 
HETATM   19  C13 UNL     1      27.671  -0.138  53.248  1.00  0.00     0.039 A 
HETATM   20  C10 UNL     1      29.043  -2.434  53.083  1.00  0.00     0.002 A 
HETATM   21  C11 UNL     1      27.731  -2.396  52.642  1.00  0.00     0.001 A 
HETATM   22  C12 UNL     1      27.006  -1.205  52.723  1.00  0.00     0.018 A 
ENDBRANCH  11  13
ENDBRANCH   2  11
BRANCH   1  23
HETATM   23  C3  UNL     1      23.008   1.834  51.826  1.00  0.00     0.014 A 
HETATM   24  C2  UNL     1      23.039   1.732  50.448  1.00  0.00     0.125 A 
HETATM   25  N1  UNL     1      22.756   2.904  49.870  1.00  0.00    -0.285 N 
HETATM   26  C1  UNL     1      22.678   3.251  48.476  1.00  0.00     0.179 C 
HETATM   27  N6  UNL     1      22.542   3.756  50.851  1.00  0.00    -0.185 NA
HETATM   28  C21 UNL     1      22.683   3.154  52.059  1.00  0.00     0.152 A 
ENDBRANCH   1  23
TORSDOF 3
ENDMDL
MODEL 5
REMARK VINA RESULT:      -8.8      2.720      6.857
REMARK  3 active torsions:
REMARK  status: ('A' for Active; 'I' for Inactive)
REMARK    1  A    between atoms: C3_4  and  C4_5 
REMARK    2  A    between atoms: C5_6  and  N2_7 
REMARK    3  A    between atoms: N2_7  and  C6_8 
ROOT
HETATM    1  C4  UNL     1      23.200   0.910  52.707  1.00  0.00     0.016 A 
HETATM    2  C5  UNL     1      22.170   0.450  53.498  1.00  0.00     0.045 A 
HETATM    3  C14 UNL     1      22.430  -0.522  54.439  1.00  0.00     0.033 A 
HETATM    4  C15 UNL     1      23.733  -0.999  54.551  1.00  0.00     0.035 A 
HETATM    5  C16 UNL     1      24.790  -0.557  53.772  1.00  0.00     0.067 A 
HETATM    6  N5  UNL     1      26.028  -1.054  53.926  1.00  0.00    -0.260 NA
HETATM    7  C17 UNL     1      27.058  -0.619  53.164  1.00  0.00     0.117 A 
HETATM    8  C18 UNL     1      26.825   0.356  52.212  1.00  0.00     0.020 A 
HETATM    9  C19 UNL     1      25.547   0.852  52.070  1.00  0.00     0.016 A 
HETATM   10  C20 UNL     1      24.484   0.420  52.838  1.00  0.00     0.006 A 
ENDROOT
BRANCH   2  11
HETATM   11  N2  UNL     1      20.870   0.994  53.321  1.00  0.00    -0.339 N 
HETATM   12  H5  UNL     1      20.675   1.996  53.532  1.00  0.00     0.167 HD
BRANCH  11  13
HETATM   13  C6  UNL     1      19.748   0.291  52.868  1.00  0.00     0.142 A 
HETATM   14  N3  UNL     1      19.415  -0.721  53.688  1.00  0.00    -0.224 NA
HETATM   15  C7  UNL     1      18.344  -1.522  53.414  1.00  0.00     0.236 A 
HETATM   16  N4  UNL     1      17.601  -1.311  52.314  1.00  0.00    -0.241 NA
HETATM   17  C8  UNL     1      17.915  -0.303  51.478  1.00  0.00     0.072 A 
HETATM   18  C9  UNL     1      17.171  -0.054  50.334  1.00  0.00     0.032 A 
HETATM   19  C13 UNL     1      18.993   0.519  51.735  1.00  0.00     0.039 A 
HETATM   20  C10 UNL     1      17.553   0.996  49.527  1.00  0.00     0.002 A 
HETATM   21  C11 UNL     1      18.640   1.803  49.813  1.00  0.00     0.001 A 
HETATM   22  C12 UNL     1      19.398   1.564  50.960  1.00  0.00     0.018 A 
ENDBRANCH  11  13
ENDBRANCH   2  11
BRANCH   1  23
HETATM   23  C3  UNL     1      23.059   1.934  51.673  1.00  0.00     0.014 A 
HETATM   24  C2  UNL     1      22.823   1.788  50.319  1.00  0.00     0.125 A 
HETATM   25  N1  UNL     1      22.762   2.975  49.707  1.00  0.00    -0.285 N 
HETATM   26  C1  UNL     1      22.538   3.289  48.322  1.00  0.00     0.179 C 
HETATM   27  N6  UNL     1      22.954   3.881  50.644  1.00  0.00    -0.185 NA
HETATM   28  C21 UNL     1      23.140   3.299  51.855  1.00  0.00     0.152 A 
ENDBRANCH   1  23
TORSDOF 3
ENDMDL
MODEL 6
REMARK VINA RESULT:      -8.8      2.006      7.741
REMARK  3 active torsions:
REMARK  status: ('A' for Active; 'I' for Inactive)
REMARK    1  A    between atoms: C3_4  and  C4_5 
REMARK    2  A    between atoms: C5_6  and  N2_7 
REMARK    3  A    between atoms: N2_7  and  C6_8 
ROOT
HETATM    1  C4  UNL     1      25.567   5.778  49.550  1.00  0.00     0.016 A 
HETATM    2  C5  UNL     1      26.312   4.665  49.228  1.00  0.00     0.045 A 
HETATM    3  C14 UNL     1      27.564   4.832  48.678  1.00  0.00     0.033 A 
HETATM    4  C15 UNL     1      28.026   6.129  48.472  1.00  0.00     0.035 A 
HETATM    5  C16 UNL     1      27.303   7.267  48.785  1.00  0.00     0.067 A 
HETATM    6  N5  UNL     1      27.801   8.495  48.564  1.00  0.00    -0.260 NA
HETATM    7  C17 UNL     1      27.091   9.606  48.872  1.00  0.00     0.117 A 
HETATM    8  C18 UNL     1      25.831   9.467  49.425  1.00  0.00     0.020 A 
HETATM    9  C19 UNL     1      25.340   8.198  49.643  1.00  0.00     0.016 A 
HETATM   10  C20 UNL     1      26.048   7.054  49.335  1.00  0.00     0.006 A 
ENDROOT
BRANCH   2  11
HETATM   11  N2  UNL     1      25.768   3.376  49.475  1.00  0.00    -0.339 N 
HETATM   12  H5  UNL     1      25.280   2.847  48.721  1.00  0.00     0.167 HD
BRANCH  11  13
HETATM   13  C6  UNL     1      25.816   2.693  50.696  1.00  0.00     0.142 A 
HETATM   14  N3  UNL     1      27.047   2.699  51.235  1.00  0.00    -0.224 NA
HETATM   15  C7  UNL     1      27.292   2.084  52.429  1.00  0.00     0.236 A 
HETATM   16  N4  UNL     1      26.302   1.460  53.089  1.00  0.00    -0.241 NA
HETATM   17  C8  UNL     1      25.060   1.443  52.569  1.00  0.00     0.072 A 
HETATM   18  C9  UNL     1      24.011   0.811  53.222  1.00  0.00     0.032 A 
HETATM   19  C13 UNL     1      24.788   2.057  51.363  1.00  0.00     0.039 A 
HETATM   20  C10 UNL     1      22.767   0.835  52.628  1.00  0.00     0.002 A 
HETATM   21  C11 UNL     1      22.528   1.460  51.417  1.00  0.00     0.001 A 
HETATM   22  C12 UNL     1      23.573   2.100  50.749  1.00  0.00     0.018 A 
ENDBRANCH  11  13
ENDBRANCH   2  11
BRANCH   1  23
HETATM   23  C3  UNL     1      24.228   5.740  50.135  1.00  0.00     0.014 A 
HETATM   24  C2  UNL     1      22.999   5.641  49.510  1.00  0.00     0.125 A 
HETATM   25  N1  UNL     1      22.002   5.641  50.400  1.00  0.00    -0.285 N 
HETATM   26  C1  UNL     1      20.581   5.556  50.194  1.00  0.00     0.179 C 
HETATM   27  N6  UNL     1      22.568   5.736  51.586  1.00  0.00    -0.185 NA
HETATM   28  C21 UNL     1      23.919   5.800  51.478  1.00  0.00     0.152 A 
ENDBRANCH   1  23
TORSDOF 3
ENDMDL
MODEL 7
REMARK VINA RESULT:      -8.8      1.850      7.210
REMARK  3 active torsions:
REMARK  status: ('A' for Active; 'I' for Inactive)
REMARK    1  A    between atoms: C3_4  and  C4_5 
REMARK    2  A    between atoms: C5_6  and  N2_7 
REMARK    3  A    between atoms: N2_7  and  C6_8 
ROOT
HETATM    1  C4  UNL     1      25.031   4.803  50.280  1.00  0.00     0.016 A 
HETATM    2  C5  UNL     1      25.975   3.846  49.978  1.00  0.00     0.045 A 
HETATM    3  C14 UNL     1      27.052   4.191  49.192  1.00  0.00     0.033 A 
HETATM    4  C15 UNL     1      27.140   5.503  48.734  1.00  0.00     0.035 A 
HETATM    5  C16 UNL     1      26.210   6.488  49.019  1.00  0.00     0.067 A 
HETATM    6  N5  UNL     1      26.348   7.739  48.549  1.00  0.00    -0.260 NA
HETATM    7  C17 UNL     1      25.436   8.698  48.831  1.00  0.00     0.117 A 
HETATM    8  C18 UNL     1      24.345   8.379  49.619  1.00  0.00     0.020 A 
HETATM    9  C19 UNL     1      24.223   7.090  50.090  1.00  0.00     0.016 A 
HETATM   10  C20 UNL     1      25.142   6.097  49.812  1.00  0.00     0.006 A 
ENDROOT
BRANCH   2  11
HETATM   11  N2  UNL     1      25.811   2.531  50.490  1.00  0.00    -0.339 N 
HETATM   12  H5  UNL     1      25.285   1.809  49.954  1.00  0.00     0.167 HD
BRANCH  11  13
HETATM   13  C6  UNL     1      26.309   2.066  51.712  1.00  0.00     0.142 A 
HETATM   14  N3  UNL     1      27.525   2.569  51.992  1.00  0.00    -0.224 NA
HETATM   15  C7  UNL     1      28.174   2.233  53.144  1.00  0.00     0.236 A 
HETATM   16  N4  UNL     1      27.606   1.390  54.024  1.00  0.00    -0.241 NA
HETATM   17  C8  UNL     1      26.388   0.876  53.766  1.00  0.00     0.072 A 
HETATM   18  C9  UNL     1      25.770   0.004  54.651  1.00  0.00     0.032 A 
HETATM   19  C13 UNL     1      25.713   1.201  52.607  1.00  0.00     0.039 A 
HETATM   20  C10 UNL     1      24.523  -0.481  54.320  1.00  0.00     0.002 A 
HETATM   21  C11 UNL     1      23.872  -0.135  53.148  1.00  0.00     0.001 A 
HETATM   22  C12 UNL     1      24.482   0.740  52.248  1.00  0.00     0.018 A 
ENDBRANCH  11  13
ENDBRANCH   2  11
BRANCH   1  23
HETATM   23  C3  UNL     1      23.844   4.569  51.100  1.00  0.00     0.014 A 
HETATM   24  C2  UNL     1      22.591   4.122  50.723  1.00  0.00     0.125 A 
HETATM   25  N1  UNL     1      21.769   4.040  51.775  1.00  0.00    -0.285 N 
HETATM   26  C1  UNL     1      20.393   3.629  51.841  1.00  0.00     0.179 C 
HETATM   27  N6  UNL     1      22.472   4.425  52.820  1.00  0.00    -0.185 NA
HETATM   28  C21 UNL     1      23.738   4.757  52.462  1.00  0.00     0.152 A 
ENDBRANCH   1  23
TORSDOF 3
ENDMDL
MODEL 8
REMARK VINA RESULT:      -8.7      2.479      6.787
REMARK  3 active torsions:
REMARK  status: ('A' for Active; 'I' for Inactive)
REMARK    1  A    between atoms: C3_4  and  C4_5 
REMARK    2  A    between atoms: C5_6  and  N2_7 
REMARK    3  A    between atoms: N2_7  and  C6_8 
ROOT
HETATM    1  C4  UNL     1      23.525   1.287  52.634  1.00  0.00     0.016 A 
HETATM    2  C5  UNL     1      22.355   0.813  53.187  1.00  0.00     0.045 A 
HETATM    3  C14 UNL     1      22.387  -0.343  53.934  1.00  0.00     0.033 A 
HETATM    4  C15 UNL     1      23.609  -0.987  54.100  1.00  0.00     0.035 A 
HETATM    5  C16 UNL     1      24.802  -0.538  53.558  1.00  0.00     0.067 A 
HETATM    6  N5  UNL     1      25.953  -1.202  53.753  1.00  0.00    -0.260 NA
HETATM    7  C17 UNL     1      27.117  -0.759  53.223  1.00  0.00     0.117 A 
HETATM    8  C18 UNL     1      27.114   0.400  52.468  1.00  0.00     0.020 A 
HETATM    9  C19 UNL     1      25.922   1.065  52.281  1.00  0.00     0.016 A 
HETATM   10  C20 UNL     1      24.725   0.628  52.813  1.00  0.00     0.006 A 
ENDROOT
BRANCH   2  11
HETATM   11  N2  UNL     1      21.150   1.535  52.972  1.00  0.00    -0.339 N 
HETATM   12  H5  UNL     1      20.919   2.374  53.546  1.00  0.00     0.167 HD
BRANCH  11  13
HETATM   13  C6  UNL     1      20.176   1.227  52.016  1.00  0.00     0.142 A 
HETATM   14  N3  UNL     1      20.334   1.932  50.882  1.00  0.00    -0.224 NA
HETATM   15  C7  UNL     1      19.480   1.767  49.830  1.00  0.00     0.236 A 
HETATM   16  N4  UNL     1      18.463   0.893  49.910  1.00  0.00    -0.241 NA
HETATM   17  C8  UNL     1      18.286   0.175  51.036  1.00  0.00     0.072 A 
HETATM   18  C9  UNL     1      17.248  -0.738  51.155  1.00  0.00     0.032 A 
HETATM   19  C13 UNL     1      19.136   0.325  52.112  1.00  0.00     0.039 A 
HETATM   20  C10 UNL     1      17.130  -1.437  52.337  1.00  0.00     0.002 A 
HETATM   21  C11 UNL     1      18.001  -1.264  53.399  1.00  0.00     0.001 A 
HETATM   22  C12 UNL     1      19.049  -0.348  53.294  1.00  0.00     0.018 A 
ENDBRANCH  11  13
ENDBRANCH   2  11
BRANCH   1  23
HETATM   23  C3  UNL     1      23.629   2.498  51.821  1.00  0.00     0.014 A 
HETATM   24  C2  UNL     1      23.757   3.815  52.221  1.00  0.00     0.125 A 
HETATM   25  N1  UNL     1      23.818   4.637  51.168  1.00  0.00    -0.285 N 
HETATM   26  C1  UNL     1      23.951   6.068  51.121  1.00  0.00     0.179 C 
HETATM   27  N6  UNL     1      23.732   3.871  50.100  1.00  0.00    -0.185 NA
HETATM   28  C21 UNL     1      23.615   2.564  50.444  1.00  0.00     0.152 A 
ENDBRANCH   1  23
TORSDOF 3
ENDMDL
MODEL 9
REMARK VINA RESULT:      -8.6      2.262      6.015
REMARK  3 active torsions:
REMARK  status: ('A' for Active; 'I' for Inactive)
REMARK    1  A    between atoms: C3_4  and  C4_5 
REMARK    2  A    between atoms: C5_6  and  N2_7 
REMARK    3  A    between atoms: N2_7  and  C6_8 
ROOT
HETATM    1  C4  UNL     1      22.859   2.131  51.219  1.00  0.00     0.016 A 
HETATM    2  C5  UNL     1      24.128   2.509  51.602  1.00  0.00     0.045 A 
HETATM    3  C14 UNL     1      24.949   3.127  50.685  1.00  0.00     0.033 A 
HETATM    4  C15 UNL     1      24.456   3.347  49.402  1.00  0.00     0.035 A 
HETATM    5  C16 UNL     1      23.187   2.981  48.986  1.00  0.00     0.067 A 
HETATM    6  N5  UNL     1      22.765   3.220  47.733  1.00  0.00    -0.260 NA
HETATM    7  C17 UNL     1      21.524   2.861  47.331  1.00  0.00     0.117 A 
HETATM    8  C18 UNL     1      20.679   2.239  48.231  1.00  0.00     0.020 A 
HETATM    9  C19 UNL     1      21.131   2.003  49.511  1.00  0.00     0.016 A 
HETATM   10  C20 UNL     1      22.394   2.361  49.939  1.00  0.00     0.006 A 
ENDROOT
BRANCH   2  11
HETATM   11  N2  UNL     1      24.551   2.251  52.933  1.00  0.00    -0.339 N 
HETATM   12  H5  UNL     1      24.251   2.867  53.719  1.00  0.00     0.167 HD
BRANCH  11  13
HETATM   13  C6  UNL     1      25.377   1.196  53.335  1.00  0.00     0.142 A 
HETATM   14  N3  UNL     1      24.700   0.041  53.468  1.00  0.00    -0.224 NA
HETATM   15  C7  UNL     1      25.337  -1.104  53.851  1.00  0.00     0.236 A 
HETATM   16  N4  UNL     1      26.658  -1.097  54.102  1.00  0.00    -0.241 NA
HETATM   17  C8  UNL     1      27.356   0.048  53.974  1.00  0.00     0.072 A 
HETATM   18  C9  UNL     1      28.720   0.093  54.224  1.00  0.00     0.032 A 
HETATM   19  C13 UNL     1      26.733   1.217  53.589  1.00  0.00     0.039 A 
HETATM   20  C10 UNL     1      29.368   1.301  54.071  1.00  0.00     0.002 A 
HETATM   21  C11 UNL     1      28.714   2.457  53.683  1.00  0.00     0.001 A 
HETATM   22  C12 UNL     1      27.341   2.426  53.429  1.00  0.00     0.018 A 
ENDBRANCH  11  13
ENDBRANCH   2  11
BRANCH   1  23
HETATM   23  C3  UNL     1      21.891   1.468  52.091  1.00  0.00     0.014 A 
HETATM   24  C2  UNL     1      21.730   0.121  52.358  1.00  0.00     0.125 A 
HETATM   25  N1  UNL     1      20.723  -0.085  53.214  1.00  0.00    -0.285 N 
HETATM   26  C1  UNL     1      20.212  -1.314  53.759  1.00  0.00     0.179 C 
HETATM   27  N6  UNL     1      20.236   1.105  53.502  1.00  0.00    -0.185 NA
HETATM   28  C21 UNL     1      20.912   2.081  52.844  1.00  0.00     0.152 A 
ENDBRANCH   1  23
TORSDOF 3
ENDMDL
