MODEL 1
REMARK VINA RESULT:      -6.6      0.000      0.000
REMARK  8 active torsions:
REMARK  status: ('A' for Active; 'I' for Inactive)
REMARK    1  A    between atoms: C3_3  and  C5_5 
REMARK    2  A    between atoms: C5_5  and  C6_6 
REMARK    3  A    between atoms: C6_6  and  C7_7 
REMARK    4  A    between atoms: C7_7  and  S1_8 
REMARK    5  A    between atoms: S1_8  and  C8_10 
REMARK    6  A    between atoms: C8_10  and  C9_12 
REMARK    7  A    between atoms: C12_15  and  O3_16 
REMARK    8  A    between atoms: C15_19  and  O4_20 
ROOT
HETATM    1  C1  UNL     1      23.502   4.543  52.940  1.00  0.00     0.097 C 
HETATM    2  C2  UNL     1      24.061   4.006  51.894  1.00  0.00    -0.148 C 
HETATM    3  C3  UNL     1      24.747   3.449  50.912  1.00  0.00    -0.021 C 
HETATM    4  C4  UNL     1      24.182   3.742  49.609  1.00  0.00     0.057 C 
ENDROOT
BRANCH   3   5
HETATM    5  C5  UNL     1      25.897   2.669  51.232  1.00  0.00     0.011 C 
BRANCH   5   6
HETATM    6  C6  UNL     1      25.803   1.476  51.792  1.00  0.00    -0.013 C 
BRANCH   6   7
HETATM    7  C7  UNL     1      26.897   0.922  52.667  1.00  0.00     0.144 C 
BRANCH   7   8
HETATM    8  S1  UNL     1      26.336  -0.679  53.195  1.00  0.00     0.094 S 
HETATM    9  O1  UNL     1      27.416  -1.605  53.668  1.00  0.00    -0.249 OA
BRANCH   8  10
HETATM   10  C8  UNL     1      24.872  -0.682  54.133  1.00  0.00     0.251 C 
HETATM   11  O2  UNL     1      25.513  -0.718  55.214  1.00  0.00    -0.277 OA
BRANCH  10  12
HETATM   12  C9  UNL     1      23.444  -0.658  53.961  1.00  0.00     0.057 A 
HETATM   13  C10 UNL     1      23.024   0.101  52.892  1.00  0.00     0.022 A 
HETATM   14  C11 UNL     1      21.638   0.137  52.708  1.00  0.00     0.038 A 
HETATM   15  C12 UNL     1      20.738  -0.524  53.515  1.00  0.00     0.070 A 
HETATM   16  C14 UNL     1      21.196  -1.275  54.577  1.00  0.00     0.074 A 
HETATM   17  C15 UNL     1      22.549  -1.316  54.764  1.00  0.00     0.083 A 
BRANCH  15  18
HETATM   18  O3  UNL     1      19.379  -0.458  53.293  1.00  0.00    -0.356 OA
HETATM   19  C13 UNL     1      18.527  -1.542  53.564  1.00  0.00     0.210 C 
ENDBRANCH  15  18
BRANCH  17  20
HETATM   20  O4  UNL     1      23.021  -2.069  55.830  1.00  0.00    -0.360 OA
HETATM   21  H16 UNL     1      22.646  -2.995  56.021  1.00  0.00     0.217 HD
ENDBRANCH  17  20
ENDBRANCH  10  12
ENDBRANCH   8  10
ENDBRANCH   7   8
ENDBRANCH   6   7
ENDBRANCH   5   6
ENDBRANCH   3   5
TORSDOF 8
ENDMDL
MODEL 2
REMARK VINA RESULT:      -6.1      2.490      4.149
REMARK  8 active torsions:
REMARK  status: ('A' for Active; 'I' for Inactive)
REMARK    1  A    between atoms: C3_3  and  C5_5 
REMARK    2  A    between atoms: C5_5  and  C6_6 
REMARK    3  A    between atoms: C6_6  and  C7_7 
REMARK    4  A    between atoms: C7_7  and  S1_8 
REMARK    5  A    between atoms: S1_8  and  C8_10 
REMARK    6  A    between atoms: C8_10  and  C9_12 
REMARK    7  A    between atoms: C12_15  and  O3_16 
REMARK    8  A    between atoms: C15_19  and  O4_20 
ROOT
HETATM    1  C1  UNL     1      27.007  -1.652  52.513  1.00  0.00     0.097 C 
HETATM    2  C2  UNL     1      27.980  -0.951  53.018  1.00  0.00    -0.148 C 
HETATM    3  C3  UNL     1      28.908  -0.125  53.470  1.00  0.00    -0.021 C 
HETATM    4  C4  UNL     1      30.137  -0.813  53.817  1.00  0.00     0.057 C 
ENDROOT
BRANCH   3   5
HETATM    5  C5  UNL     1      28.608   1.266  53.558  1.00  0.00     0.011 C 
BRANCH   5   6
HETATM    6  C6  UNL     1      27.524   1.786  53.009  1.00  0.00    -0.013 C 
BRANCH   6   7
HETATM    7  C7  UNL     1      26.308   2.130  53.829  1.00  0.00     0.144 C 
BRANCH   7   8
HETATM    8  S1  UNL     1      24.924   2.005  52.722  1.00  0.00     0.094 S 
HETATM    9  O1  UNL     1      25.269   2.077  51.265  1.00  0.00    -0.249 OA
BRANCH   8  10
HETATM   10  C8  UNL     1      23.726   0.822  53.159  1.00  0.00     0.251 C 
HETATM   11  O2  UNL     1      24.557   0.167  53.838  1.00  0.00    -0.277 OA
BRANCH  10  12
HETATM   12  C9  UNL     1      22.334   0.522  52.949  1.00  0.00     0.057 A 
HETATM   13  C10 UNL     1      21.682   0.085  54.079  1.00  0.00     0.022 A 
HETATM   14  C11 UNL     1      20.328  -0.212  53.897  1.00  0.00     0.038 A 
HETATM   15  C12 UNL     1      19.670  -0.086  52.692  1.00  0.00     0.070 A 
HETATM   16  C14 UNL     1      20.357   0.355  51.581  1.00  0.00     0.074 A 
HETATM   17  C15 UNL     1      21.680   0.648  51.751  1.00  0.00     0.083 A 
BRANCH  15  18
HETATM   18  O3  UNL     1      18.332  -0.392  52.561  1.00  0.00    -0.356 OA
HETATM   19  C13 UNL     1      17.754  -1.498  53.209  1.00  0.00     0.210 C 
ENDBRANCH  15  18
BRANCH  17  20
HETATM   20  O4  UNL     1      22.381   1.093  50.639  1.00  0.00    -0.360 OA
HETATM   21  H16 UNL     1      22.055   1.892  50.102  1.00  0.00     0.217 HD
ENDBRANCH  17  20
ENDBRANCH  10  12
ENDBRANCH   8  10
ENDBRANCH   7   8
ENDBRANCH   6   7
ENDBRANCH   5   6
ENDBRANCH   3   5
TORSDOF 8
ENDMDL
MODEL 3
REMARK VINA RESULT:      -6.1      2.945      6.073
REMARK  8 active torsions:
REMARK  status: ('A' for Active; 'I' for Inactive)
REMARK    1  A    between atoms: C3_3  and  C5_5 
REMARK    2  A    between atoms: C5_5  and  C6_6 
REMARK    3  A    between atoms: C6_6  and  C7_7 
REMARK    4  A    between atoms: C7_7  and  S1_8 
REMARK    5  A    between atoms: S1_8  and  C8_10 
REMARK    6  A    between atoms: C8_10  and  C9_12 
REMARK    7  A    between atoms: C12_15  and  O3_16 
REMARK    8  A    between atoms: C15_19  and  O4_20 
ROOT
HETATM    1  C1  UNL     1      26.506   1.607  51.516  1.00  0.00     0.097 C 
HETATM    2  C2  UNL     1      26.300   0.457  52.090  1.00  0.00    -0.148 C 
HETATM    3  C3  UNL     1      26.048  -0.636  52.787  1.00  0.00    -0.021 C 
HETATM    4  C4  UNL     1      26.770  -1.790  52.286  1.00  0.00     0.057 C 
ENDROOT
BRANCH   3   5
HETATM    5  C5  UNL     1      25.145  -0.558  53.888  1.00  0.00     0.011 C 
BRANCH   5   6
HETATM    6  C6  UNL     1      23.907  -0.117  53.751  1.00  0.00    -0.013 C 
BRANCH   6   7
HETATM    7  C7  UNL     1      22.771  -1.042  53.395  1.00  0.00     0.144 C 
BRANCH   7   8
HETATM    8  S1  UNL     1      21.483  -0.004  52.746  1.00  0.00     0.094 S 
HETATM    9  O1  UNL     1      20.601   0.632  53.779  1.00  0.00    -0.249 OA
BRANCH   8  10
HETATM   10  C8  UNL     1      21.948   1.015  51.416  1.00  0.00     0.251 C 
HETATM   11  O2  UNL     1      21.328   0.297  50.592  1.00  0.00    -0.277 OA
BRANCH  10  12
HETATM   12  C9  UNL     1      22.706   2.208  51.145  1.00  0.00     0.057 A 
HETATM   13  C10 UNL     1      23.075   2.903  52.274  1.00  0.00     0.022 A 
HETATM   14  C11 UNL     1      23.813   4.066  52.032  1.00  0.00     0.038 A 
HETATM   15  C12 UNL     1      24.158   4.508  50.773  1.00  0.00     0.070 A 
HETATM   16  C14 UNL     1      23.769   3.786  49.665  1.00  0.00     0.074 A 
HETATM   17  C15 UNL     1      23.049   2.647  49.892  1.00  0.00     0.083 A 
BRANCH  15  18
HETATM   18  O3  UNL     1      24.886   5.663  50.584  1.00  0.00    -0.356 OA
HETATM   19  C13 UNL     1      25.802   5.801  49.527  1.00  0.00     0.210 C 
ENDBRANCH  15  18
BRANCH  17  20
HETATM   20  O4  UNL     1      22.653   1.913  48.784  1.00  0.00    -0.360 OA
HETATM   21  H16 UNL     1      22.043   1.105  48.884  1.00  0.00     0.217 HD
ENDBRANCH  17  20
ENDBRANCH  10  12
ENDBRANCH   8  10
ENDBRANCH   7   8
ENDBRANCH   6   7
ENDBRANCH   5   6
ENDBRANCH   3   5
TORSDOF 8
ENDMDL
MODEL 4
REMARK VINA RESULT:      -6.0      2.868      4.410
REMARK  8 active torsions:
REMARK  status: ('A' for Active; 'I' for Inactive)
REMARK    1  A    between atoms: C3_3  and  C5_5 
REMARK    2  A    between atoms: C5_5  and  C6_6 
REMARK    3  A    between atoms: C6_6  and  C7_7 
REMARK    4  A    between atoms: C7_7  and  S1_8 
REMARK    5  A    between atoms: S1_8  and  C8_10 
REMARK    6  A    between atoms: C8_10  and  C9_12 
REMARK    7  A    between atoms: C12_15  and  O3_16 
REMARK    8  A    between atoms: C15_19  and  O4_20 
ROOT
HETATM    1  C1  UNL     1      25.973  -0.041  55.155  1.00  0.00     0.097 C 
HETATM    2  C2  UNL     1      26.320  -0.431  53.963  1.00  0.00    -0.148 C 
HETATM    3  C3  UNL     1      26.593  -0.718  52.703  1.00  0.00    -0.021 C 
HETATM    4  C4  UNL     1      27.012  -2.096  52.529  1.00  0.00     0.057 C 
ENDROOT
BRANCH   3   5
HETATM    5  C5  UNL     1      26.453   0.303  51.718  1.00  0.00     0.011 C 
BRANCH   5   6
HETATM    6  C6  UNL     1      26.798   1.557  51.953  1.00  0.00    -0.013 C 
BRANCH   6   7
HETATM    7  C7  UNL     1      26.537   2.652  50.951  1.00  0.00     0.144 C 
BRANCH   7   8
HETATM    8  S1  UNL     1      24.918   3.280  51.326  1.00  0.00     0.094 S 
HETATM    9  O1  UNL     1      24.714   4.732  51.014  1.00  0.00    -0.249 OA
BRANCH   8  10
HETATM   10  C8  UNL     1      23.597   2.225  50.916  1.00  0.00     0.251 C 
HETATM   11  O2  UNL     1      23.751   2.439  49.687  1.00  0.00    -0.277 OA
BRANCH  10  12
HETATM   12  C9  UNL     1      22.618   1.378  51.543  1.00  0.00     0.057 A 
HETATM   13  C10 UNL     1      23.002   0.900  52.776  1.00  0.00     0.022 A 
HETATM   14  C11 UNL     1      22.064   0.074  53.403  1.00  0.00     0.038 A 
HETATM   15  C12 UNL     1      20.843  -0.255  52.855  1.00  0.00     0.070 A 
HETATM   16  C14 UNL     1      20.493   0.242  51.618  1.00  0.00     0.074 A 
HETATM   17  C15 UNL     1      21.403   1.051  50.998  1.00  0.00     0.083 A 
BRANCH  15  18
HETATM   18  O3  UNL     1      19.951  -1.075  53.512  1.00  0.00    -0.356 OA
HETATM   19  C13 UNL     1      18.561  -0.954  53.337  1.00  0.00     0.210 C 
ENDBRANCH  15  18
BRANCH  17  20
HETATM   20  O4  UNL     1      21.062   1.557  49.752  1.00  0.00    -0.360 OA
HETATM   21  H16 UNL     1      21.752   1.623  49.009  1.00  0.00     0.217 HD
ENDBRANCH  17  20
ENDBRANCH  10  12
ENDBRANCH   8  10
ENDBRANCH   7   8
ENDBRANCH   6   7
ENDBRANCH   5   6
ENDBRANCH   3   5
TORSDOF 8
ENDMDL
MODEL 5
REMARK VINA RESULT:      -5.9      2.834      5.284
REMARK  8 active torsions:
REMARK  status: ('A' for Active; 'I' for Inactive)
REMARK    1  A    between atoms: C3_3  and  C5_5 
REMARK    2  A    between atoms: C5_5  and  C6_6 
REMARK    3  A    between atoms: C6_6  and  C7_7 
REMARK    4  A    between atoms: C7_7  and  S1_8 
REMARK    5  A    between atoms: S1_8  and  C8_10 
REMARK    6  A    between atoms: C8_10  and  C9_12 
REMARK    7  A    between atoms: C12_15  and  O3_16 
REMARK    8  A    between atoms: C15_19  and  O4_20 
ROOT
HETATM    1  C1  UNL     1      20.984   0.498  51.104  1.00  0.00     0.097 C 
HETATM    2  C2  UNL     1      21.717   0.109  52.106  1.00  0.00    -0.148 C 
HETATM    3  C3  UNL     1      22.569  -0.210  53.065  1.00  0.00    -0.021 C 
HETATM    4  C4  UNL     1      22.182  -1.419  53.767  1.00  0.00     0.057 C 
ENDROOT
BRANCH   3   5
HETATM    5  C5  UNL     1      23.704   0.625  53.284  1.00  0.00     0.011 C 
BRANCH   5   6
HETATM    6  C6  UNL     1      24.898   0.129  53.558  1.00  0.00    -0.013 C 
BRANCH   6   7
HETATM    7  C7  UNL     1      26.004   0.115  52.535  1.00  0.00     0.144 C 
BRANCH   7   8
HETATM    8  S1  UNL     1      26.619   1.781  52.461  1.00  0.00     0.094 S 
HETATM    9  O1  UNL     1      28.112   1.907  52.496  1.00  0.00    -0.249 OA
BRANCH   8  10
HETATM   10  C8  UNL     1      25.797   2.827  51.341  1.00  0.00     0.251 C 
HETATM   11  O2  UNL     1      26.876   3.147  50.780  1.00  0.00    -0.277 OA
BRANCH  10  12
HETATM   12  C9  UNL     1      24.471   3.282  51.015  1.00  0.00     0.057 A 
HETATM   13  C10 UNL     1      24.054   2.926  49.753  1.00  0.00     0.022 A 
HETATM   14  C11 UNL     1      22.767   3.358  49.417  1.00  0.00     0.038 A 
HETATM   15  C12 UNL     1      21.957   4.086  50.262  1.00  0.00     0.070 A 
HETATM   16  C14 UNL     1      22.409   4.424  51.519  1.00  0.00     0.074 A 
HETATM   17  C15 UNL     1      23.665   4.005  51.856  1.00  0.00     0.083 A 
BRANCH  15  18
HETATM   18  O3  UNL     1      20.694   4.490  49.885  1.00  0.00    -0.356 OA
HETATM   19  C13 UNL     1      20.392   5.838  49.622  1.00  0.00     0.210 C 
ENDBRANCH  15  18
BRANCH  17  20
HETATM   20  O4  UNL     1      24.131   4.340  53.120  1.00  0.00    -0.360 OA
HETATM   21  H16 UNL     1      24.929   4.958  53.234  1.00  0.00     0.217 HD
ENDBRANCH  17  20
ENDBRANCH  10  12
ENDBRANCH   8  10
ENDBRANCH   7   8
ENDBRANCH   6   7
ENDBRANCH   5   6
ENDBRANCH   3   5
TORSDOF 8
ENDMDL
MODEL 6
REMARK VINA RESULT:      -5.9      3.586      6.119
REMARK  8 active torsions:
REMARK  status: ('A' for Active; 'I' for Inactive)
REMARK    1  A    between atoms: C3_3  and  C5_5 
REMARK    2  A    between atoms: C5_5  and  C6_6 
REMARK    3  A    between atoms: C6_6  and  C7_7 
REMARK    4  A    between atoms: C7_7  and  S1_8 
REMARK    5  A    between atoms: S1_8  and  C8_10 
REMARK    6  A    between atoms: C8_10  and  C9_12 
REMARK    7  A    between atoms: C12_15  and  O3_16 
REMARK    8  A    between atoms: C15_19  and  O4_20 
ROOT
HETATM    1  C1  UNL     1      26.960   5.770  48.650  1.00  0.00     0.097 C 
HETATM    2  C2  UNL     1      26.168   6.583  49.286  1.00  0.00    -0.148 C 
HETATM    3  C3  UNL     1      25.258   7.319  49.900  1.00  0.00    -0.021 C 
HETATM    4  C4  UNL     1      25.672   8.702  50.045  1.00  0.00     0.057 C 
ENDROOT
BRANCH   3   5
HETATM    5  C5  UNL     1      24.045   6.702  50.324  1.00  0.00     0.011 C 
BRANCH   5   6
HETATM    6  C6  UNL     1      23.980   5.959  51.415  1.00  0.00    -0.013 C 
BRANCH   6   7
HETATM    7  C7  UNL     1      22.786   5.089  51.711  1.00  0.00     0.144 C 
BRANCH   7   8
HETATM    8  S1  UNL     1      22.926   3.685  50.631  1.00  0.00     0.094 S 
HETATM    9  O1  UNL     1      22.340   3.877  49.264  1.00  0.00    -0.249 OA
BRANCH   8  10
HETATM   10  C8  UNL     1      24.451   2.850  50.691  1.00  0.00     0.251 C 
HETATM   11  O2  UNL     1      24.736   3.196  49.517  1.00  0.00    -0.277 OA
BRANCH  10  12
HETATM   12  C9  UNL     1      25.242   2.048  51.587  1.00  0.00     0.057 A 
HETATM   13  C10 UNL     1      24.530   1.058  52.224  1.00  0.00     0.022 A 
HETATM   14  C11 UNL     1      25.281   0.267  53.099  1.00  0.00     0.038 A 
HETATM   15  C12 UNL     1      26.629   0.441  53.327  1.00  0.00     0.070 A 
HETATM   16  C14 UNL     1      27.309   1.445  52.670  1.00  0.00     0.074 A 
HETATM   17  C15 UNL     1      26.583   2.222  51.812  1.00  0.00     0.083 A 
BRANCH  15  18
HETATM   18  O3  UNL     1      27.327  -0.364  54.201  1.00  0.00    -0.356 OA
HETATM   19  C13 UNL     1      28.543   0.042  54.778  1.00  0.00     0.210 C 
ENDBRANCH  15  18
BRANCH  17  20
HETATM   20  O4  UNL     1      27.257   3.235  51.146  1.00  0.00    -0.360 OA
HETATM   21  H16 UNL     1      26.795   3.782  50.424  1.00  0.00     0.217 HD
ENDBRANCH  17  20
ENDBRANCH  10  12
ENDBRANCH   8  10
ENDBRANCH   7   8
ENDBRANCH   6   7
ENDBRANCH   5   6
ENDBRANCH   3   5
TORSDOF 8
ENDMDL
MODEL 7
REMARK VINA RESULT:      -5.8      2.766      5.968
REMARK  8 active torsions:
REMARK  status: ('A' for Active; 'I' for Inactive)
REMARK    1  A    between atoms: C3_3  and  C5_5 
REMARK    2  A    between atoms: C5_5  and  C6_6 
REMARK    3  A    between atoms: C6_6  and  C7_7 
REMARK    4  A    between atoms: C7_7  and  S1_8 
REMARK    5  A    between atoms: S1_8  and  C8_10 
REMARK    6  A    between atoms: C8_10  and  C9_12 
REMARK    7  A    between atoms: C12_15  and  O3_16 
REMARK    8  A    between atoms: C15_19  and  O4_20 
ROOT
HETATM    1  C1  UNL     1      20.249   0.884  51.048  1.00  0.00     0.097 C 
HETATM    2  C2  UNL     1      20.385   0.243  52.172  1.00  0.00    -0.148 C 
HETATM    3  C3  UNL     1      20.666  -0.392  53.297  1.00  0.00    -0.021 C 
HETATM    4  C4  UNL     1      19.584  -1.258  53.726  1.00  0.00     0.057 C 
ENDROOT
BRANCH   3   5
HETATM    5  C5  UNL     1      21.927  -0.163  53.921  1.00  0.00     0.011 C 
BRANCH   5   6
HETATM    6  C6  UNL     1      23.050  -0.093  53.229  1.00  0.00    -0.013 C 
BRANCH   6   7
HETATM    7  C7  UNL     1      24.385  -0.415  53.850  1.00  0.00     0.144 C 
BRANCH   7   8
HETATM    8  S1  UNL     1      25.383   1.040  53.640  1.00  0.00     0.094 S 
HETATM    9  O1  UNL     1      26.584   1.119  54.534  1.00  0.00    -0.249 OA
BRANCH   8  10
HETATM   10  C8  UNL     1      25.632   1.540  51.993  1.00  0.00     0.251 C 
HETATM   11  O2  UNL     1      26.573   0.721  51.840  1.00  0.00    -0.277 OA
BRANCH  10  12
HETATM   12  C9  UNL     1      25.108   2.466  51.023  1.00  0.00     0.057 A 
HETATM   13  C10 UNL     1      23.775   2.280  50.739  1.00  0.00     0.022 A 
HETATM   14  C11 UNL     1      23.247   3.170  49.798  1.00  0.00     0.038 A 
HETATM   15  C12 UNL     1      23.979   4.165  49.187  1.00  0.00     0.070 A 
HETATM   16  C14 UNL     1      25.313   4.320  49.497  1.00  0.00     0.074 A 
HETATM   17  C15 UNL     1      25.837   3.456  50.416  1.00  0.00     0.083 A 
BRANCH  15  18
HETATM   18  O3  UNL     1      23.413   5.019  48.264  1.00  0.00    -0.356 OA
HETATM   19  C13 UNL     1      22.378   4.609  47.406  1.00  0.00     0.210 C 
ENDBRANCH  15  18
BRANCH  17  20
HETATM   20  O4  UNL     1      27.179   3.603  50.736  1.00  0.00    -0.360 OA
HETATM   21  H16 UNL     1      27.627   4.515  50.702  1.00  0.00     0.217 HD
ENDBRANCH  17  20
ENDBRANCH  10  12
ENDBRANCH   8  10
ENDBRANCH   7   8
ENDBRANCH   6   7
ENDBRANCH   5   6
ENDBRANCH   3   5
TORSDOF 8
ENDMDL
MODEL 8
REMARK VINA RESULT:      -5.8      3.354      6.113
REMARK  8 active torsions:
REMARK  status: ('A' for Active; 'I' for Inactive)
REMARK    1  A    between atoms: C3_3  and  C5_5 
REMARK    2  A    between atoms: C5_5  and  C6_6 
REMARK    3  A    between atoms: C6_6  and  C7_7 
REMARK    4  A    between atoms: C7_7  and  S1_8 
REMARK    5  A    between atoms: S1_8  and  C8_10 
REMARK    6  A    between atoms: C8_10  and  C9_12 
REMARK    7  A    between atoms: C12_15  and  O3_16 
REMARK    8  A    between atoms: C15_19  and  O4_20 
ROOT
HETATM    1  C1  UNL     1      20.020   3.133  47.896  1.00  0.00     0.097 C 
HETATM    2  C2  UNL     1      20.086   2.235  48.836  1.00  0.00    -0.148 C 
HETATM    3  C3  UNL     1      20.283   1.291  49.739  1.00  0.00    -0.021 C 
HETATM    4  C4  UNL     1      19.040   0.797  50.301  1.00  0.00     0.057 C 
ENDROOT
BRANCH   3   5
HETATM    5  C5  UNL     1      21.619   0.892  50.039  1.00  0.00     0.011 C 
BRANCH   5   6
HETATM    6  C6  UNL     1      22.059   0.790  51.281  1.00  0.00    -0.013 C 
BRANCH   6   7
HETATM    7  C7  UNL     1      21.932   1.926  52.262  1.00  0.00     0.144 C 
BRANCH   7   8
HETATM    8  S1  UNL     1      23.306   3.005  51.938  1.00  0.00     0.094 S 
HETATM    9  O1  UNL     1      23.415   4.185  52.857  1.00  0.00    -0.249 OA
BRANCH   8  10
HETATM   10  C8  UNL     1      24.802   2.208  51.549  1.00  0.00     0.251 C 
HETATM   11  O2  UNL     1      24.797   2.673  50.381  1.00  0.00    -0.277 OA
BRANCH  10  12
HETATM   12  C9  UNL     1      25.787   1.345  52.145  1.00  0.00     0.057 A 
HETATM   13  C10 UNL     1      25.295   0.118  52.528  1.00  0.00     0.022 A 
HETATM   14  C11 UNL     1      26.237  -0.736  53.110  1.00  0.00     0.038 A 
HETATM   15  C12 UNL     1      27.561  -0.404  53.299  1.00  0.00     0.070 A 
HETATM   16  C14 UNL     1      28.018   0.835  52.903  1.00  0.00     0.074 A 
HETATM   17  C15 UNL     1      27.105   1.675  52.332  1.00  0.00     0.083 A 
BRANCH  15  18
HETATM   18  O3  UNL     1      28.453  -1.281  53.879  1.00  0.00    -0.356 OA
HETATM   19  C13 UNL     1      28.940  -2.408  53.195  1.00  0.00     0.210 C 
ENDBRANCH  15  18
BRANCH  17  20
HETATM   20  O4  UNL     1      27.554   2.925  51.929  1.00  0.00    -0.360 OA
HETATM   21  H16 UNL     1      26.901   3.686  51.764  1.00  0.00     0.217 HD
ENDBRANCH  17  20
ENDBRANCH  10  12
ENDBRANCH   8  10
ENDBRANCH   7   8
ENDBRANCH   6   7
ENDBRANCH   5   6
ENDBRANCH   3   5
TORSDOF 8
ENDMDL
MODEL 9
REMARK VINA RESULT:      -5.8      9.104     11.636
REMARK  8 active torsions:
REMARK  status: ('A' for Active; 'I' for Inactive)
REMARK    1  A    between atoms: C3_3  and  C5_5 
REMARK    2  A    between atoms: C5_5  and  C6_6 
REMARK    3  A    between atoms: C6_6  and  C7_7 
REMARK    4  A    between atoms: C7_7  and  S1_8 
REMARK    5  A    between atoms: S1_8  and  C8_10 
REMARK    6  A    between atoms: C8_10  and  C9_12 
REMARK    7  A    between atoms: C12_15  and  O3_16 
REMARK    8  A    between atoms: C15_19  and  O4_20 
ROOT
HETATM    1  C1  UNL     1      26.306   7.853  47.895  1.00  0.00     0.097 C 
HETATM    2  C2  UNL     1      27.202   6.929  48.088  1.00  0.00    -0.148 C 
HETATM    3  C3  UNL     1      28.198   6.067  48.196  1.00  0.00    -0.021 C 
HETATM    4  C4  UNL     1      27.747   4.754  48.615  1.00  0.00     0.057 C 
ENDROOT
BRANCH   3   5
HETATM    5  C5  UNL     1      29.523   6.505  47.906  1.00  0.00     0.011 C 
BRANCH   5   6
HETATM    6  C6  UNL     1      29.882   7.773  48.009  1.00  0.00    -0.013 C 
BRANCH   6   7
HETATM    7  C7  UNL     1      31.170   8.283  47.416  1.00  0.00     0.144 C 
BRANCH   7   8
HETATM    8  S1  UNL     1      32.449   7.817  48.557  1.00  0.00     0.094 S 
HETATM    9  O1  UNL     1      32.059   7.870  50.004  1.00  0.00    -0.249 OA
BRANCH   8  10
HETATM   10  C8  UNL     1      33.406   6.444  48.082  1.00  0.00     0.251 C 
HETATM   11  O2  UNL     1      34.462   7.126  48.077  1.00  0.00    -0.277 OA
BRANCH  10  12
HETATM   12  C9  UNL     1      33.263   5.046  47.772  1.00  0.00     0.057 A 
HETATM   13  C10 UNL     1      32.142   4.751  47.031  1.00  0.00     0.022 A 
HETATM   14  C11 UNL     1      31.985   3.397  46.720  1.00  0.00     0.038 A 
HETATM   15  C12 UNL     1      32.866   2.412  47.110  1.00  0.00     0.070 A 
HETATM   16  C14 UNL     1      33.979   2.746  47.852  1.00  0.00     0.074 A 
HETATM   17  C15 UNL     1      34.141   4.067  48.160  1.00  0.00     0.083 A 
BRANCH  15  18
HETATM   18  O3  UNL     1      32.668   1.088  46.779  1.00  0.00    -0.356 OA
HETATM   19  C13 UNL     1      31.410   0.600  46.383  1.00  0.00     0.210 C 
ENDBRANCH  15  18
BRANCH  17  20
HETATM   20  O4  UNL     1      35.258   4.414  48.906  1.00  0.00    -0.360 OA
HETATM   21  H16 UNL     1      35.502   3.901  49.749  1.00  0.00     0.217 HD
ENDBRANCH  17  20
ENDBRANCH  10  12
ENDBRANCH   8  10
ENDBRANCH   7   8
ENDBRANCH   6   7
ENDBRANCH   5   6
ENDBRANCH   3   5
TORSDOF 8
ENDMDL
