MODEL 1
REMARK VINA RESULT:      -7.9      0.000      0.000
REMARK  7 active torsions:
REMARK  status: ('A' for Active; 'I' for Inactive)
REMARK    1  A    between atoms: C2_2  and  C14_20 
REMARK    2  A    between atoms: C3_3  and  C4_4 
REMARK    3  A    between atoms: C7_9  and  O1_10 
REMARK    4  A    between atoms: O1_10  and  C8_11 
REMARK    5  A    between atoms: C11_14  and  N3_15 
REMARK    6  A    between atoms: N3_15  and  P1_16 
REMARK    7  A    between atoms: P1_16  and  O2_17 
ROOT
HETATM    1  C4  UNL     1      25.290   1.793  52.201  1.00  0.00     0.035 A 
HETATM    2  C5  UNL     1      25.493   1.453  53.506  1.00  0.00     0.134 A 
HETATM    3  N1  UNL     1      26.728   1.645  53.984  1.00  0.00    -0.253 NA
HETATM    4  C6  UNL     1      27.709   2.145  53.214  1.00  0.00     0.235 A 
HETATM    5  N2  UNL     1      27.482   2.473  51.931  1.00  0.00    -0.217 NA
HETATM    6  C7  UNL     1      26.249   2.308  51.367  1.00  0.00     0.182 A 
ENDROOT
BRANCH   6   7
HETATM    7  O1  UNL     1      26.331   2.720  50.078  1.00  0.00    -0.291 OA
BRANCH   7   8
HETATM    8  C8  UNL     1      26.525   3.995  49.664  1.00  0.00     0.078 A 
HETATM    9  C9  UNL     1      25.606   4.924  50.153  1.00  0.00     0.039 A 
HETATM   10  C10 UNL     1      25.583   6.276  49.880  1.00  0.00     0.032 A 
HETATM   11  C11 UNL     1      26.565   6.746  49.045  1.00  0.00     0.033 A 
HETATM   12  C12 UNL     1      27.515   5.901  48.514  1.00  0.00     0.032 A 
HETATM   13  C13 UNL     1      27.489   4.560  48.821  1.00  0.00     0.039 A 
BRANCH  11  14
HETATM   14  N3  UNL     1      26.602   8.126  48.718  1.00  0.00    -0.345 N 
HETATM   15  H9  UNL     1      26.097   8.489  47.855  1.00  0.00     0.166 HD
BRANCH  14  16
HETATM   16  P1  UNL     1      27.335   9.568  49.424  1.00  0.00     0.113 P 
HETATM   17  H10 UNL     1      26.851  10.816  48.919  1.00  0.00     0.111 HD
BRANCH  16  18
HETATM   18  O2  UNL     1      27.595   9.506  51.113  1.00  0.00    -0.356 OA
HETATM   19  H11 UNL     1      26.725   9.223  51.526  1.00  0.00     0.216 HD
ENDBRANCH  16  18
ENDBRANCH  14  16
ENDBRANCH  11  14
ENDBRANCH   7   8
ENDBRANCH   6   7
BRANCH   1  20
HETATM   20  C3  UNL     1      23.975   1.573  51.626  1.00  0.00     0.027 C 
HETATM   21  C2  UNL     1      22.813   0.938  51.851  1.00  0.00    -0.028 C 
HETATM   22  C1  UNL     1      21.638   1.005  50.906  1.00  0.00     0.051 C 
BRANCH  21  23
HETATM   23  C14 UNL     1      22.511   0.065  53.007  1.00  0.00     0.073 A 
HETATM   24  C15 UNL     1      21.660   0.224  53.993  1.00  0.00     0.037 A 
HETATM   25  C16 UNL     1      22.024  -1.049  54.615  1.00  0.00     0.206 A 
HETATM   26  O3  UNL     1      22.896  -1.139  53.540  1.00  0.00    -0.347 OA
ENDBRANCH  21  23
ENDBRANCH   1  20
TORSDOF 7
ENDMDL
MODEL 2
REMARK VINA RESULT:      -7.8      1.819      2.297
REMARK  7 active torsions:
REMARK  status: ('A' for Active; 'I' for Inactive)
REMARK    1  A    between atoms: C2_2  and  C14_20 
REMARK    2  A    between atoms: C3_3  and  C4_4 
REMARK    3  A    between atoms: C7_9  and  O1_10 
REMARK    4  A    between atoms: O1_10  and  C8_11 
REMARK    5  A    between atoms: C11_14  and  N3_15 
REMARK    6  A    between atoms: N3_15  and  P1_16 
REMARK    7  A    between atoms: P1_16  and  O2_17 
ROOT
HETATM    1  C4  UNL     1      25.438   1.665  52.236  1.00  0.00     0.035 A 
HETATM    2  C5  UNL     1      25.687   1.347  53.539  1.00  0.00     0.134 A 
HETATM    3  N1  UNL     1      26.908   1.644  53.998  1.00  0.00    -0.253 NA
HETATM    4  C6  UNL     1      27.833   2.223  53.213  1.00  0.00     0.235 A 
HETATM    5  N2  UNL     1      27.560   2.526  51.933  1.00  0.00    -0.217 NA
HETATM    6  C7  UNL     1      26.337   2.256  51.387  1.00  0.00     0.182 A 
ENDROOT
BRANCH   6   7
HETATM    7  O1  UNL     1      26.366   2.669  50.096  1.00  0.00    -0.291 OA
BRANCH   7   8
HETATM    8  C8  UNL     1      26.544   3.944  49.675  1.00  0.00     0.078 A 
HETATM    9  C9  UNL     1      25.611   4.863  50.156  1.00  0.00     0.039 A 
HETATM   10  C10 UNL     1      25.571   6.213  49.876  1.00  0.00     0.032 A 
HETATM   11  C11 UNL     1      26.549   6.692  49.041  1.00  0.00     0.033 A 
HETATM   12  C12 UNL     1      27.512   5.857  48.518  1.00  0.00     0.032 A 
HETATM   13  C13 UNL     1      27.504   4.517  48.833  1.00  0.00     0.039 A 
BRANCH  11  14
HETATM   14  N3  UNL     1      26.568   8.071  48.706  1.00  0.00    -0.345 N 
HETATM   15  H9  UNL     1      26.109   8.415  47.811  1.00  0.00     0.166 HD
BRANCH  14  16
HETATM   16  P1  UNL     1      27.215   9.537  49.446  1.00  0.00     0.113 P 
HETATM   17  H10 UNL     1      26.612  10.761  49.018  1.00  0.00     0.111 HD
BRANCH  16  18
HETATM   18  O2  UNL     1      27.554   9.426  51.119  1.00  0.00    -0.356 OA
HETATM   19  H11 UNL     1      27.310  10.314  51.518  1.00  0.00     0.216 HD
ENDBRANCH  16  18
ENDBRANCH  14  16
ENDBRANCH  11  14
ENDBRANCH   7   8
ENDBRANCH   6   7
BRANCH   1  20
HETATM   20  C3  UNL     1      24.137   1.333  51.680  1.00  0.00     0.027 C 
HETATM   21  C2  UNL     1      22.973   1.887  51.305  1.00  0.00    -0.028 C 
HETATM   22  C1  UNL     1      21.823   1.090  50.738  1.00  0.00     0.051 C 
BRANCH  21  23
HETATM   23  C14 UNL     1      22.618   3.319  51.414  1.00  0.00     0.073 A 
HETATM   24  C15 UNL     1      22.762   4.157  52.414  1.00  0.00     0.037 A 
HETATM   25  C16 UNL     1      22.176   5.270  51.667  1.00  0.00     0.206 A 
HETATM   26  O3  UNL     1      22.061   4.321  50.661  1.00  0.00    -0.347 OA
ENDBRANCH  21  23
ENDBRANCH   1  20
TORSDOF 7
ENDMDL
MODEL 3
REMARK VINA RESULT:      -7.8      4.102      7.562
REMARK  7 active torsions:
REMARK  status: ('A' for Active; 'I' for Inactive)
REMARK    1  A    between atoms: C2_2  and  C14_20 
REMARK    2  A    between atoms: C3_3  and  C4_4 
REMARK    3  A    between atoms: C7_9  and  O1_10 
REMARK    4  A    between atoms: O1_10  and  C8_11 
REMARK    5  A    between atoms: C11_14  and  N3_15 
REMARK    6  A    between atoms: N3_15  and  P1_16 
REMARK    7  A    between atoms: P1_16  and  O2_17 
ROOT
HETATM    1  C4  UNL     1      26.762   1.423  53.828  1.00  0.00     0.035 A 
HETATM    2  C5  UNL     1      27.851   2.168  54.176  1.00  0.00     0.134 A 
HETATM    3  N1  UNL     1      28.928   1.488  54.585  1.00  0.00    -0.253 NA
HETATM    4  C6  UNL     1      28.930   0.146  54.648  1.00  0.00     0.235 A 
HETATM    5  N2  UNL     1      27.845  -0.564  54.298  1.00  0.00    -0.217 NA
HETATM    6  C7  UNL     1      26.704   0.054  53.869  1.00  0.00     0.182 A 
ENDROOT
BRANCH   6   7
HETATM    7  O1  UNL     1      25.794  -0.913  53.595  1.00  0.00    -0.291 OA
BRANCH   7   8
HETATM    8  C8  UNL     1      24.479  -0.880  53.920  1.00  0.00     0.078 A 
HETATM    9  C9  UNL     1      23.615  -0.587  52.865  1.00  0.00     0.039 A 
HETATM   10  C10 UNL     1      22.240  -0.492  52.934  1.00  0.00     0.032 A 
HETATM   11  C11 UNL     1      21.675  -0.709  54.165  1.00  0.00     0.033 A 
HETATM   12  C12 UNL     1      22.452  -1.005  55.264  1.00  0.00     0.032 A 
HETATM   13  C13 UNL     1      23.819  -1.087  55.136  1.00  0.00     0.039 A 
BRANCH  11  14
HETATM   14  N3  UNL     1      20.266  -0.625  54.311  1.00  0.00    -0.345 N 
HETATM   15  H9  UNL     1      19.834  -0.438  55.265  1.00  0.00     0.166 HD
BRANCH  14  16
HETATM   16  P1  UNL     1      18.878  -0.758  53.230  1.00  0.00     0.113 P 
HETATM   17  H10 UNL     1      19.152  -1.321  51.943  1.00  0.00     0.111 HD
BRANCH  16  18
HETATM   18  O2  UNL     1      17.421  -1.270  53.965  1.00  0.00    -0.356 OA
HETATM   19  H11 UNL     1      17.259  -2.210  53.653  1.00  0.00     0.216 HD
ENDBRANCH  16  18
ENDBRANCH  14  16
ENDBRANCH  11  14
ENDBRANCH   7   8
ENDBRANCH   6   7
BRANCH   1  20
HETATM   20  C3  UNL     1      25.556   2.115  53.409  1.00  0.00     0.027 C 
HETATM   21  C2  UNL     1      25.041   2.822  52.390  1.00  0.00    -0.028 C 
HETATM   22  C1  UNL     1      23.639   3.381  52.398  1.00  0.00     0.051 C 
BRANCH  21  23
HETATM   23  C14 UNL     1      25.748   3.191  51.144  1.00  0.00     0.073 A 
HETATM   24  C15 UNL     1      25.364   3.941  50.138  1.00  0.00     0.037 A 
HETATM   25  C16 UNL     1      26.623   3.753  49.417  1.00  0.00     0.206 A 
HETATM   26  O3  UNL     1      26.950   2.976  50.518  1.00  0.00    -0.347 OA
ENDBRANCH  21  23
ENDBRANCH   1  20
TORSDOF 7
ENDMDL
MODEL 4
REMARK VINA RESULT:      -7.4      2.708      4.706
REMARK  7 active torsions:
REMARK  status: ('A' for Active; 'I' for Inactive)
REMARK    1  A    between atoms: C2_2  and  C14_20 
REMARK    2  A    between atoms: C3_3  and  C4_4 
REMARK    3  A    between atoms: C7_9  and  O1_10 
REMARK    4  A    between atoms: O1_10  and  C8_11 
REMARK    5  A    between atoms: C11_14  and  N3_15 
REMARK    6  A    between atoms: N3_15  and  P1_16 
REMARK    7  A    between atoms: P1_16  and  O2_17 
ROOT
HETATM    1  C4  UNL     1      24.958   0.198  53.901  1.00  0.00     0.035 A 
HETATM    2  C5  UNL     1      24.871  -0.639  54.975  1.00  0.00     0.134 A 
HETATM    3  N1  UNL     1      23.728  -1.323  55.101  1.00  0.00    -0.253 NA
HETATM    4  C6  UNL     1      22.727  -1.188  54.216  1.00  0.00     0.235 A 
HETATM    5  N2  UNL     1      22.840  -0.358  53.166  1.00  0.00    -0.217 NA
HETATM    6  C7  UNL     1      23.974   0.377  52.965  1.00  0.00     0.182 A 
ENDROOT
BRANCH   6   7
HETATM    7  O1  UNL     1      23.790   1.112  51.840  1.00  0.00    -0.291 OA
BRANCH   7   8
HETATM    8  C8  UNL     1      23.896   2.459  51.747  1.00  0.00     0.078 A 
HETATM    9  C9  UNL     1      24.804   2.918  50.792  1.00  0.00     0.039 A 
HETATM   10  C10 UNL     1      25.095   4.235  50.505  1.00  0.00     0.032 A 
HETATM   11  C11 UNL     1      24.422   5.182  51.235  1.00  0.00     0.033 A 
HETATM   12  C12 UNL     1      23.506   4.820  52.199  1.00  0.00     0.032 A 
HETATM   13  C13 UNL     1      23.255   3.490  52.443  1.00  0.00     0.039 A 
BRANCH  11  14
HETATM   14  N3  UNL     1      24.673   6.558  50.996  1.00  0.00    -0.345 N 
HETATM   15  H9  UNL     1      24.160   7.304  51.553  1.00  0.00     0.166 HD
BRANCH  14  16
HETATM   16  P1  UNL     1      25.718   7.475  49.909  1.00  0.00     0.113 P 
HETATM   17  H10 UNL     1      25.058   8.114  48.813  1.00  0.00     0.111 HD
BRANCH  16  18
HETATM   18  O2  UNL     1      26.942   8.397  50.672  1.00  0.00    -0.356 OA
HETATM   19  H11 UNL     1      27.058   9.227  50.121  1.00  0.00     0.216 HD
ENDBRANCH  16  18
ENDBRANCH  14  16
ENDBRANCH  11  14
ENDBRANCH   7   8
ENDBRANCH   6   7
BRANCH   1  20
HETATM   20  C3  UNL     1      26.166   0.988  53.738  1.00  0.00     0.027 C 
HETATM   21  C2  UNL     1      27.490   0.872  53.547  1.00  0.00    -0.028 C 
HETATM   22  C1  UNL     1      28.415   2.059  53.425  1.00  0.00     0.051 C 
BRANCH  21  23
HETATM   23  C14 UNL     1      28.247  -0.397  53.461  1.00  0.00     0.073 A 
HETATM   24  C15 UNL     1      29.538  -0.622  53.517  1.00  0.00     0.037 A 
HETATM   25  C16 UNL     1      29.371  -2.067  53.357  1.00  0.00     0.206 A 
HETATM   26  O3  UNL     1      28.024  -1.742  53.309  1.00  0.00    -0.347 OA
ENDBRANCH  21  23
ENDBRANCH   1  20
TORSDOF 7
ENDMDL
MODEL 5
REMARK VINA RESULT:      -7.3      3.912      7.166
REMARK  7 active torsions:
REMARK  status: ('A' for Active; 'I' for Inactive)
REMARK    1  A    between atoms: C2_2  and  C14_20 
REMARK    2  A    between atoms: C3_3  and  C4_4 
REMARK    3  A    between atoms: C7_9  and  O1_10 
REMARK    4  A    between atoms: O1_10  and  C8_11 
REMARK    5  A    between atoms: C11_14  and  N3_15 
REMARK    6  A    between atoms: N3_15  and  P1_16 
REMARK    7  A    between atoms: P1_16  and  O2_17 
ROOT
HETATM    1  C4  UNL     1      22.997   2.099  50.261  1.00  0.00     0.035 A 
HETATM    2  C5  UNL     1      22.174   1.856  49.200  1.00  0.00     0.134 A 
HETATM    3  N1  UNL     1      20.977   1.331  49.487  1.00  0.00    -0.253 NA
HETATM    4  C6  UNL     1      20.613   1.061  50.752  1.00  0.00     0.235 A 
HETATM    5  N2  UNL     1      21.442   1.312  51.779  1.00  0.00    -0.217 NA
HETATM    6  C7  UNL     1      22.682   1.847  51.571  1.00  0.00     0.182 A 
ENDROOT
BRANCH   6   7
HETATM    7  O1  UNL     1      23.278   1.980  52.782  1.00  0.00    -0.291 OA
BRANCH   7   8
HETATM    8  C8  UNL     1      24.489   1.483  53.130  1.00  0.00     0.078 A 
HETATM    9  C9  UNL     1      24.584   0.091  53.119  1.00  0.00     0.039 A 
HETATM   10  C10 UNL     1      25.700  -0.656  53.434  1.00  0.00     0.032 A 
HETATM   11  C11 UNL     1      26.823   0.046  53.791  1.00  0.00     0.033 A 
HETATM   12  C12 UNL     1      26.821   1.423  53.829  1.00  0.00     0.032 A 
HETATM   13  C13 UNL     1      25.678   2.118  53.504  1.00  0.00     0.039 A 
BRANCH  11  14
HETATM   14  N3  UNL     1      28.008  -0.657  54.131  1.00  0.00    -0.345 N 
HETATM   15  H9  UNL     1      28.427  -0.568  55.105  1.00  0.00     0.166 HD
BRANCH  14  16
HETATM   16  P1  UNL     1      29.099  -1.762  53.294  1.00  0.00     0.113 P 
HETATM   17  H10 UNL     1      30.447  -1.780  53.775  1.00  0.00     0.111 HD
BRANCH  16  18
HETATM   18  O2  UNL     1      28.437  -3.289  52.899  1.00  0.00    -0.356 OA
HETATM   19  H11 UNL     1      27.900  -3.581  53.694  1.00  0.00     0.216 HD
ENDBRANCH  16  18
ENDBRANCH  14  16
ENDBRANCH  11  14
ENDBRANCH   7   8
ENDBRANCH   6   7
BRANCH   1  20
HETATM   20  C3  UNL     1      24.320   2.638  49.999  1.00  0.00     0.027 C 
HETATM   21  C2  UNL     1      25.029   3.777  50.051  1.00  0.00    -0.028 C 
HETATM   22  C1  UNL     1      26.483   3.864  49.654  1.00  0.00     0.051 C 
BRANCH  21  23
HETATM   23  C14 UNL     1      24.514   5.102  50.459  1.00  0.00     0.073 A 
HETATM   24  C15 UNL     1      23.789   5.450  51.496  1.00  0.00     0.037 A 
HETATM   25  C16 UNL     1      23.765   6.859  51.104  1.00  0.00     0.206 A 
HETATM   26  O3  UNL     1      24.529   6.408  50.038  1.00  0.00    -0.347 OA
ENDBRANCH  21  23
ENDBRANCH   1  20
TORSDOF 7
ENDMDL
MODEL 6
REMARK VINA RESULT:      -7.3      3.516      6.832
REMARK  7 active torsions:
REMARK  status: ('A' for Active; 'I' for Inactive)
REMARK    1  A    between atoms: C2_2  and  C14_20 
REMARK    2  A    between atoms: C3_3  and  C4_4 
REMARK    3  A    between atoms: C7_9  and  O1_10 
REMARK    4  A    between atoms: O1_10  and  C8_11 
REMARK    5  A    between atoms: C11_14  and  N3_15 
REMARK    6  A    between atoms: N3_15  and  P1_16 
REMARK    7  A    between atoms: P1_16  and  O2_17 
ROOT
HETATM    1  C4  UNL     1      22.488   3.280  49.907  1.00  0.00     0.035 A 
HETATM    2  C5  UNL     1      22.232   3.174  48.571  1.00  0.00     0.134 A 
HETATM    3  N1  UNL     1      21.769   1.992  48.148  1.00  0.00    -0.253 NA
HETATM    4  C6  UNL     1      21.571   0.970  48.998  1.00  0.00     0.235 A 
HETATM    5  N2  UNL     1      21.830   1.102  50.310  1.00  0.00    -0.217 NA
HETATM    6  C7  UNL     1      22.305   2.276  50.822  1.00  0.00     0.182 A 
ENDROOT
BRANCH   6   7
HETATM    7  O1  UNL     1      22.470   2.103  52.157  1.00  0.00    -0.291 OA
BRANCH   7   8
HETATM    8  C8  UNL     1      23.573   1.600  52.761  1.00  0.00     0.078 A 
HETATM    9  C9  UNL     1      24.539   2.543  53.112  1.00  0.00     0.039 A 
HETATM   10  C10 UNL     1      25.745   2.289  53.732  1.00  0.00     0.032 A 
HETATM   11  C11 UNL     1      26.013   0.977  54.030  1.00  0.00     0.033 A 
HETATM   12  C12 UNL     1      25.116  -0.022  53.721  1.00  0.00     0.032 A 
HETATM   13  C13 UNL     1      23.927   0.289  53.102  1.00  0.00     0.039 A 
BRANCH  11  14
HETATM   14  N3  UNL     1      27.236   0.641  54.666  1.00  0.00    -0.345 N 
HETATM   15  H9  UNL     1      27.237   0.125  55.596  1.00  0.00     0.166 HD
BRANCH  14  16
HETATM   16  P1  UNL     1      28.948   0.868  54.300  1.00  0.00     0.113 P 
HETATM   17  H10 UNL     1      29.430   0.168  53.149  1.00  0.00     0.111 HD
BRANCH  16  18
HETATM   18  O2  UNL     1      29.535   2.463  54.493  1.00  0.00    -0.356 OA
HETATM   19  H11 UNL     1      28.808   3.075  54.171  1.00  0.00     0.216 HD
ENDBRANCH  16  18
ENDBRANCH  14  16
ENDBRANCH  11  14
ENDBRANCH   7   8
ENDBRANCH   6   7
BRANCH   1  20
HETATM   20  C3  UNL     1      23.024   4.533  50.410  1.00  0.00     0.027 C 
HETATM   21  C2  UNL     1      24.139   5.280  50.420  1.00  0.00    -0.028 C 
HETATM   22  C1  UNL     1      24.235   6.612  51.124  1.00  0.00     0.051 C 
BRANCH  21  23
HETATM   23  C14 UNL     1      25.430   4.921  49.793  1.00  0.00     0.073 A 
HETATM   24  C15 UNL     1      26.181   3.855  49.943  1.00  0.00     0.037 A 
HETATM   25  C16 UNL     1      27.187   4.335  48.996  1.00  0.00     0.206 A 
HETATM   26  O3  UNL     1      26.336   5.426  48.895  1.00  0.00    -0.347 OA
ENDBRANCH  21  23
ENDBRANCH   1  20
TORSDOF 7
ENDMDL
MODEL 7
REMARK VINA RESULT:      -7.2      4.482      7.726
REMARK  7 active torsions:
REMARK  status: ('A' for Active; 'I' for Inactive)
REMARK    1  A    between atoms: C2_2  and  C14_20 
REMARK    2  A    between atoms: C3_3  and  C4_4 
REMARK    3  A    between atoms: C7_9  and  O1_10 
REMARK    4  A    between atoms: O1_10  and  C8_11 
REMARK    5  A    between atoms: C11_14  and  N3_15 
REMARK    6  A    between atoms: N3_15  and  P1_16 
REMARK    7  A    between atoms: P1_16  and  O2_17 
ROOT
HETATM    1  C4  UNL     1      25.531   1.995  51.566  1.00  0.00     0.035 A 
HETATM    2  C5  UNL     1      26.269   2.759  50.711  1.00  0.00     0.134 A 
HETATM    3  N1  UNL     1      25.749   3.945  50.376  1.00  0.00    -0.253 NA
HETATM    4  C6  UNL     1      24.564   4.354  50.859  1.00  0.00     0.235 A 
HETATM    5  N2  UNL     1      23.857   3.582  51.702  1.00  0.00    -0.217 NA
HETATM    6  C7  UNL     1      24.318   2.357  52.093  1.00  0.00     0.182 A 
ENDROOT
BRANCH   6   7
HETATM    7  O1  UNL     1      23.397   1.822  52.932  1.00  0.00    -0.291 OA
BRANCH   7   8
HETATM    8  C8  UNL     1      22.211   1.280  52.565  1.00  0.00     0.078 A 
HETATM    9  C9  UNL     1      21.495   0.670  53.595  1.00  0.00     0.039 A 
HETATM   10  C10 UNL     1      20.269   0.046  53.483  1.00  0.00     0.032 A 
HETATM   11  C11 UNL     1      19.706   0.028  52.232  1.00  0.00     0.033 A 
HETATM   12  C12 UNL     1      20.342   0.607  51.155  1.00  0.00     0.032 A 
HETATM   13  C13 UNL     1      21.564   1.216  51.326  1.00  0.00     0.039 A 
BRANCH  11  14
HETATM   14  N3  UNL     1      18.447  -0.599  52.041  1.00  0.00    -0.345 N 
HETATM   15  H9  UNL     1      18.008  -0.643  51.074  1.00  0.00     0.166 HD
BRANCH  14  16
HETATM   16  P1  UNL     1      17.279  -1.418  53.080  1.00  0.00     0.113 P 
HETATM   17  H10 UNL     1      17.838  -2.172  54.160  1.00  0.00     0.111 HD
BRANCH  16  18
HETATM   18  O2  UNL     1      15.875  -0.517  53.458  1.00  0.00    -0.356 OA
HETATM   19  H11 UNL     1      15.284  -1.123  53.997  1.00  0.00     0.216 HD
ENDBRANCH  16  18
ENDBRANCH  14  16
ENDBRANCH  11  14
ENDBRANCH   7   8
ENDBRANCH   6   7
BRANCH   1  20
HETATM   20  C3  UNL     1      26.037   0.684  51.934  1.00  0.00     0.027 C 
HETATM   21  C2  UNL     1      26.976   0.083  52.683  1.00  0.00    -0.028 C 
HETATM   22  C1  UNL     1      27.134  -1.416  52.763  1.00  0.00     0.051 C 
BRANCH  21  23
HETATM   23  C14 UNL     1      28.002   0.766  53.501  1.00  0.00     0.073 A 
HETATM   24  C15 UNL     1      29.218   0.394  53.824  1.00  0.00     0.037 A 
HETATM   25  C16 UNL     1      29.468   1.611  54.597  1.00  0.00     0.206 A 
HETATM   26  O3  UNL     1      28.174   1.928  54.210  1.00  0.00    -0.347 OA
ENDBRANCH  21  23
ENDBRANCH   1  20
TORSDOF 7
ENDMDL
MODEL 8
REMARK VINA RESULT:      -7.1      4.614      7.845
REMARK  7 active torsions:
REMARK  status: ('A' for Active; 'I' for Inactive)
REMARK    1  A    between atoms: C2_2  and  C14_20 
REMARK    2  A    between atoms: C3_3  and  C4_4 
REMARK    3  A    between atoms: C7_9  and  O1_10 
REMARK    4  A    between atoms: O1_10  and  C8_11 
REMARK    5  A    between atoms: C11_14  and  N3_15 
REMARK    6  A    between atoms: N3_15  and  P1_16 
REMARK    7  A    between atoms: P1_16  and  O2_17 
ROOT
HETATM    1  C4  UNL     1      25.387   1.237  52.655  1.00  0.00     0.035 A 
HETATM    2  C5  UNL     1      26.454   1.182  51.807  1.00  0.00     0.134 A 
HETATM    3  N1  UNL     1      27.080   0.002  51.720  1.00  0.00    -0.253 NA
HETATM    4  C6  UNL     1      26.675  -1.063  52.430  1.00  0.00     0.235 A 
HETATM    5  N2  UNL     1      25.619  -0.982  53.257  1.00  0.00    -0.217 NA
HETATM    6  C7  UNL     1      24.925   0.186  53.404  1.00  0.00     0.182 A 
ENDROOT
BRANCH   6   7
HETATM    7  O1  UNL     1      23.928  -0.040  54.296  1.00  0.00    -0.291 OA
BRANCH   7   8
HETATM    8  C8  UNL     1      22.623  -0.237  53.993  1.00  0.00     0.078 A 
HETATM    9  C9  UNL     1      22.033  -1.344  54.605  1.00  0.00     0.039 A 
HETATM   10  C10 UNL     1      20.726  -1.760  54.460  1.00  0.00     0.032 A 
HETATM   11  C11 UNL     1      19.934  -1.007  53.631  1.00  0.00     0.033 A 
HETATM   12  C12 UNL     1      20.432   0.104  52.984  1.00  0.00     0.032 A 
HETATM   13  C13 UNL     1      21.745   0.473  53.166  1.00  0.00     0.039 A 
BRANCH  11  14
HETATM   14  N3  UNL     1      18.579  -1.378  53.431  1.00  0.00    -0.345 N 
HETATM   15  H9  UNL     1      18.181  -2.240  53.910  1.00  0.00     0.166 HD
BRANCH  14  16
HETATM   16  P1  UNL     1      17.221  -0.734  52.507  1.00  0.00     0.113 P 
HETATM   17  H10 UNL     1      17.066  -1.265  51.188  1.00  0.00     0.111 HD
BRANCH  16  18
HETATM   18  O2  UNL     1      15.772  -0.513  53.389  1.00  0.00    -0.356 OA
HETATM   19  H11 UNL     1      15.517  -1.415  53.748  1.00  0.00     0.216 HD
ENDBRANCH  16  18
ENDBRANCH  14  16
ENDBRANCH  11  14
ENDBRANCH   7   8
ENDBRANCH   6   7
BRANCH   1  20
HETATM   20  C3  UNL     1      24.693   2.504  52.811  1.00  0.00     0.027 C 
HETATM   21  C2  UNL     1      23.936   3.387  52.139  1.00  0.00    -0.028 C 
HETATM   22  C1  UNL     1      23.400   4.655  52.758  1.00  0.00     0.051 C 
BRANCH  21  23
HETATM   23  C14 UNL     1      23.542   3.286  50.716  1.00  0.00     0.073 A 
HETATM   24  C15 UNL     1      22.788   2.404  50.104  1.00  0.00     0.037 A 
HETATM   25  C16 UNL     1      22.946   3.058  48.804  1.00  0.00     0.206 A 
HETATM   26  O3  UNL     1      23.728   3.945  49.528  1.00  0.00    -0.347 OA
ENDBRANCH  21  23
ENDBRANCH   1  20
TORSDOF 7
ENDMDL
MODEL 9
REMARK VINA RESULT:      -6.6      3.181      4.121
REMARK  7 active torsions:
REMARK  status: ('A' for Active; 'I' for Inactive)
REMARK    1  A    between atoms: C2_2  and  C14_20 
REMARK    2  A    between atoms: C3_3  and  C4_4 
REMARK    3  A    between atoms: C7_9  and  O1_10 
REMARK    4  A    between atoms: O1_10  and  C8_11 
REMARK    5  A    between atoms: C11_14  and  N3_15 
REMARK    6  A    between atoms: N3_15  and  P1_16 
REMARK    7  A    between atoms: P1_16  and  O2_17 
ROOT
HETATM    1  C4  UNL     1      23.181   2.918  49.301  1.00  0.00     0.035 A 
HETATM    2  C5  UNL     1      22.293   2.134  48.623  1.00  0.00     0.134 A 
HETATM    3  N1  UNL     1      21.767   2.661  47.511  1.00  0.00    -0.253 NA
HETATM    4  C6  UNL     1      22.099   3.893  47.092  1.00  0.00     0.235 A 
HETATM    5  N2  UNL     1      22.978   4.643  47.778  1.00  0.00    -0.217 NA
HETATM    6  C7  UNL     1      23.560   4.180  48.923  1.00  0.00     0.182 A 
ENDROOT
BRANCH   6   7
HETATM    7  O1  UNL     1      24.388   5.151  49.383  1.00  0.00    -0.291 OA
BRANCH   7   8
HETATM    8  C8  UNL     1      25.695   5.297  49.061  1.00  0.00     0.078 A 
HETATM    9  C9  UNL     1      26.068   6.580  48.662  1.00  0.00     0.039 A 
HETATM   10  C10 UNL     1      27.331   6.986  48.284  1.00  0.00     0.032 A 
HETATM   11  C11 UNL     1      28.312   6.027  48.304  1.00  0.00     0.033 A 
HETATM   12  C12 UNL     1      28.035   4.732  48.685  1.00  0.00     0.032 A 
HETATM   13  C13 UNL     1      26.756   4.383  49.053  1.00  0.00     0.039 A 
BRANCH  11  14
HETATM   14  N3  UNL     1      29.634   6.372  47.924  1.00  0.00    -0.345 N 
HETATM   15  H9  UNL     1      29.845   6.684  46.929  1.00  0.00     0.166 HD
BRANCH  14  16
HETATM   16  P1  UNL     1      31.201   6.435  48.734  1.00  0.00     0.113 P 
HETATM   17  H10 UNL     1      31.833   7.718  48.755  1.00  0.00     0.111 HD
BRANCH  16  18
HETATM   18  O2  UNL     1      31.315   5.534  50.183  1.00  0.00    -0.356 OA
HETATM   19  H11 UNL     1      30.409   5.130  50.339  1.00  0.00     0.216 HD
ENDBRANCH  16  18
ENDBRANCH  14  16
ENDBRANCH  11  14
ENDBRANCH   7   8
ENDBRANCH   6   7
BRANCH   1  20
HETATM   20  C3  UNL     1      23.755   2.405  50.532  1.00  0.00     0.027 C 
HETATM   21  C2  UNL     1      23.439   1.725  51.647  1.00  0.00    -0.028 C 
HETATM   22  C1  UNL     1      24.440   1.398  52.728  1.00  0.00     0.051 C 
BRANCH  21  23
HETATM   23  C14 UNL     1      22.092   1.229  52.007  1.00  0.00     0.073 A 
HETATM   24  C15 UNL     1      21.480   0.116  51.677  1.00  0.00     0.037 A 
HETATM   25  C16 UNL     1      20.279   0.461  52.438  1.00  0.00     0.206 A 
HETATM   26  O3  UNL     1      20.996   1.609  52.739  1.00  0.00    -0.347 OA
ENDBRANCH  21  23
ENDBRANCH   1  20
TORSDOF 7
ENDMDL
