MODEL 1
REMARK VINA RESULT:      -8.7      0.000      0.000
REMARK  8 active torsions:
REMARK  status: ('A' for Active; 'I' for Inactive)
REMARK    1  A    between atoms: C2_2  and  C3_3 
REMARK    2  A    between atoms: C2_2  and  N1_8 
REMARK    3  A    between atoms: C4_4  and  C5_5 
REMARK    4  A    between atoms: N1_8  and  C8_9 
REMARK    5  A    between atoms: N4_19  and  C16_20 
REMARK    6  A    between atoms: C16_20  and  C17_21 
REMARK    7  A    between atoms: C17_21  and  C18_22 
REMARK    8  A    between atoms: C18_22  and  N5_23 
ROOT
HETATM    1  C8  UNL     1      27.036   2.191  52.321  1.00  0.00     0.141 A 
HETATM    2  N2  UNL     1      28.279   1.930  52.711  1.00  0.00    -0.224 NA
HETATM    3  C9  UNL     1      28.604   0.936  53.547  1.00  0.00     0.236 A 
HETATM    4  N3  UNL     1      27.605   0.178  54.003  1.00  0.00    -0.241 NA
HETATM    5  C10 UNL     1      26.331   0.396  53.642  1.00  0.00     0.075 A 
HETATM    6  C11 UNL     1      25.319  -0.395  54.132  1.00  0.00     0.071 A 
HETATM    7  C12 UNL     1      23.972  -0.211  53.799  1.00  0.00     0.098 A 
HETATM    8  C13 UNL     1      23.641   0.833  52.923  1.00  0.00     0.071 A 
HETATM    9  C14 UNL     1      24.680   1.597  52.457  1.00  0.00     0.050 A 
HETATM   10  C15 UNL     1      26.003   1.416  52.783  1.00  0.00     0.041 A 
HETATM   11  N4  UNL     1      22.267   1.094  52.553  1.00  0.00    -0.314 N 
HETATM   12  C24 UNL     1      21.305   0.222  53.141  1.00  0.00     0.248 C 
HETATM   13  O1  UNL     1      20.115   0.647  53.211  1.00  0.00    -0.271 OA
HETATM   14  C25 UNL     1      21.704  -1.140  53.648  1.00  0.00     0.279 C 
HETATM   15  O2  UNL     1      22.975  -1.036  54.318  1.00  0.00    -0.340 OA
ENDROOT
BRANCH   1  16
HETATM   16  N1  UNL     1      26.690   3.244  51.447  1.00  0.00    -0.347 N 
HETATM   17  H10 UNL     1      26.712   4.250  51.602  1.00  0.00     0.167 HD
BRANCH  16  18
HETATM   18  C2  UNL     1      26.195   3.408  50.127  1.00  0.00    -0.007 C 
HETATM   19  C1  UNL     1      25.111   3.169  49.369  1.00  0.00     0.099 C 
BRANCH  18  20
HETATM   20  C3  UNL     1      27.045   4.066  49.100  1.00  0.00     0.037 C 
HETATM   21  C4  UNL     1      26.932   5.407  48.963  1.00  0.00    -0.021 C 
BRANCH  21  22
HETATM   22  C5  UNL     1      27.534   6.457  48.122  1.00  0.00    -0.008 C 
HETATM   23  C6  UNL     1      28.777   6.651  47.720  1.00  0.00    -0.031 C 
HETATM   24  C7  UNL     1      29.911   5.770  48.065  1.00  0.00     0.036 C 
ENDBRANCH  21  22
ENDBRANCH  18  20
ENDBRANCH  16  18
ENDBRANCH   1  16
BRANCH  11  25
HETATM   25  C16 UNL     1      21.954   2.179  51.648  1.00  0.00     0.134 C 
BRANCH  25  26
HETATM   26  C17 UNL     1      21.908   3.529  52.319  1.00  0.00     0.050 C 
BRANCH  26  27
HETATM   27  C18 UNL     1      21.237   4.571  51.496  1.00  0.00     0.274 C 
BRANCH  27  28
HETATM   28  N5  UNL     1      22.089   5.557  50.937  1.00  0.00     0.088 N 
HETATM   29  C19 UNL     1      22.063   5.603  49.488  1.00  0.00     0.272 C 
HETATM   30  C20 UNL     1      23.284   6.253  48.891  1.00  0.00     0.030 C 
HETATM   31  C21 UNL     1      23.838   7.361  49.743  1.00  0.00     0.003 C 
HETATM   32  C22 UNL     1      23.931   7.015  51.188  1.00  0.00     0.030 C 
HETATM   33  C23 UNL     1      23.451   5.577  51.396  1.00  0.00     0.272 C 
ENDBRANCH  27  28
ENDBRANCH  26  27
ENDBRANCH  25  26
ENDBRANCH  11  25
TORSDOF 8
ENDMDL
MODEL 2
REMARK VINA RESULT:      -8.7      1.491      1.925
REMARK  8 active torsions:
REMARK  status: ('A' for Active; 'I' for Inactive)
REMARK    1  A    between atoms: C2_2  and  C3_3 
REMARK    2  A    between atoms: C2_2  and  N1_8 
REMARK    3  A    between atoms: C4_4  and  C5_5 
REMARK    4  A    between atoms: N1_8  and  C8_9 
REMARK    5  A    between atoms: N4_19  and  C16_20 
REMARK    6  A    between atoms: C16_20  and  C17_21 
REMARK    7  A    between atoms: C17_21  and  C18_22 
REMARK    8  A    between atoms: C18_22  and  N5_23 
ROOT
HETATM    1  C8  UNL     1      26.595   0.981  52.459  1.00  0.00     0.141 A 
HETATM    2  N2  UNL     1      27.822   0.931  52.966  1.00  0.00    -0.224 NA
HETATM    3  C9  UNL     1      28.129   0.319  54.117  1.00  0.00     0.236 A 
HETATM    4  N3  UNL     1      27.127  -0.269  54.775  1.00  0.00    -0.241 NA
HETATM    5  C10 UNL     1      25.869  -0.250  54.309  1.00  0.00     0.075 A 
HETATM    6  C11 UNL     1      24.854  -0.857  55.011  1.00  0.00     0.071 A 
HETATM    7  C12 UNL     1      23.522  -0.864  54.581  1.00  0.00     0.098 A 
HETATM    8  C13 UNL     1      23.210  -0.219  53.376  1.00  0.00     0.071 A 
HETATM    9  C14 UNL     1      24.251   0.372  52.707  1.00  0.00     0.050 A 
HETATM   10  C15 UNL     1      25.559   0.378  53.128  1.00  0.00     0.041 A 
HETATM   11  N4  UNL     1      21.850  -0.169  52.882  1.00  0.00    -0.314 N 
HETATM   12  C24 UNL     1      20.882  -0.814  53.706  1.00  0.00     0.248 C 
HETATM   13  O1  UNL     1      19.680  -0.444  53.571  1.00  0.00    -0.271 OA
HETATM   14  C25 UNL     1      21.291  -1.884  54.685  1.00  0.00     0.279 C 
HETATM   15  O2  UNL     1      22.521  -1.491  55.322  1.00  0.00    -0.340 OA
ENDROOT
BRANCH   1  16
HETATM   16  N1  UNL     1      26.267   1.634  51.252  1.00  0.00    -0.347 N 
HETATM   17  H10 UNL     1      26.406   1.330  50.290  1.00  0.00     0.167 HD
BRANCH  16  18
HETATM   18  C2  UNL     1      25.687   2.859  50.833  1.00  0.00    -0.007 C 
HETATM   19  C1  UNL     1      24.720   3.735  51.157  1.00  0.00     0.099 C 
BRANCH  18  20
HETATM   20  C3  UNL     1      26.227   3.556  49.635  1.00  0.00     0.037 C 
HETATM   21  C4  UNL     1      26.160   4.907  49.617  1.00  0.00    -0.021 C 
BRANCH  21  22
HETATM   22  C5  UNL     1      26.544   5.991  48.695  1.00  0.00    -0.008 C 
HETATM   23  C6  UNL     1      27.700   6.292  48.132  1.00  0.00    -0.031 C 
HETATM   24  C7  UNL     1      28.949   5.531  48.335  1.00  0.00     0.036 C 
ENDBRANCH  21  22
ENDBRANCH  18  20
ENDBRANCH  16  18
ENDBRANCH   1  16
BRANCH  11  25
HETATM   25  C16 UNL     1      21.557   0.504  51.636  1.00  0.00     0.134 C 
BRANCH  25  26
HETATM   26  C17 UNL     1      21.120   1.937  51.812  1.00  0.00     0.050 C 
BRANCH  26  27
HETATM   27  C18 UNL     1      20.478   2.509  50.598  1.00  0.00     0.274 C 
BRANCH  27  28
HETATM   28  N5  UNL     1      21.336   3.237  49.734  1.00  0.00     0.088 N 
HETATM   29  C19 UNL     1      21.157   4.675  49.802  1.00  0.00     0.272 C 
HETATM   30  C20 UNL     1      21.665   5.396  48.582  1.00  0.00     0.030 C 
HETATM   31  C21 UNL     1      22.872   4.742  47.970  1.00  0.00     0.003 C 
HETATM   32  C22 UNL     1      22.752   3.264  47.843  1.00  0.00     0.030 C 
HETATM   33  C23 UNL     1      21.381   2.821  48.359  1.00  0.00     0.272 C 
ENDBRANCH  27  28
ENDBRANCH  26  27
ENDBRANCH  25  26
ENDBRANCH  11  25
TORSDOF 8
ENDMDL
MODEL 3
REMARK VINA RESULT:      -8.5      1.663      2.900
REMARK  8 active torsions:
REMARK  status: ('A' for Active; 'I' for Inactive)
REMARK    1  A    between atoms: C2_2  and  C3_3 
REMARK    2  A    between atoms: C2_2  and  N1_8 
REMARK    3  A    between atoms: C4_4  and  C5_5 
REMARK    4  A    between atoms: N1_8  and  C8_9 
REMARK    5  A    between atoms: N4_19  and  C16_20 
REMARK    6  A    between atoms: C16_20  and  C17_21 
REMARK    7  A    between atoms: C17_21  and  C18_22 
REMARK    8  A    between atoms: C18_22  and  N5_23 
ROOT
HETATM    1  C8  UNL     1      26.407   2.278  52.232  1.00  0.00     0.141 A 
HETATM    2  N2  UNL     1      27.714   2.225  52.463  1.00  0.00    -0.224 NA
HETATM    3  C9  UNL     1      28.292   1.337  53.281  1.00  0.00     0.236 A 
HETATM    4  N3  UNL     1      27.487   0.463  53.890  1.00  0.00    -0.241 NA
HETATM    5  C10 UNL     1      26.159   0.470  53.694  1.00  0.00     0.075 A 
HETATM    6  C11 UNL     1      25.352  -0.436  54.340  1.00  0.00     0.071 A 
HETATM    7  C12 UNL     1      23.961  -0.472  54.183  1.00  0.00     0.098 A 
HETATM    8  C13 UNL     1      23.365   0.463  53.325  1.00  0.00     0.071 A 
HETATM    9  C14 UNL     1      24.207   1.348  52.699  1.00  0.00     0.050 A 
HETATM   10  C15 UNL     1      25.572   1.383  52.853  1.00  0.00     0.041 A 
HETATM   11  N4  UNL     1      21.931   0.496  53.131  1.00  0.00    -0.314 N 
HETATM   12  C24 UNL     1      21.197  -0.477  53.870  1.00  0.00     0.248 C 
HETATM   13  O1  UNL     1      19.975  -0.230  54.083  1.00  0.00    -0.271 OA
HETATM   14  C25 UNL     1      21.863  -1.735  54.365  1.00  0.00     0.279 C 
HETATM   15  O2  UNL     1      23.177  -1.408  54.857  1.00  0.00    -0.340 OA
ENDROOT
BRANCH   1  16
HETATM   16  N1  UNL     1      25.795   3.219  51.378  1.00  0.00    -0.347 N 
HETATM   17  H10 UNL     1      24.940   3.757  51.509  1.00  0.00     0.167 HD
BRANCH  16  18
HETATM   18  C2  UNL     1      26.015   3.791  50.098  1.00  0.00    -0.007 C 
HETATM   19  C1  UNL     1      26.995   4.069  49.220  1.00  0.00     0.099 C 
BRANCH  18  20
HETATM   20  C3  UNL     1      24.861   4.302  49.313  1.00  0.00     0.037 C 
HETATM   21  C4  UNL     1      24.893   5.599  48.931  1.00  0.00    -0.021 C 
BRANCH  21  22
HETATM   22  C5  UNL     1      24.023   6.520  48.175  1.00  0.00    -0.008 C 
HETATM   23  C6  UNL     1      23.144   7.419  48.576  1.00  0.00    -0.031 C 
HETATM   24  C7  UNL     1      22.831   7.706  49.990  1.00  0.00     0.036 C 
ENDBRANCH  21  22
ENDBRANCH  18  20
ENDBRANCH  16  18
ENDBRANCH   1  16
BRANCH  11  25
HETATM   25  C16 UNL     1      21.344   1.473  52.240  1.00  0.00     0.134 C 
BRANCH  25  26
HETATM   26  C17 UNL     1      20.804   0.878  50.964  1.00  0.00     0.050 C 
BRANCH  26  27
HETATM   27  C18 UNL     1      19.972   1.830  50.178  1.00  0.00     0.274 C 
BRANCH  27  28
HETATM   28  N5  UNL     1      20.587   2.373  49.021  1.00  0.00     0.088 N 
HETATM   29  C19 UNL     1      21.541   1.481  48.389  1.00  0.00     0.272 C 
HETATM   30  C20 UNL     1      22.533   2.197  47.510  1.00  0.00     0.030 C 
HETATM   31  C21 UNL     1      21.953   3.405  46.829  1.00  0.00     0.003 C 
HETATM   32  C22 UNL     1      21.146   4.271  47.730  1.00  0.00     0.030 C 
HETATM   33  C23 UNL     1      21.162   3.685  49.144  1.00  0.00     0.272 C 
ENDBRANCH  27  28
ENDBRANCH  26  27
ENDBRANCH  25  26
ENDBRANCH  11  25
TORSDOF 8
ENDMDL
MODEL 4
REMARK VINA RESULT:      -8.3      1.816      3.007
REMARK  8 active torsions:
REMARK  status: ('A' for Active; 'I' for Inactive)
REMARK    1  A    between atoms: C2_2  and  C3_3 
REMARK    2  A    between atoms: C2_2  and  N1_8 
REMARK    3  A    between atoms: C4_4  and  C5_5 
REMARK    4  A    between atoms: N1_8  and  C8_9 
REMARK    5  A    between atoms: N4_19  and  C16_20 
REMARK    6  A    between atoms: C16_20  and  C17_21 
REMARK    7  A    between atoms: C17_21  and  C18_22 
REMARK    8  A    between atoms: C18_22  and  N5_23 
ROOT
HETATM    1  C8  UNL     1      26.852   2.189  52.415  1.00  0.00     0.141 A 
HETATM    2  N2  UNL     1      28.139   2.005  52.692  1.00  0.00    -0.224 NA
HETATM    3  C9  UNL     1      28.599   1.022  53.477  1.00  0.00     0.236 A 
HETATM    4  N3  UNL     1      27.694   0.193  54.001  1.00  0.00    -0.241 NA
HETATM    5  C10 UNL     1      26.382   0.332  53.755  1.00  0.00     0.075 A 
HETATM    6  C11 UNL     1      25.470  -0.532  54.314  1.00  0.00     0.071 A 
HETATM    7  C12 UNL     1      24.090  -0.432  54.102  1.00  0.00     0.098 A 
HETATM    8  C13 UNL     1      23.617   0.600  53.279  1.00  0.00     0.071 A 
HETATM    9  C14 UNL     1      24.561   1.438  52.741  1.00  0.00     0.050 A 
HETATM   10  C15 UNL     1      25.915   1.340  52.949  1.00  0.00     0.041 A 
HETATM   11  N4  UNL     1      22.202   0.775  53.033  1.00  0.00    -0.314 N 
HETATM   12  C24 UNL     1      21.353  -0.167  53.683  1.00  0.00     0.248 C 
HETATM   13  O1  UNL     1      20.149   0.177  53.863  1.00  0.00    -0.271 OA
HETATM   14  C25 UNL     1      21.882  -1.507  54.126  1.00  0.00     0.279 C 
HETATM   15  O2  UNL     1      23.197  -1.329  54.687  1.00  0.00    -0.340 OA
ENDROOT
BRANCH   1  16
HETATM   16  N1  UNL     1      26.364   3.229  51.597  1.00  0.00    -0.347 N 
HETATM   17  H10 UNL     1      26.182   4.205  51.825  1.00  0.00     0.167 HD
BRANCH  16  18
HETATM   18  C2  UNL     1      25.930   3.411  50.258  1.00  0.00    -0.007 C 
HETATM   19  C1  UNL     1      24.869   3.211  49.456  1.00  0.00     0.099 C 
BRANCH  18  20
HETATM   20  C3  UNL     1      26.844   4.036  49.266  1.00  0.00     0.037 C 
HETATM   21  C4  UNL     1      26.711   5.363  49.045  1.00  0.00    -0.021 C 
BRANCH  21  22
HETATM   22  C5  UNL     1      27.354   6.383  48.197  1.00  0.00    -0.008 C 
HETATM   23  C6  UNL     1      28.610   6.543  47.822  1.00  0.00    -0.031 C 
HETATM   24  C7  UNL     1      29.718   5.649  48.213  1.00  0.00     0.036 C 
ENDBRANCH  21  22
ENDBRANCH  18  20
ENDBRANCH  16  18
ENDBRANCH   1  16
BRANCH  11  25
HETATM   25  C16 UNL     1      21.743   1.850  52.180  1.00  0.00     0.134 C 
BRANCH  25  26
HETATM   26  C17 UNL     1      21.580   1.448  50.736  1.00  0.00     0.050 C 
BRANCH  26  27
HETATM   27  C18 UNL     1      20.191   1.038  50.393  1.00  0.00     0.274 C 
BRANCH  27  28
HETATM   28  N5  UNL     1      19.164   1.899  50.855  1.00  0.00     0.088 N 
HETATM   29  C19 UNL     1      17.971   1.205  51.299  1.00  0.00     0.272 C 
HETATM   30  C20 UNL     1      16.742   2.077  51.304  1.00  0.00     0.030 C 
HETATM   31  C21 UNL     1      17.039   3.510  51.644  1.00  0.00     0.003 C 
HETATM   32  C22 UNL     1      18.220   4.063  50.927  1.00  0.00     0.030 C 
HETATM   33  C23 UNL     1      18.795   2.992  49.998  1.00  0.00     0.272 C 
ENDBRANCH  27  28
ENDBRANCH  26  27
ENDBRANCH  25  26
ENDBRANCH  11  25
TORSDOF 8
ENDMDL
MODEL 5
REMARK VINA RESULT:      -8.3      2.322      5.295
REMARK  8 active torsions:
REMARK  status: ('A' for Active; 'I' for Inactive)
REMARK    1  A    between atoms: C2_2  and  C3_3 
REMARK    2  A    between atoms: C2_2  and  N1_8 
REMARK    3  A    between atoms: C4_4  and  C5_5 
REMARK    4  A    between atoms: N1_8  and  C8_9 
REMARK    5  A    between atoms: N4_19  and  C16_20 
REMARK    6  A    between atoms: C16_20  and  C17_21 
REMARK    7  A    between atoms: C17_21  and  C18_22 
REMARK    8  A    between atoms: C18_22  and  N5_23 
ROOT
HETATM    1  C8  UNL     1      21.687   0.138  53.181  1.00  0.00     0.141 A 
HETATM    2  N2  UNL     1      20.788  -0.707  53.674  1.00  0.00    -0.224 NA
HETATM    3  C9  UNL     1      21.078  -1.670  54.558  1.00  0.00     0.236 A 
HETATM    4  N3  UNL     1      22.349  -1.769  54.951  1.00  0.00    -0.241 NA
HETATM    5  C10 UNL     1      23.299  -0.942  54.485  1.00  0.00     0.075 A 
HETATM    6  C11 UNL     1      24.603  -1.070  54.900  1.00  0.00     0.071 A 
HETATM    7  C12 UNL     1      25.638  -0.245  54.444  1.00  0.00     0.098 A 
HETATM    8  C13 UNL     1      25.325   0.761  53.518  1.00  0.00     0.071 A 
HETATM    9  C14 UNL     1      24.013   0.855  53.132  1.00  0.00     0.050 A 
HETATM   10  C15 UNL     1      22.997   0.045  53.579  1.00  0.00     0.041 A 
HETATM   11  N4  UNL     1      26.349   1.637  52.989  1.00  0.00    -0.314 N 
HETATM   12  C24 UNL     1      27.666   1.394  53.476  1.00  0.00     0.248 C 
HETATM   13  O1  UNL     1      28.625   1.804  52.760  1.00  0.00    -0.271 OA
HETATM   14  C25 UNL     1      27.886   0.681  54.786  1.00  0.00     0.279 C 
HETATM   15  O2  UNL     1      26.949  -0.407  54.890  1.00  0.00    -0.340 OA
ENDROOT
BRANCH   1  16
HETATM   16  N1  UNL     1      21.387   1.148  52.242  1.00  0.00    -0.347 N 
HETATM   17  H10 UNL     1      21.345   2.158  52.364  1.00  0.00     0.167 HD
BRANCH  16  18
HETATM   18  C2  UNL     1      21.029   1.250  50.872  1.00  0.00    -0.007 C 
HETATM   19  C1  UNL     1      19.967   1.174  50.050  1.00  0.00     0.099 C 
BRANCH  18  20
HETATM   20  C3  UNL     1      22.074   1.552  49.859  1.00  0.00     0.037 C 
HETATM   21  C4  UNL     1      21.659   1.930  48.629  1.00  0.00    -0.021 C 
BRANCH  21  22
HETATM   22  C5  UNL     1      22.288   2.314  47.352  1.00  0.00    -0.008 C 
HETATM   23  C6  UNL     1      22.040   3.308  46.518  1.00  0.00    -0.031 C 
HETATM   24  C7  UNL     1      20.988   4.323  46.722  1.00  0.00     0.036 C 
ENDBRANCH  21  22
ENDBRANCH  18  20
ENDBRANCH  16  18
ENDBRANCH   1  16
BRANCH  11  25
HETATM   25  C16 UNL     1      25.998   2.665  52.033  1.00  0.00     0.134 C 
BRANCH  25  26
HETATM   26  C17 UNL     1      26.100   2.214  50.597  1.00  0.00     0.050 C 
BRANCH  26  27
HETATM   27  C18 UNL     1      26.659   3.255  49.693  1.00  0.00     0.274 C 
BRANCH  27  28
HETATM   28  N5  UNL     1      25.949   4.482  49.655  1.00  0.00     0.088 N 
HETATM   29  C19 UNL     1      24.568   4.349  49.234  1.00  0.00     0.272 C 
HETATM   30  C20 UNL     1      23.977   5.634  48.714  1.00  0.00     0.030 C 
HETATM   31  C21 UNL     1      24.516   6.853  49.409  1.00  0.00     0.003 C 
HETATM   32  C22 UNL     1      25.995   6.843  49.575  1.00  0.00     0.030 C 
HETATM   33  C23 UNL     1      26.566   5.570  48.946  1.00  0.00     0.272 C 
ENDBRANCH  27  28
ENDBRANCH  26  27
ENDBRANCH  25  26
ENDBRANCH  11  25
TORSDOF 8
ENDMDL
MODEL 6
REMARK VINA RESULT:      -8.3      1.907      3.337
REMARK  8 active torsions:
REMARK  status: ('A' for Active; 'I' for Inactive)
REMARK    1  A    between atoms: C2_2  and  C3_3 
REMARK    2  A    between atoms: C2_2  and  N1_8 
REMARK    3  A    between atoms: C4_4  and  C5_5 
REMARK    4  A    between atoms: N1_8  and  C8_9 
REMARK    5  A    between atoms: N4_19  and  C16_20 
REMARK    6  A    between atoms: C16_20  and  C17_21 
REMARK    7  A    between atoms: C17_21  and  C18_22 
REMARK    8  A    between atoms: C18_22  and  N5_23 
ROOT
HETATM    1  C8  UNL     1      27.090   1.902  52.649  1.00  0.00     0.141 A 
HETATM    2  N2  UNL     1      28.358   1.597  52.901  1.00  0.00    -0.224 NA
HETATM    3  C9  UNL     1      28.740   0.540  53.630  1.00  0.00     0.236 A 
HETATM    4  N3  UNL     1      27.772  -0.237  54.122  1.00  0.00    -0.241 NA
HETATM    5  C10 UNL     1      26.475   0.024  53.898  1.00  0.00     0.075 A 
HETATM    6  C11 UNL     1      25.498  -0.789  54.423  1.00  0.00     0.071 A 
HETATM    7  C12 UNL     1      24.129  -0.564  54.232  1.00  0.00     0.098 A 
HETATM    8  C13 UNL     1      23.739   0.546  53.467  1.00  0.00     0.071 A 
HETATM    9  C14 UNL     1      24.745   1.329  52.962  1.00  0.00     0.050 A 
HETATM   10  C15 UNL     1      26.088   1.108  53.149  1.00  0.00     0.041 A 
HETATM   11  N4  UNL     1      22.341   0.850  53.247  1.00  0.00    -0.314 N 
HETATM   12  C24 UNL     1      21.421  -0.050  53.858  1.00  0.00     0.248 C 
HETATM   13  O1  UNL     1      20.252   0.384  54.070  1.00  0.00    -0.271 OA
HETATM   14  C25 UNL     1      21.839  -1.451  54.227  1.00  0.00     0.279 C 
HETATM   15  O2  UNL     1      23.168  -1.412  54.781  1.00  0.00    -0.340 OA
ENDROOT
BRANCH   1  16
HETATM   16  N1  UNL     1      26.684   3.020  51.889  1.00  0.00    -0.347 N 
HETATM   17  H10 UNL     1      26.585   3.994  52.169  1.00  0.00     0.167 HD
BRANCH  16  18
HETATM   18  C2  UNL     1      26.259   3.306  50.566  1.00  0.00    -0.007 C 
HETATM   19  C1  UNL     1      26.736   3.603  49.345  1.00  0.00     0.099 C 
BRANCH  18  20
HETATM   20  C3  UNL     1      24.807   3.309  50.245  1.00  0.00     0.037 C 
HETATM   21  C4  UNL     1      24.407   4.036  49.177  1.00  0.00    -0.021 C 
BRANCH  21  22
HETATM   22  C5  UNL     1      23.134   4.336  48.496  1.00  0.00    -0.008 C 
HETATM   23  C6  UNL     1      22.305   3.568  47.812  1.00  0.00    -0.031 C 
HETATM   24  C7  UNL     1      22.509   2.125  47.576  1.00  0.00     0.036 C 
ENDBRANCH  21  22
ENDBRANCH  18  20
ENDBRANCH  16  18
ENDBRANCH   1  16
BRANCH  11  25
HETATM   25  C16 UNL     1      21.968   2.002  52.456  1.00  0.00     0.134 C 
BRANCH  25  26
HETATM   26  C17 UNL     1      21.448   1.650  51.084  1.00  0.00     0.050 C 
BRANCH  26  27
HETATM   27  C18 UNL     1      19.991   1.908  50.924  1.00  0.00     0.274 C 
BRANCH  27  28
HETATM   28  N5  UNL     1      19.639   2.832  49.906  1.00  0.00     0.088 N 
HETATM   29  C19 UNL     1      19.569   4.207  50.359  1.00  0.00     0.272 C 
HETATM   30  C20 UNL     1      18.735   5.087  49.465  1.00  0.00     0.030 C 
HETATM   31  C21 UNL     1      18.814   4.697  48.016  1.00  0.00     0.003 C 
HETATM   32  C22 UNL     1      18.687   3.233  47.782  1.00  0.00     0.030 C 
HETATM   33  C23 UNL     1      18.475   2.522  49.121  1.00  0.00     0.272 C 
ENDBRANCH  27  28
ENDBRANCH  26  27
ENDBRANCH  25  26
ENDBRANCH  11  25
TORSDOF 8
ENDMDL
MODEL 7
REMARK VINA RESULT:      -8.1      2.467      4.454
REMARK  8 active torsions:
REMARK  status: ('A' for Active; 'I' for Inactive)
REMARK    1  A    between atoms: C2_2  and  C3_3 
REMARK    2  A    between atoms: C2_2  and  N1_8 
REMARK    3  A    between atoms: C4_4  and  C5_5 
REMARK    4  A    between atoms: N1_8  and  C8_9 
REMARK    5  A    between atoms: N4_19  and  C16_20 
REMARK    6  A    between atoms: C16_20  and  C17_21 
REMARK    7  A    between atoms: C17_21  and  C18_22 
REMARK    8  A    between atoms: C18_22  and  N5_23 
ROOT
HETATM    1  C8  UNL     1      24.096  -0.035  53.675  1.00  0.00     0.141 A 
HETATM    2  N2  UNL     1      24.784  -0.623  54.647  1.00  0.00    -0.224 NA
HETATM    3  C9  UNL     1      24.237  -1.430  55.565  1.00  0.00     0.236 A 
HETATM    4  N3  UNL     1      22.921  -1.639  55.479  1.00  0.00    -0.241 NA
HETATM    5  C10 UNL     1      22.177  -1.070  54.517  1.00  0.00     0.075 A 
HETATM    6  C11 UNL     1      20.822  -1.297  54.456  1.00  0.00     0.071 A 
HETATM    7  C12 UNL     1      19.993  -0.725  53.483  1.00  0.00     0.098 A 
HETATM    8  C13 UNL     1      20.575   0.118  52.526  1.00  0.00     0.071 A 
HETATM    9  C14 UNL     1      21.929   0.316  52.623  1.00  0.00     0.050 A 
HETATM   10  C15 UNL     1      22.743  -0.245  53.578  1.00  0.00     0.041 A 
HETATM   11  N4  UNL     1      19.774   0.758  51.505  1.00  0.00    -0.314 N 
HETATM   12  C24 UNL     1      18.380   0.466  51.556  1.00  0.00     0.248 C 
HETATM   13  O1  UNL     1      17.602   1.296  51.003  1.00  0.00    -0.271 OA
HETATM   14  C25 UNL     1      17.876  -0.779  52.239  1.00  0.00     0.279 C 
HETATM   15  O2  UNL     1      18.622  -0.980  53.455  1.00  0.00    -0.340 OA
ENDROOT
BRANCH   1  16
HETATM   16  N1  UNL     1      24.668   0.824  52.712  1.00  0.00    -0.347 N 
HETATM   17  H10 UNL     1      24.231   1.546  52.144  1.00  0.00     0.167 HD
BRANCH  16  18
HETATM   18  C2  UNL     1      25.939   1.063  52.127  1.00  0.00    -0.007 C 
HETATM   19  C1  UNL     1      26.587   1.931  51.330  1.00  0.00     0.099 C 
BRANCH  18  20
HETATM   20  C3  UNL     1      27.060   0.125  52.394  1.00  0.00     0.037 C 
HETATM   21  C4  UNL     1      28.081   0.575  53.158  1.00  0.00    -0.021 C 
BRANCH  21  22
HETATM   22  C5  UNL     1      29.356   0.042  53.674  1.00  0.00    -0.008 C 
HETATM   23  C6  UNL     1      29.837  -1.186  53.716  1.00  0.00    -0.031 C 
HETATM   24  C7  UNL     1      29.129  -2.377  53.205  1.00  0.00     0.036 C 
ENDBRANCH  21  22
ENDBRANCH  18  20
ENDBRANCH  16  18
ENDBRANCH   1  16
BRANCH  11  25
HETATM   25  C16 UNL     1      20.402   1.626  50.532  1.00  0.00     0.134 C 
BRANCH  25  26
HETATM   26  C17 UNL     1      20.312   3.090  50.882  1.00  0.00     0.050 C 
BRANCH  26  27
HETATM   27  C18 UNL     1      21.593   3.653  51.388  1.00  0.00     0.274 C 
BRANCH  27  28
HETATM   28  N5  UNL     1      22.179   4.666  50.586  1.00  0.00     0.088 N 
HETATM   29  C19 UNL     1      22.975   4.158  49.486  1.00  0.00     0.272 C 
HETATM   30  C20 UNL     1      23.974   5.157  48.964  1.00  0.00     0.030 C 
HETATM   31  C21 UNL     1      23.487   6.576  49.045  1.00  0.00     0.003 C 
HETATM   32  C22 UNL     1      22.853   6.917  50.348  1.00  0.00     0.030 C 
HETATM   33  C23 UNL     1      22.907   5.699  51.272  1.00  0.00     0.272 C 
ENDBRANCH  27  28
ENDBRANCH  26  27
ENDBRANCH  25  26
ENDBRANCH  11  25
TORSDOF 8
ENDMDL
MODEL 8
REMARK VINA RESULT:      -8.1      2.420      6.529
REMARK  8 active torsions:
REMARK  status: ('A' for Active; 'I' for Inactive)
REMARK    1  A    between atoms: C2_2  and  C3_3 
REMARK    2  A    between atoms: C2_2  and  N1_8 
REMARK    3  A    between atoms: C4_4  and  C5_5 
REMARK    4  A    between atoms: N1_8  and  C8_9 
REMARK    5  A    between atoms: N4_19  and  C16_20 
REMARK    6  A    between atoms: C16_20  and  C17_21 
REMARK    7  A    between atoms: C17_21  and  C18_22 
REMARK    8  A    between atoms: C18_22  and  N5_23 
ROOT
HETATM    1  C8  UNL     1      26.564   3.923  49.413  1.00  0.00     0.141 A 
HETATM    2  N2  UNL     1      27.713   4.433  48.984  1.00  0.00    -0.224 NA
HETATM    3  C9  UNL     1      27.835   5.659  48.459  1.00  0.00     0.236 A 
HETATM    4  N3  UNL     1      26.723   6.392  48.371  1.00  0.00    -0.241 NA
HETATM    5  C10 UNL     1      25.535   5.928  48.788  1.00  0.00     0.075 A 
HETATM    6  C11 UNL     1      24.404   6.701  48.679  1.00  0.00     0.071 A 
HETATM    7  C12 UNL     1      23.137   6.268  49.088  1.00  0.00     0.098 A 
HETATM    8  C13 UNL     1      23.019   4.983  49.636  1.00  0.00     0.071 A 
HETATM    9  C14 UNL     1      24.172   4.246  49.729  1.00  0.00     0.050 A 
HETATM   10  C15 UNL     1      25.416   4.670  49.327  1.00  0.00     0.041 A 
HETATM   11  N4  UNL     1      21.737   4.464  50.061  1.00  0.00    -0.314 N 
HETATM   12  C24 UNL     1      20.634   5.348  49.878  1.00  0.00     0.248 C 
HETATM   13  O1  UNL     1      19.485   4.822  49.815  1.00  0.00    -0.271 OA
HETATM   14  C25 UNL     1      20.847   6.836  49.768  1.00  0.00     0.279 C 
HETATM   15  O2  UNL     1      22.013   7.084  48.960  1.00  0.00    -0.340 OA
ENDROOT
BRANCH   1  16
HETATM   16  N1  UNL     1      26.431   2.628  49.957  1.00  0.00    -0.347 N 
HETATM   17  H10 UNL     1      26.481   1.722  49.497  1.00  0.00     0.167 HD
BRANCH  16  18
HETATM   18  C2  UNL     1      26.180   2.028  51.219  1.00  0.00    -0.007 C 
HETATM   19  C1  UNL     1      25.202   1.450  51.937  1.00  0.00     0.099 C 
BRANCH  18  20
HETATM   20  C3  UNL     1      27.283   1.912  52.209  1.00  0.00     0.037 C 
HETATM   21  C4  UNL     1      27.102   1.062  53.246  1.00  0.00    -0.021 C 
BRANCH  21  22
HETATM   22  C5  UNL     1      27.870   0.626  54.427  1.00  0.00    -0.008 C 
HETATM   23  C6  UNL     1      28.959  -0.113  54.538  1.00  0.00    -0.031 C 
HETATM   24  C7  UNL     1      29.687  -0.701  53.397  1.00  0.00     0.036 C 
ENDBRANCH  21  22
ENDBRANCH  18  20
ENDBRANCH  16  18
ENDBRANCH   1  16
BRANCH  11  25
HETATM   25  C16 UNL     1      21.645   3.133  50.622  1.00  0.00     0.134 C 
BRANCH  25  26
HETATM   26  C17 UNL     1      21.558   3.117  52.128  1.00  0.00     0.050 C 
BRANCH  26  27
HETATM   27  C18 UNL     1      20.334   2.442  52.639  1.00  0.00     0.274 C 
BRANCH  27  28
HETATM   28  N5  UNL     1      20.534   1.162  53.217  1.00  0.00     0.088 N 
HETATM   29  C19 UNL     1      21.927   0.836  53.455  1.00  0.00     0.272 C 
HETATM   30  C20 UNL     1      22.179  -0.644  53.578  1.00  0.00     0.030 C 
HETATM   31  C21 UNL     1      21.036  -1.385  54.213  1.00  0.00     0.003 C 
HETATM   32  C22 UNL     1      19.702  -1.000  53.679  1.00  0.00     0.030 C 
HETATM   33  C23 UNL     1      19.880   0.051  52.581  1.00  0.00     0.272 C 
ENDBRANCH  27  28
ENDBRANCH  26  27
ENDBRANCH  25  26
ENDBRANCH  11  25
TORSDOF 8
ENDMDL
MODEL 9
REMARK VINA RESULT:      -7.8      1.427      2.064
REMARK  8 active torsions:
REMARK  status: ('A' for Active; 'I' for Inactive)
REMARK    1  A    between atoms: C2_2  and  C3_3 
REMARK    2  A    between atoms: C2_2  and  N1_8 
REMARK    3  A    between atoms: C4_4  and  C5_5 
REMARK    4  A    between atoms: N1_8  and  C8_9 
REMARK    5  A    between atoms: N4_19  and  C16_20 
REMARK    6  A    between atoms: C16_20  and  C17_21 
REMARK    7  A    between atoms: C17_21  and  C18_22 
REMARK    8  A    between atoms: C18_22  and  N5_23 
ROOT
HETATM    1  C8  UNL     1      26.210   2.105  51.829  1.00  0.00     0.141 A 
HETATM    2  N2  UNL     1      27.510   2.081  52.104  1.00  0.00    -0.224 NA
HETATM    3  C9  UNL     1      28.060   1.289  53.033  1.00  0.00     0.236 A 
HETATM    4  N3  UNL     1      27.235   0.487  53.710  1.00  0.00    -0.241 NA
HETATM    5  C10 UNL     1      25.914   0.470  53.473  1.00  0.00     0.075 A 
HETATM    6  C11 UNL     1      25.086  -0.361  54.190  1.00  0.00     0.071 A 
HETATM    7  C12 UNL     1      23.701  -0.417  53.995  1.00  0.00     0.098 A 
HETATM    8  C13 UNL     1      23.133   0.416  53.020  1.00  0.00     0.071 A 
HETATM    9  C14 UNL     1      23.995   1.228  52.327  1.00  0.00     0.050 A 
HETATM   10  C15 UNL     1      25.355   1.283  52.518  1.00  0.00     0.041 A 
HETATM   11  N4  UNL     1      21.706   0.425  52.779  1.00  0.00    -0.314 N 
HETATM   12  C24 UNL     1      20.948  -0.461  53.598  1.00  0.00     0.248 C 
HETATM   13  O1  UNL     1      19.720  -0.195  53.744  1.00  0.00    -0.271 OA
HETATM   14  C25 UNL     1      21.596  -1.656  54.249  1.00  0.00     0.279 C 
HETATM   15  O2  UNL     1      22.894  -1.274  54.743  1.00  0.00    -0.340 OA
ENDROOT
BRANCH   1  16
HETATM   16  N1  UNL     1      25.627   2.945  50.857  1.00  0.00    -0.347 N 
HETATM   17  H10 UNL     1      24.698   2.910  50.440  1.00  0.00     0.167 HD
BRANCH  16  18
HETATM   18  C2  UNL     1      25.987   4.074  50.077  1.00  0.00    -0.007 C 
HETATM   19  C1  UNL     1      26.864   4.473  49.139  1.00  0.00     0.099 C 
BRANCH  18  20
HETATM   20  C3  UNL     1      25.220   5.340  50.217  1.00  0.00     0.037 C 
HETATM   21  C4  UNL     1      25.621   6.397  49.475  1.00  0.00    -0.021 C 
BRANCH  21  22
HETATM   22  C5  UNL     1      25.199   7.797  49.279  1.00  0.00    -0.008 C 
HETATM   23  C6  UNL     1      25.785   8.939  49.588  1.00  0.00    -0.031 C 
HETATM   24  C7  UNL     1      27.101   9.047  50.250  1.00  0.00     0.036 C 
ENDBRANCH  21  22
ENDBRANCH  18  20
ENDBRANCH  16  18
ENDBRANCH   1  16
BRANCH  11  25
HETATM   25  C16 UNL     1      21.148   1.296  51.768  1.00  0.00     0.134 C 
BRANCH  25  26
HETATM   26  C17 UNL     1      20.725   2.643  52.299  1.00  0.00     0.050 C 
BRANCH  26  27
HETATM   27  C18 UNL     1      19.861   3.402  51.354  1.00  0.00     0.274 C 
BRANCH  27  28
HETATM   28  N5  UNL     1      20.503   4.443  50.634  1.00  0.00     0.088 N 
HETATM   29  C19 UNL     1      21.448   5.208  51.425  1.00  0.00     0.272 C 
HETATM   30  C20 UNL     1      21.737   6.571  50.852  1.00  0.00     0.030 C 
HETATM   31  C21 UNL     1      21.704   6.597  49.349  1.00  0.00     0.003 C 
HETATM   32  C22 UNL     1      20.536   5.885  48.764  1.00  0.00     0.030 C 
HETATM   33  C23 UNL     1      19.659   5.338  49.892  1.00  0.00     0.272 C 
ENDBRANCH  27  28
ENDBRANCH  26  27
ENDBRANCH  25  26
ENDBRANCH  11  25
TORSDOF 8
ENDMDL
