MODEL 1
REMARK VINA RESULT:      -8.5      0.000      0.000
REMARK  1 active torsions:
REMARK  status: ('A' for Active; 'I' for Inactive)
REMARK    1  A    between atoms: C7_9  and  N2_10 
ROOT
HETATM    1  O1  UNL     1      29.790   2.480  54.956  1.00  0.00    -0.269 OA
HETATM    2  C1  UNL     1      29.095   1.644  54.299  1.00  0.00     0.242 C 
HETATM    3  C2  UNL     1      29.705   0.395  53.850  1.00  0.00     0.074 C 
HETATM    4  C3  UNL     1      29.034  -0.694  53.444  1.00  0.00     0.007 C 
HETATM    5  C4  UNL     1      27.626  -0.973  53.327  1.00  0.00     0.030 C 
HETATM    6  C5  UNL     1      26.685  -0.085  53.505  1.00  0.00     0.060 C 
HETATM    7  N1  UNL     1      25.523  -0.887  53.271  1.00  0.00    -0.265 NA
HETATM    8  C6  UNL     1      24.275  -0.656  53.170  1.00  0.00     0.118 C 
HETATM    9  C7  UNL     1      23.602   0.637  53.273  1.00  0.00     0.143 C 
HETATM   10  C13 UNL     1      24.421   1.645  52.516  1.00  0.00     0.001 C 
HETATM   11  C14 UNL     1      25.712   1.953  52.755  1.00  0.00     0.003 C 
HETATM   12  C15 UNL     1      26.559   1.326  53.836  1.00  0.00     0.160 C 
HETATM   13  N3  UNL     1      27.739   2.062  54.077  1.00  0.00    -0.344 N 
HETATM   14  H16 UNL     1      27.547   3.099  54.088  1.00  0.00     0.163 HD
ENDROOT
BRANCH   9  15
HETATM   15  N2  UNL     1      22.271   0.688  52.780  1.00  0.00    -0.396 N 
HETATM   16  C8  UNL     1      21.238   0.572  53.742  1.00  0.00     0.145 C 
HETATM   17  C9  UNL     1      20.022   0.107  52.978  1.00  0.00    -0.010 C 
HETATM   18  C10 UNL     1      19.964   0.173  51.634  1.00  0.00    -0.012 C 
HETATM   19  C11 UNL     1      21.062   0.699  50.760  1.00  0.00     0.098 C 
HETATM   20 BR1  UNL     1      20.425   1.694  49.260  1.00  0.00    -0.085 Br
HETATM   21  C12 UNL     1      22.020   1.506  51.648  1.00  0.00     0.138 C 
ENDBRANCH   9  15
TORSDOF 1
ENDMDL
MODEL 2
REMARK VINA RESULT:      -8.4      1.974      2.783
REMARK  1 active torsions:
REMARK  status: ('A' for Active; 'I' for Inactive)
REMARK    1  A    between atoms: C7_9  and  N2_10 
ROOT
HETATM    1  O1  UNL     1      29.044  -2.970  53.329  1.00  0.00    -0.269 OA
HETATM    2  C1  UNL     1      28.614  -1.782  53.454  1.00  0.00     0.242 C 
HETATM    3  C2  UNL     1      29.543  -0.713  53.811  1.00  0.00     0.074 C 
HETATM    4  C3  UNL     1      29.309   0.600  53.664  1.00  0.00     0.007 C 
HETATM    5  C4  UNL     1      28.175   1.328  53.155  1.00  0.00     0.030 C 
HETATM    6  C5  UNL     1      27.037   0.778  52.830  1.00  0.00     0.060 C 
HETATM    7  N1  UNL     1      26.303   1.931  52.402  1.00  0.00    -0.265 NA
HETATM    8  C6  UNL     1      25.099   2.154  52.057  1.00  0.00     0.118 C 
HETATM    9  C7  UNL     1      24.002   1.191  51.995  1.00  0.00     0.143 C 
HETATM   10  C13 UNL     1      24.081   0.321  53.218  1.00  0.00     0.001 C 
HETATM   11  C14 UNL     1      25.134  -0.439  53.580  1.00  0.00     0.003 C 
HETATM   12  C15 UNL     1      26.426  -0.543  52.804  1.00  0.00     0.160 C 
HETATM   13  N3  UNL     1      27.204  -1.645  53.216  1.00  0.00    -0.344 N 
HETATM   14  H16 UNL     1      26.605  -2.501  53.366  1.00  0.00     0.163 HD
ENDROOT
BRANCH   9  15
HETATM   15  N2  UNL     1      22.693   1.740  51.926  1.00  0.00    -0.396 N 
HETATM   16  C8  UNL     1      22.606   3.128  51.662  1.00  0.00     0.145 C 
HETATM   17  C9  UNL     1      21.251   3.555  52.173  1.00  0.00    -0.010 C 
HETATM   18  C10 UNL     1      20.290   2.656  52.462  1.00  0.00    -0.012 C 
HETATM   19  C11 UNL     1      20.442   1.172  52.317  1.00  0.00     0.098 C 
HETATM   20 BR1  UNL     1      18.859   0.305  51.693  1.00  0.00    -0.085 Br
HETATM   21  C12 UNL     1      21.659   0.912  51.417  1.00  0.00     0.138 C 
ENDBRANCH   9  15
TORSDOF 1
ENDMDL
MODEL 3
REMARK VINA RESULT:      -7.8      3.878      7.297
REMARK  1 active torsions:
REMARK  status: ('A' for Active; 'I' for Inactive)
REMARK    1  A    between atoms: C7_9  and  N2_10 
ROOT
HETATM    1  O1  UNL     1      18.273   0.297  50.169  1.00  0.00    -0.269 OA
HETATM    2  C1  UNL     1      18.943   0.156  51.238  1.00  0.00     0.242 C 
HETATM    3  C2  UNL     1      18.316  -0.457  52.407  1.00  0.00     0.074 C 
HETATM    4  C3  UNL     1      18.970  -0.956  53.467  1.00  0.00     0.007 C 
HETATM    5  C4  UNL     1      20.373  -1.047  53.781  1.00  0.00     0.030 C 
HETATM    6  C5  UNL     1      21.320  -0.503  53.066  1.00  0.00     0.060 C 
HETATM    7  N1  UNL     1      22.473  -0.900  53.818  1.00  0.00    -0.265 NA
HETATM    8  C6  UNL     1      23.716  -0.636  53.765  1.00  0.00     0.118 C 
HETATM    9  C7  UNL     1      24.395   0.248  52.820  1.00  0.00     0.143 C 
HETATM   10  C13 UNL     1      23.553   1.482  52.656  1.00  0.00     0.001 C 
HETATM   11  C14 UNL     1      22.272   1.514  52.237  1.00  0.00     0.003 C 
HETATM   12  C15 UNL     1      21.461   0.298  51.860  1.00  0.00     0.160 C 
HETATM   13  N3  UNL     1      20.292   0.641  51.148  1.00  0.00    -0.344 N 
HETATM   14  H16 UNL     1      20.487   1.392  50.433  1.00  0.00     0.163 HD
ENDROOT
BRANCH   9  15
HETATM   15  N2  UNL     1      25.709   0.653  53.178  1.00  0.00    -0.396 N 
HETATM   16  C8  UNL     1      25.835   1.935  53.766  1.00  0.00     0.145 C 
HETATM   17  C9  UNL     1      27.271   2.346  53.542  1.00  0.00    -0.010 C 
HETATM   18  C10 UNL     1      28.211   1.454  53.176  1.00  0.00    -0.012 C 
HETATM   19  C11 UNL     1      27.958  -0.007  52.952  1.00  0.00     0.098 C 
HETATM   20 BR1  UNL     1      29.386  -1.124  53.552  1.00  0.00    -0.085 Br
HETATM   21  C12 UNL     1      26.613  -0.353  53.607  1.00  0.00     0.138 C 
ENDBRANCH   9  15
TORSDOF 1
ENDMDL
MODEL 4
REMARK VINA RESULT:      -7.8      4.023      5.982
REMARK  1 active torsions:
REMARK  status: ('A' for Active; 'I' for Inactive)
REMARK    1  A    between atoms: C7_9  and  N2_10 
ROOT
HETATM    1  O1  UNL     1      25.891  -0.822  55.451  1.00  0.00    -0.269 OA
HETATM    2  C1  UNL     1      25.276  -0.401  54.423  1.00  0.00     0.242 C 
HETATM    3  C2  UNL     1      23.928  -0.887  54.139  1.00  0.00     0.074 C 
HETATM    4  C3  UNL     1      23.054  -0.308  53.301  1.00  0.00     0.007 C 
HETATM    5  C4  UNL     1      23.140   0.872  52.480  1.00  0.00     0.030 C 
HETATM    6  C5  UNL     1      24.229   1.572  52.315  1.00  0.00     0.060 C 
HETATM    7  N1  UNL     1      23.751   2.593  51.432  1.00  0.00    -0.265 NA
HETATM    8  C6  UNL     1      24.290   3.543  50.779  1.00  0.00     0.118 C 
HETATM    9  C7  UNL     1      25.707   3.899  50.740  1.00  0.00     0.143 C 
HETATM   10  C13 UNL     1      26.500   2.627  50.634  1.00  0.00     0.001 C 
HETATM   11  C14 UNL     1      26.468   1.601  51.507  1.00  0.00     0.003 C 
HETATM   12  C15 UNL     1      25.617   1.560  52.754  1.00  0.00     0.160 C 
HETATM   13  N3  UNL     1      26.026   0.543  53.642  1.00  0.00    -0.344 N 
HETATM   14  H16 UNL     1      27.078   0.501  53.715  1.00  0.00     0.163 HD
ENDROOT
BRANCH   9  15
HETATM   15  N2  UNL     1      26.105   4.758  49.681  1.00  0.00    -0.396 N 
HETATM   16  C8  UNL     1      27.281   4.393  48.981  1.00  0.00     0.145 C 
HETATM   17  C9  UNL     1      27.782   5.664  48.338  1.00  0.00    -0.010 C 
HETATM   18  C10 UNL     1      27.001   6.756  48.229  1.00  0.00    -0.012 C 
HETATM   19  C11 UNL     1      25.586   6.842  48.716  1.00  0.00     0.098 C 
HETATM   20 BR1  UNL     1      24.449   7.855  47.563  1.00  0.00    -0.085 Br
HETATM   21  C12 UNL     1      25.082   5.409  48.944  1.00  0.00     0.138 C 
ENDBRANCH   9  15
TORSDOF 1
ENDMDL
MODEL 5
REMARK VINA RESULT:      -7.7      3.723      5.508
REMARK  1 active torsions:
REMARK  status: ('A' for Active; 'I' for Inactive)
REMARK    1  A    between atoms: C7_9  and  N2_10 
ROOT
HETATM    1  O1  UNL     1      21.213  -1.821  54.925  1.00  0.00    -0.269 OA
HETATM    2  C1  UNL     1      22.301  -1.180  54.796  1.00  0.00     0.242 C 
HETATM    3  C2  UNL     1      23.422  -1.475  55.686  1.00  0.00     0.074 C 
HETATM    4  C3  UNL     1      24.699  -1.125  55.469  1.00  0.00     0.007 C 
HETATM    5  C4  UNL     1      25.335  -0.410  54.392  1.00  0.00     0.030 C 
HETATM    6  C5  UNL     1      24.690   0.168  53.415  1.00  0.00     0.060 C 
HETATM    7  N1  UNL     1      25.784   0.704  52.663  1.00  0.00    -0.265 NA
HETATM    8  C6  UNL     1      25.892   1.473  51.655  1.00  0.00     0.118 C 
HETATM    9  C7  UNL     1      24.809   2.096  50.896  1.00  0.00     0.143 C 
HETATM   10  C13 UNL     1      23.788   2.600  51.877  1.00  0.00     0.001 C 
HETATM   11  C14 UNL     1      23.132   1.853  52.787  1.00  0.00     0.003 C 
HETATM   12  C15 UNL     1      23.318   0.366  52.973  1.00  0.00     0.160 C 
HETATM   13  N3  UNL     1      22.281  -0.205  53.742  1.00  0.00    -0.344 N 
HETATM   14  H16 UNL     1      21.340   0.181  53.461  1.00  0.00     0.163 HD
ENDROOT
BRANCH   9  15
HETATM   15  N2  UNL     1      25.182   3.175  50.050  1.00  0.00    -0.396 N 
HETATM   16  C8  UNL     1      26.525   3.190  49.603  1.00  0.00     0.145 C 
HETATM   17  C9  UNL     1      26.812   4.624  49.227  1.00  0.00    -0.010 C 
HETATM   18  C10 UNL     1      25.823   5.522  49.057  1.00  0.00    -0.012 C 
HETATM   19  C11 UNL     1      24.363   5.218  49.215  1.00  0.00     0.098 C 
HETATM   20 BR1  UNL     1      23.260   6.123  47.945  1.00  0.00    -0.085 Br
HETATM   21  C12 UNL     1      24.195   3.692  49.172  1.00  0.00     0.138 C 
ENDBRANCH   9  15
TORSDOF 1
ENDMDL
MODEL 6
REMARK VINA RESULT:      -7.3      3.959      5.349
REMARK  1 active torsions:
REMARK  status: ('A' for Active; 'I' for Inactive)
REMARK    1  A    between atoms: C7_9  and  N2_10 
ROOT
HETATM    1  O1  UNL     1      28.475   4.743  48.547  1.00  0.00    -0.269 OA
HETATM    2  C1  UNL     1      27.260   4.926  48.869  1.00  0.00     0.242 C 
HETATM    3  C2  UNL     1      26.596   6.173  48.497  1.00  0.00     0.074 C 
HETATM    4  C3  UNL     1      25.269   6.371  48.480  1.00  0.00     0.007 C 
HETATM    5  C4  UNL     1      24.159   5.505  48.789  1.00  0.00     0.030 C 
HETATM    6  C5  UNL     1      24.283   4.309  49.296  1.00  0.00     0.060 C 
HETATM    7  N1  UNL     1      22.907   3.924  49.392  1.00  0.00    -0.265 NA
HETATM    8  C6  UNL     1      22.282   2.936  49.894  1.00  0.00     0.118 C 
HETATM    9  C7  UNL     1      22.854   1.787  50.593  1.00  0.00     0.143 C 
HETATM   10  C13 UNL     1      23.927   2.296  51.514  1.00  0.00     0.001 C 
HETATM   11  C14 UNL     1      25.015   3.002  51.145  1.00  0.00     0.003 C 
HETATM   12  C15 UNL     1      25.338   3.404  49.726  1.00  0.00     0.160 C 
HETATM   13  N3  UNL     1      26.677   3.828  49.588  1.00  0.00    -0.344 N 
HETATM   14  H16 UNL     1      27.334   3.201  50.124  1.00  0.00     0.163 HD
ENDROOT
BRANCH   9  15
HETATM   15  N2  UNL     1      21.947   1.008  51.359  1.00  0.00    -0.396 N 
HETATM   16  C8  UNL     1      20.733   0.648  50.723  1.00  0.00     0.145 C 
HETATM   17  C9  UNL     1      19.764   0.344  51.840  1.00  0.00    -0.010 C 
HETATM   18  C10 UNL     1      20.183   0.144  53.104  1.00  0.00    -0.012 C 
HETATM   19  C11 UNL     1      21.616   0.196  53.544  1.00  0.00     0.098 C 
HETATM   20 BR1  UNL     1      22.049  -1.108  54.870  1.00  0.00    -0.085 Br
HETATM   21  C12 UNL     1      22.494   0.086  52.289  1.00  0.00     0.138 C 
ENDBRANCH   9  15
TORSDOF 1
ENDMDL
MODEL 7
REMARK VINA RESULT:      -7.2      3.916      4.872
REMARK  1 active torsions:
REMARK  status: ('A' for Active; 'I' for Inactive)
REMARK    1  A    between atoms: C7_9  and  N2_10 
ROOT
HETATM    1  O1  UNL     1      25.679  -1.107  55.175  1.00  0.00    -0.269 OA
HETATM    2  C1  UNL     1      26.159  -0.089  54.588  1.00  0.00     0.242 C 
HETATM    3  C2  UNL     1      27.579   0.225  54.735  1.00  0.00     0.074 C 
HETATM    4  C3  UNL     1      28.278   1.051  53.941  1.00  0.00     0.007 C 
HETATM    5  C4  UNL     1      27.903   1.827  52.787  1.00  0.00     0.030 C 
HETATM    6  C5  UNL     1      26.677   1.956  52.356  1.00  0.00     0.060 C 
HETATM    7  N1  UNL     1      26.888   2.806  51.223  1.00  0.00    -0.265 NA
HETATM    8  C6  UNL     1      26.130   3.418  50.405  1.00  0.00     0.118 C 
HETATM    9  C7  UNL     1      24.668   3.430  50.389  1.00  0.00     0.143 C 
HETATM   10  C13 UNL     1      24.193   3.575  51.807  1.00  0.00     0.001 C 
HETATM   11  C14 UNL     1      24.480   2.740  52.826  1.00  0.00     0.003 C 
HETATM   12  C15 UNL     1      25.340   1.504  52.707  1.00  0.00     0.160 C 
HETATM   13  N3  UNL     1      25.195   0.650  53.821  1.00  0.00    -0.344 N 
HETATM   14  H16 UNL     1      24.184   0.567  54.111  1.00  0.00     0.163 HD
ENDROOT
BRANCH   9  15
HETATM   15  N2  UNL     1      24.062   4.453  49.612  1.00  0.00    -0.396 N 
HETATM   16  C8  UNL     1      22.953   4.068  48.820  1.00  0.00     0.145 C 
HETATM   17  C9  UNL     1      22.851   5.109  47.730  1.00  0.00    -0.010 C 
HETATM   18  C10 UNL     1      23.502   6.285  47.814  1.00  0.00    -0.012 C 
HETATM   19  C11 UNL     1      24.378   6.693  48.960  1.00  0.00     0.098 C 
HETATM   20 BR1  UNL     1      24.230   8.545  49.404  1.00  0.00    -0.085 Br
HETATM   21  C12 UNL     1      24.059   5.768  50.144  1.00  0.00     0.138 C 
ENDBRANCH   9  15
TORSDOF 1
ENDMDL
MODEL 8
REMARK VINA RESULT:      -7.1      3.233      3.952
REMARK  1 active torsions:
REMARK  status: ('A' for Active; 'I' for Inactive)
REMARK    1  A    between atoms: C7_9  and  N2_10 
ROOT
HETATM    1  O1  UNL     1      29.128   2.098  54.465  1.00  0.00    -0.269 OA
HETATM    2  C1  UNL     1      28.227   1.558  53.750  1.00  0.00     0.242 C 
HETATM    3  C2  UNL     1      27.913   0.143  53.934  1.00  0.00     0.074 C 
HETATM    4  C3  UNL     1      26.801  -0.468  53.499  1.00  0.00     0.007 C 
HETATM    5  C4  UNL     1      25.653   0.016  52.775  1.00  0.00     0.030 C 
HETATM    6  C5  UNL     1      25.554   1.219  52.278  1.00  0.00     0.060 C 
HETATM    7  N1  UNL     1      24.251   1.150  51.688  1.00  0.00    -0.265 NA
HETATM    8  C6  UNL     1      23.557   1.917  50.946  1.00  0.00     0.118 C 
HETATM    9  C7  UNL     1      23.937   3.230  50.429  1.00  0.00     0.143 C 
HETATM   10  C13 UNL     1      25.365   3.150  49.969  1.00  0.00     0.001 C 
HETATM   11  C14 UNL     1      26.422   2.806  50.732  1.00  0.00     0.003 C 
HETATM   12  C15 UNL     1      26.343   2.439  52.195  1.00  0.00     0.160 C 
HETATM   13  N3  UNL     1      27.611   2.456  52.814  1.00  0.00    -0.344 N 
HETATM   14  H16 UNL     1      28.175   3.293  52.507  1.00  0.00     0.163 HD
ENDROOT
BRANCH   9  15
HETATM   15  N2  UNL     1      23.152   3.727  49.354  1.00  0.00    -0.396 N 
HETATM   16  C8  UNL     1      22.190   2.839  48.814  1.00  0.00     0.145 C 
HETATM   17  C9  UNL     1      21.907   3.345  47.420  1.00  0.00    -0.010 C 
HETATM   18  C10 UNL     1      22.278   4.579  47.027  1.00  0.00    -0.012 C 
HETATM   19  C11 UNL     1      22.993   5.569  47.897  1.00  0.00     0.098 C 
HETATM   20 BR1  UNL     1      22.422   7.370  47.621  1.00  0.00    -0.085 Br
HETATM   21  C12 UNL     1      22.837   5.110  49.354  1.00  0.00     0.138 C 
ENDBRANCH   9  15
TORSDOF 1
ENDMDL
MODEL 9
REMARK VINA RESULT:      -7.1      4.937      6.315
REMARK  1 active torsions:
REMARK  status: ('A' for Active; 'I' for Inactive)
REMARK    1  A    between atoms: C7_9  and  N2_10 
ROOT
HETATM    1  O1  UNL     1      23.125  -0.942  53.365  1.00  0.00    -0.269 OA
HETATM    2  C1  UNL     1      24.093  -0.161  53.112  1.00  0.00     0.242 C 
HETATM    3  C2  UNL     1      25.452  -0.557  53.474  1.00  0.00     0.074 C 
HETATM    4  C3  UNL     1      26.576  -0.004  52.993  1.00  0.00     0.007 C 
HETATM    5  C4  UNL     1      26.802   1.061  52.049  1.00  0.00     0.030 C 
HETATM    6  C5  UNL     1      25.856   1.809  51.549  1.00  0.00     0.060 C 
HETATM    7  N1  UNL     1      26.625   2.669  50.701  1.00  0.00    -0.265 NA
HETATM    8  C6  UNL     1      26.374   3.701  50.000  1.00  0.00     0.118 C 
HETATM    9  C7  UNL     1      25.087   4.375  49.845  1.00  0.00     0.143 C 
HETATM   10  C13 UNL     1      24.438   4.448  51.199  1.00  0.00     0.001 C 
HETATM   11  C14 UNL     1      24.139   3.397  51.988  1.00  0.00     0.003 C 
HETATM   12  C15 UNL     1      24.410   1.954  51.638  1.00  0.00     0.160 C 
HETATM   13  N3  UNL     1      23.701   1.064  52.473  1.00  0.00    -0.344 N 
HETATM   14  H16 UNL     1      22.712   1.395  52.631  1.00  0.00     0.163 HD
ENDROOT
BRANCH   9  15
HETATM   15  N2  UNL     1      25.132   5.688  49.304  1.00  0.00    -0.396 N 
HETATM   16  C8  UNL     1      24.084   6.041  48.419  1.00  0.00     0.145 C 
HETATM   17  C9  UNL     1      24.621   7.184  47.590  1.00  0.00    -0.010 C 
HETATM   18  C10 UNL     1      25.727   7.861  47.953  1.00  0.00    -0.012 C 
HETATM   19  C11 UNL     1      26.535   7.574  49.182  1.00  0.00     0.098 C 
HETATM   20 BR1  UNL     1      27.211   9.148  50.029  1.00  0.00    -0.085 Br
HETATM   21  C12 UNL     1      25.673   6.716  50.119  1.00  0.00     0.138 C 
ENDBRANCH   9  15
TORSDOF 1
ENDMDL
