MODEL 1
REMARK VINA RESULT:      -8.2      0.000      0.000
REMARK  5 active torsions:
REMARK  status: ('A' for Active; 'I' for Inactive)
REMARK    1  A    between atoms: O1_2  and  C2_3 
REMARK    2  A    between atoms: C4_5  and  N1_6 
REMARK    3  A    between atoms: N1_6  and  C5_7 
REMARK    4  A    between atoms: C5_7  and  C6_8 
REMARK    5  A    between atoms: C6_8  and  N2_9 
ROOT
HETATM    1  C2  UNL     1      26.805  -0.170  52.794  1.00  0.00     0.078 A 
HETATM    2  C3  UNL     1      27.051   0.762  51.853  1.00  0.00     0.068 A 
HETATM    3  C4  UNL     1      26.294   1.862  51.545  1.00  0.00     0.057 A 
HETATM    4  C9  UNL     1      25.110   2.091  52.264  1.00  0.00     0.055 A 
HETATM    5  C10 UNL     1      24.855   1.142  53.228  1.00  0.00     0.043 A 
HETATM    6  C11 UNL     1      25.652   0.026  53.516  1.00  0.00    -0.003 A 
HETATM    7  C12 UNL     1      24.997  -0.792  54.579  1.00  0.00     0.190 C 
HETATM    8  N3  UNL     1      23.527  -0.508  54.507  1.00  0.00    -0.295 NA
HETATM    9  C13 UNL     1      22.920  -0.852  53.381  1.00  0.00     0.142 C 
HETATM   10  C14 UNL     1      21.478  -0.650  53.110  1.00  0.00     0.073 A 
HETATM   11  C15 UNL     1      20.492  -1.207  53.894  1.00  0.00     0.035 A 
HETATM   12  C16 UNL     1      19.245  -0.820  53.416  1.00  0.00     0.029 A 
HETATM   13  C17 UNL     1      19.552  -0.031  52.336  1.00  0.00     0.030 A 
HETATM   14  C18 UNL     1      18.400   0.553  51.587  1.00  0.00     0.070 C 
HETATM   15  N4  UNL     1      20.875   0.079  52.141  1.00  0.00    -0.264 N 
HETATM   16  N5  UNL     1      21.438   0.801  51.095  1.00  0.00    -0.327 N 
HETATM   17  C19 UNL     1      22.727   1.430  51.025  1.00  0.00     0.164 C 
HETATM   18  C20 UNL     1      22.779   2.558  52.013  1.00  0.00     0.097 C 
HETATM   19  C21 UNL     1      21.760   3.624  51.653  1.00  0.00     0.034 C 
HETATM   20  N6  UNL     1      24.122   3.129  52.111  1.00  0.00    -0.382 N 
HETATM   21  H25 UNL     1      20.865   0.923  50.199  1.00  0.00     0.180 HD
HETATM   22  H32 UNL     1      24.788   3.895  52.139  1.00  0.00     0.160 HD
ENDROOT
BRANCH   3  23
HETATM   23  N1  UNL     1      26.543   2.874  50.557  1.00  0.00    -0.386 N 
HETATM   24  H5  UNL     1      27.579   3.011  50.797  1.00  0.00     0.159 HD
BRANCH  23  25
HETATM   25  C5  UNL     1      26.780   3.845  49.609  1.00  0.00     0.150 C 
BRANCH  25  26
HETATM   26  C6  UNL     1      25.535   4.739  49.420  1.00  0.00     0.290 C 
BRANCH  26  27
HETATM   27  N2  UNL     1      25.955   6.044  48.977  1.00  0.00     0.081 N 
HETATM   28  C7  UNL     1      25.679   6.988  50.041  1.00  0.00     0.309 C 
HETATM   29  C8  UNL     1      27.300   6.094  48.485  1.00  0.00     0.309 C 
ENDBRANCH  26  27
ENDBRANCH  25  26
ENDBRANCH  23  25
ENDBRANCH   3  23
BRANCH   1  30
HETATM   30  O1  UNL     1      27.460  -1.272  53.186  1.00  0.00    -0.355 OA
HETATM   31  C1  UNL     1      28.860  -1.324  53.336  1.00  0.00     0.210 C 
ENDBRANCH   1  30
TORSDOF 5
ENDMDL
MODEL 2
REMARK VINA RESULT:      -8.2      0.738      1.038
REMARK  5 active torsions:
REMARK  status: ('A' for Active; 'I' for Inactive)
REMARK    1  A    between atoms: O1_2  and  C2_3 
REMARK    2  A    between atoms: C4_5  and  N1_6 
REMARK    3  A    between atoms: N1_6  and  C5_7 
REMARK    4  A    between atoms: C5_7  and  C6_8 
REMARK    5  A    between atoms: C6_8  and  N2_9 
ROOT
HETATM    1  C2  UNL     1      26.802   0.334  52.483  1.00  0.00     0.078 A 
HETATM    2  C3  UNL     1      26.948   1.377  51.644  1.00  0.00     0.068 A 
HETATM    3  C4  UNL     1      26.118   2.458  51.499  1.00  0.00     0.057 A 
HETATM    4  C9  UNL     1      24.963   2.536  52.294  1.00  0.00     0.055 A 
HETATM    5  C10 UNL     1      24.811   1.473  53.155  1.00  0.00     0.043 A 
HETATM    6  C11 UNL     1      25.681   0.381  53.277  1.00  0.00    -0.003 A 
HETATM    7  C12 UNL     1      25.128  -0.587  54.270  1.00  0.00     0.190 C 
HETATM    8  N3  UNL     1      23.644  -0.384  54.301  1.00  0.00    -0.295 NA
HETATM    9  C13 UNL     1      22.996  -0.637  53.173  1.00  0.00     0.142 C 
HETATM   10  C14 UNL     1      21.533  -0.492  52.994  1.00  0.00     0.073 A 
HETATM   11  C15 UNL     1      20.622  -1.189  53.756  1.00  0.00     0.035 A 
HETATM   12  C16 UNL     1      19.332  -0.826  53.384  1.00  0.00     0.029 A 
HETATM   13  C17 UNL     1      19.538   0.094  52.388  1.00  0.00     0.030 A 
HETATM   14  C18 UNL     1      18.318   0.689  51.765  1.00  0.00     0.070 C 
HETATM   15  N4  UNL     1      20.841   0.303  52.144  1.00  0.00    -0.264 N 
HETATM   16  N5  UNL     1      21.308   1.168  51.162  1.00  0.00    -0.327 N 
HETATM   17  C19 UNL     1      22.556   1.876  51.102  1.00  0.00     0.164 C 
HETATM   18  C20 UNL     1      22.601   2.890  52.208  1.00  0.00     0.097 C 
HETATM   19  C21 UNL     1      21.509   3.927  52.020  1.00  0.00     0.034 C 
HETATM   20  N6  UNL     1      23.914   3.524  52.306  1.00  0.00    -0.382 N 
HETATM   21  H25 UNL     1      20.682   1.354  50.313  1.00  0.00     0.180 HD
HETATM   22  H32 UNL     1      24.539   4.320  52.389  1.00  0.00     0.160 HD
ENDROOT
BRANCH   3  23
HETATM   23  N1  UNL     1      26.258   3.585  50.621  1.00  0.00    -0.386 N 
HETATM   24  H5  UNL     1      25.512   4.190  51.098  1.00  0.00     0.159 HD
BRANCH  23  25
HETATM   25  C5  UNL     1      26.393   4.667  49.777  1.00  0.00     0.150 C 
BRANCH  25  26
HETATM   26  C6  UNL     1      25.052   5.415  49.631  1.00  0.00     0.290 C 
BRANCH  26  27
HETATM   27  N2  UNL     1      24.997   6.480  50.601  1.00  0.00     0.081 N 
HETATM   28  C7  UNL     1      25.892   7.532  50.162  1.00  0.00     0.309 C 
HETATM   29  C8  UNL     1      23.672   6.929  50.907  1.00  0.00     0.309 C 
ENDBRANCH  26  27
ENDBRANCH  25  26
ENDBRANCH  23  25
ENDBRANCH   3  23
BRANCH   1  30
HETATM   30  O1  UNL     1      27.536  -0.764  52.717  1.00  0.00    -0.355 OA
HETATM   31  C1  UNL     1      28.748  -0.743  53.433  1.00  0.00     0.210 C 
ENDBRANCH   1  30
TORSDOF 5
ENDMDL
MODEL 3
REMARK VINA RESULT:      -7.9      2.434      5.618
REMARK  5 active torsions:
REMARK  status: ('A' for Active; 'I' for Inactive)
REMARK    1  A    between atoms: O1_2  and  C2_3 
REMARK    2  A    between atoms: C4_5  and  N1_6 
REMARK    3  A    between atoms: N1_6  and  C5_7 
REMARK    4  A    between atoms: C5_7  and  C6_8 
REMARK    5  A    between atoms: C6_8  and  N2_9 
ROOT
HETATM    1  C2  UNL     1      20.423   0.665  52.883  1.00  0.00     0.078 A 
HETATM    2  C3  UNL     1      20.179   1.861  52.313  1.00  0.00     0.068 A 
HETATM    3  C4  UNL     1      21.005   2.580  51.490  1.00  0.00     0.057 A 
HETATM    4  C9  UNL     1      22.267   2.055  51.172  1.00  0.00     0.055 A 
HETATM    5  C10 UNL     1      22.521   0.832  51.750  1.00  0.00     0.043 A 
HETATM    6  C11 UNL     1      21.652   0.123  52.591  1.00  0.00    -0.003 A 
HETATM    7  C12 UNL     1      22.323  -1.124  53.062  1.00  0.00     0.190 C 
HETATM    8  N3  UNL     1      23.799  -0.877  53.002  1.00  0.00    -0.295 NA
HETATM    9  C13 UNL     1      24.264   0.084  53.787  1.00  0.00     0.142 C 
HETATM   10  C14 UNL     1      25.687   0.487  53.869  1.00  0.00     0.073 A 
HETATM   11  C15 UNL     1      26.684  -0.389  54.235  1.00  0.00     0.035 A 
HETATM   12  C16 UNL     1      27.912   0.262  54.193  1.00  0.00     0.029 A 
HETATM   13  C17 UNL     1      27.582   1.534  53.797  1.00  0.00     0.030 A 
HETATM   14  C18 UNL     1      28.709   2.502  53.654  1.00  0.00     0.070 C 
HETATM   15  N4  UNL     1      26.262   1.683  53.601  1.00  0.00    -0.264 N 
HETATM   16  N5  UNL     1      25.675   2.885  53.225  1.00  0.00    -0.327 N 
HETATM   17  C19 UNL     1      24.451   3.105  52.507  1.00  0.00     0.164 C 
HETATM   18  C20 UNL     1      24.598   2.581  51.108  1.00  0.00     0.097 C 
HETATM   19  C21 UNL     1      25.676   3.351  50.366  1.00  0.00     0.034 C 
HETATM   20  N6  UNL     1      23.331   2.620  50.380  1.00  0.00    -0.382 N 
HETATM   21  H25 UNL     1      26.171   3.796  53.492  1.00  0.00     0.180 HD
HETATM   22  H32 UNL     1      22.747   2.830  49.577  1.00  0.00     0.160 HD
ENDROOT
BRANCH   3  23
HETATM   23  N1  UNL     1      20.763   3.848  50.862  1.00  0.00    -0.386 N 
HETATM   24  H5  UNL     1      21.415   3.684  50.026  1.00  0.00     0.159 HD
BRANCH  23  25
HETATM   25  C5  UNL     1      20.530   5.067  50.261  1.00  0.00     0.150 C 
BRANCH  25  26
HETATM   26  C6  UNL     1      21.470   6.147  50.836  1.00  0.00     0.290 C 
BRANCH  26  27
HETATM   27  N2  UNL     1      22.818   5.879  50.402  1.00  0.00     0.081 N 
HETATM   28  C7  UNL     1      22.889   6.132  48.977  1.00  0.00     0.309 C 
HETATM   29  C8  UNL     1      23.826   6.551  51.166  1.00  0.00     0.309 C 
ENDBRANCH  26  27
ENDBRANCH  25  26
ENDBRANCH  23  25
ENDBRANCH   3  23
BRANCH   1  30
HETATM   30  O1  UNL     1      19.705  -0.128  53.692  1.00  0.00    -0.355 OA
HETATM   31  C1  UNL     1      18.617  -0.903  53.245  1.00  0.00     0.210 C 
ENDBRANCH   1  30
TORSDOF 5
ENDMDL
MODEL 4
REMARK VINA RESULT:      -7.3      2.258      6.666
REMARK  5 active torsions:
REMARK  status: ('A' for Active; 'I' for Inactive)
REMARK    1  A    between atoms: O1_2  and  C2_3 
REMARK    2  A    between atoms: C4_5  and  N1_6 
REMARK    3  A    between atoms: N1_6  and  C5_7 
REMARK    4  A    between atoms: C5_7  and  C6_8 
REMARK    5  A    between atoms: C6_8  and  N2_9 
ROOT
HETATM    1  C2  UNL     1      26.265   2.280  51.784  1.00  0.00     0.078 A 
HETATM    2  C3  UNL     1      25.323   1.559  52.422  1.00  0.00     0.068 A 
HETATM    3  C4  UNL     1      23.984   1.494  52.139  1.00  0.00     0.057 A 
HETATM    4  C9  UNL     1      23.481   2.249  51.068  1.00  0.00     0.055 A 
HETATM    5  C10 UNL     1      24.441   2.986  50.411  1.00  0.00     0.043 A 
HETATM    6  C11 UNL     1      25.805   3.032  50.729  1.00  0.00    -0.003 A 
HETATM    7  C12 UNL     1      26.494   3.998  49.824  1.00  0.00     0.190 C 
HETATM    8  N3  UNL     1      25.463   4.983  49.367  1.00  0.00    -0.295 NA
HETATM    9  C13 UNL     1      24.906   5.729  50.311  1.00  0.00     0.142 C 
HETATM   10  C14 UNL     1      23.864   6.752  50.067  1.00  0.00     0.073 A 
HETATM   11  C15 UNL     1      24.067   7.832  49.236  1.00  0.00     0.035 A 
HETATM   12  C16 UNL     1      22.909   8.599  49.181  1.00  0.00     0.029 A 
HETATM   13  C17 UNL     1      22.044   7.925  50.006  1.00  0.00     0.030 A 
HETATM   14  C18 UNL     1      20.679   8.509  50.163  1.00  0.00     0.070 C 
HETATM   15  N4  UNL     1      22.598   6.825  50.541  1.00  0.00    -0.264 N 
HETATM   16  N5  UNL     1      21.935   5.990  51.432  1.00  0.00    -0.327 N 
HETATM   17  C19 UNL     1      22.146   4.592  51.685  1.00  0.00     0.164 C 
HETATM   18  C20 UNL     1      21.774   3.808  50.461  1.00  0.00     0.097 C 
HETATM   19  C21 UNL     1      20.296   3.972  50.157  1.00  0.00     0.034 C 
HETATM   20  N6  UNL     1      22.128   2.396  50.595  1.00  0.00    -0.382 N 
HETATM   21  H25 UNL     1      21.157   6.410  52.036  1.00  0.00     0.180 HD
HETATM   22  H32 UNL     1      21.944   1.400  50.532  1.00  0.00     0.160 HD
ENDROOT
BRANCH   3  23
HETATM   23  N1  UNL     1      22.965   0.725  52.796  1.00  0.00    -0.386 N 
HETATM   24  H5  UNL     1      23.617  -0.060  53.129  1.00  0.00     0.159 HD
BRANCH  23  25
HETATM   25  C5  UNL     1      21.986  -0.013  53.426  1.00  0.00     0.150 C 
BRANCH  25  26
HETATM   26  C6  UNL     1      20.619   0.696  53.326  1.00  0.00     0.290 C 
BRANCH  26  27
HETATM   27  N2  UNL     1      19.748  -0.078  52.477  1.00  0.00     0.081 N 
HETATM   28  C7  UNL     1      18.916  -0.906  53.327  1.00  0.00     0.309 C 
HETATM   29  C8  UNL     1      19.016   0.699  51.522  1.00  0.00     0.309 C 
ENDBRANCH  26  27
ENDBRANCH  25  26
ENDBRANCH  23  25
ENDBRANCH   3  23
BRANCH   1  30
HETATM   30  O1  UNL     1      27.587   2.424  51.962  1.00  0.00    -0.355 OA
HETATM   31  C1  UNL     1      28.218   2.268  53.211  1.00  0.00     0.210 C 
ENDBRANCH   1  30
TORSDOF 5
ENDMDL
MODEL 5
REMARK VINA RESULT:      -7.2      2.854      5.813
REMARK  5 active torsions:
REMARK  status: ('A' for Active; 'I' for Inactive)
REMARK    1  A    between atoms: O1_2  and  C2_3 
REMARK    2  A    between atoms: C4_5  and  N1_6 
REMARK    3  A    between atoms: N1_6  and  C5_7 
REMARK    4  A    between atoms: C5_7  and  C6_8 
REMARK    5  A    between atoms: C6_8  and  N2_9 
ROOT
HETATM    1  C2  UNL     1      22.060   0.365  53.086  1.00  0.00     0.078 A 
HETATM    2  C3  UNL     1      23.404   0.291  53.115  1.00  0.00     0.068 A 
HETATM    3  C4  UNL     1      24.304   1.283  52.826  1.00  0.00     0.057 A 
HETATM    4  C9  UNL     1      23.820   2.546  52.448  1.00  0.00     0.055 A 
HETATM    5  C10 UNL     1      22.446   2.627  52.419  1.00  0.00     0.043 A 
HETATM    6  C11 UNL     1      21.554   1.589  52.719  1.00  0.00    -0.003 A 
HETATM    7  C12 UNL     1      20.154   2.059  52.505  1.00  0.00     0.190 C 
HETATM    8  N3  UNL     1      20.213   3.170  51.501  1.00  0.00    -0.295 NA
HETATM    9  C13 UNL     1      20.660   2.847  50.296  1.00  0.00     0.142 C 
HETATM   10  C14 UNL     1      20.802   3.798  49.170  1.00  0.00     0.073 A 
HETATM   11  C15 UNL     1      19.737   4.508  48.662  1.00  0.00     0.035 A 
HETATM   12  C16 UNL     1      20.178   5.337  47.637  1.00  0.00     0.029 A 
HETATM   13  C17 UNL     1      21.523   5.076  47.577  1.00  0.00     0.030 A 
HETATM   14  C18 UNL     1      22.304   5.828  46.550  1.00  0.00     0.070 C 
HETATM   15  N4  UNL     1      21.909   4.162  48.481  1.00  0.00    -0.264 N 
HETATM   16  N5  UNL     1      23.217   3.707  48.600  1.00  0.00    -0.327 N 
HETATM   17  C19 UNL     1      23.884   3.174  49.755  1.00  0.00     0.164 C 
HETATM   18  C20 UNL     1      24.022   4.254  50.788  1.00  0.00     0.097 C 
HETATM   19  C21 UNL     1      24.898   5.377  50.265  1.00  0.00     0.034 C 
HETATM   20  N6  UNL     1      24.539   3.731  52.051  1.00  0.00    -0.382 N 
HETATM   21  H25 UNL     1      23.844   3.737  47.733  1.00  0.00     0.180 HD
HETATM   22  H32 UNL     1      25.155   3.739  52.858  1.00  0.00     0.160 HD
ENDROOT
BRANCH   3  23
HETATM   23  N1  UNL     1      25.738   1.232  52.862  1.00  0.00    -0.386 N 
HETATM   24  H5  UNL     1      25.870   1.092  51.806  1.00  0.00     0.159 HD
BRANCH  23  25
HETATM   25  C5  UNL     1      27.115   1.182  52.897  1.00  0.00     0.150 C 
BRANCH  25  26
HETATM   26  C6  UNL     1      27.612  -0.275  52.783  1.00  0.00     0.290 C 
BRANCH  26  27
HETATM   27  N2  UNL     1      28.872  -0.399  53.471  1.00  0.00     0.081 N 
HETATM   28  C7  UNL     1      28.698   0.108  54.818  1.00  0.00     0.309 C 
HETATM   29  C8  UNL     1      29.449  -1.709  53.410  1.00  0.00     0.309 C 
ENDBRANCH  26  27
ENDBRANCH  25  26
ENDBRANCH  23  25
ENDBRANCH   3  23
BRANCH   1  30
HETATM   30  O1  UNL     1      21.087  -0.522  53.346  1.00  0.00    -0.355 OA
HETATM   31  C1  UNL     1      21.169  -1.474  54.381  1.00  0.00     0.210 C 
ENDBRANCH   1  30
TORSDOF 5
ENDMDL
MODEL 6
REMARK VINA RESULT:      -7.2      2.687      5.204
REMARK  5 active torsions:
REMARK  status: ('A' for Active; 'I' for Inactive)
REMARK    1  A    between atoms: O1_2  and  C2_3 
REMARK    2  A    between atoms: C4_5  and  N1_6 
REMARK    3  A    between atoms: N1_6  and  C5_7 
REMARK    4  A    between atoms: C5_7  and  C6_8 
REMARK    5  A    between atoms: C6_8  and  N2_9 
ROOT
HETATM    1  C2  UNL     1      23.304   4.125  50.087  1.00  0.00     0.078 A 
HETATM    2  C3  UNL     1      24.135   3.976  51.137  1.00  0.00     0.068 A 
HETATM    3  C4  UNL     1      24.350   2.844  51.879  1.00  0.00     0.057 A 
HETATM    4  C9  UNL     1      23.647   1.675  51.550  1.00  0.00     0.055 A 
HETATM    5  C10 UNL     1      22.798   1.822  50.477  1.00  0.00     0.043 A 
HETATM    6  C11 UNL     1      22.600   2.997  49.739  1.00  0.00    -0.003 A 
HETATM    7  C12 UNL     1      21.552   2.763  48.702  1.00  0.00     0.190 C 
HETATM    8  N3  UNL     1      20.687   1.645  49.198  1.00  0.00    -0.295 NA
HETATM    9  C13 UNL     1      20.020   1.874  50.320  1.00  0.00     0.142 C 
HETATM   10  C14 UNL     1      19.120   0.898  50.977  1.00  0.00     0.073 A 
HETATM   11  C15 UNL     1      18.016   0.369  50.346  1.00  0.00     0.035 A 
HETATM   12  C16 UNL     1      17.387  -0.535  51.194  1.00  0.00     0.029 A 
HETATM   13  C17 UNL     1      18.163  -0.501  52.325  1.00  0.00     0.030 A 
HETATM   14  C18 UNL     1      17.741  -1.385  53.452  1.00  0.00     0.070 C 
HETATM   15  N4  UNL     1      19.197   0.347  52.211  1.00  0.00    -0.264 N 
HETATM   16  N5  UNL     1      20.112   0.581  53.230  1.00  0.00    -0.327 N 
HETATM   17  C19 UNL     1      21.479   1.011  53.134  1.00  0.00     0.164 C 
HETATM   18  C20 UNL     1      22.288  -0.064  52.470  1.00  0.00     0.097 C 
HETATM   19  C21 UNL     1      22.292  -1.324  53.316  1.00  0.00     0.034 C 
HETATM   20  N6  UNL     1      23.652   0.382  52.188  1.00  0.00    -0.382 N 
HETATM   21  H25 UNL     1      19.790   0.437  54.242  1.00  0.00     0.180 HD
HETATM   22  H32 UNL     1      24.662   0.283  52.186  1.00  0.00     0.160 HD
ENDROOT
BRANCH   3  23
HETATM   23  N1  UNL     1      25.238   2.658  52.992  1.00  0.00    -0.386 N 
HETATM   24  H5  UNL     1      25.729   3.607  52.902  1.00  0.00     0.159 HD
BRANCH  23  25
HETATM   25  C5  UNL     1      26.090   2.477  54.060  1.00  0.00     0.150 C 
BRANCH  25  26
HETATM   26  C6  UNL     1      26.464   0.988  54.215  1.00  0.00     0.290 C 
BRANCH  26  27
HETATM   27  N2  UNL     1      27.291   0.592  53.102  1.00  0.00     0.081 N 
HETATM   28  C7  UNL     1      28.672   0.856  53.455  1.00  0.00     0.309 C 
HETATM   29  C8  UNL     1      27.051  -0.741  52.637  1.00  0.00     0.309 C 
ENDBRANCH  26  27
ENDBRANCH  25  26
ENDBRANCH  23  25
ENDBRANCH   3  23
BRANCH   1  30
HETATM   30  O1  UNL     1      23.012   5.164  49.290  1.00  0.00    -0.355 OA
HETATM   31  C1  UNL     1      23.958   5.777  48.445  1.00  0.00     0.210 C 
ENDBRANCH   1  30
TORSDOF 5
ENDMDL
MODEL 7
REMARK VINA RESULT:      -6.9      4.440      9.951
REMARK  5 active torsions:
REMARK  status: ('A' for Active; 'I' for Inactive)
REMARK    1  A    between atoms: O1_2  and  C2_3 
REMARK    2  A    between atoms: C4_5  and  N1_6 
REMARK    3  A    between atoms: N1_6  and  C5_7 
REMARK    4  A    between atoms: C5_7  and  C6_8 
REMARK    5  A    between atoms: C6_8  and  N2_9 
ROOT
HETATM    1  C2  UNL     1      26.537   4.852  49.466  1.00  0.00     0.078 A 
HETATM    2  C3  UNL     1      25.365   5.440  49.771  1.00  0.00     0.068 A 
HETATM    3  C4  UNL     1      24.893   6.647  49.324  1.00  0.00     0.057 A 
HETATM    4  C9  UNL     1      25.686   7.400  48.445  1.00  0.00     0.055 A 
HETATM    5  C10 UNL     1      26.885   6.802  48.128  1.00  0.00     0.043 A 
HETATM    6  C11 UNL     1      27.338   5.564  48.605  1.00  0.00    -0.003 A 
HETATM    7  C12 UNL     1      28.711   5.302  48.081  1.00  0.00     0.190 C 
HETATM    8  N3  UNL     1      29.330   6.634  47.788  1.00  0.00    -0.295 NA
HETATM    9  C13 UNL     1      29.502   7.441  48.825  1.00  0.00     0.142 C 
HETATM   10  C14 UNL     1      30.088   8.799  48.745  1.00  0.00     0.073 A 
HETATM   11  C15 UNL     1      31.358   9.029  48.265  1.00  0.00     0.035 A 
HETATM   12  C16 UNL     1      31.620  10.394  48.281  1.00  0.00     0.029 A 
HETATM   13  C17 UNL     1      30.463  10.932  48.787  1.00  0.00     0.030 A 
HETATM   14  C18 UNL     1      30.424  12.417  48.933  1.00  0.00     0.070 C 
HETATM   15  N4  UNL     1      29.543   9.995  49.068  1.00  0.00    -0.264 N 
HETATM   16  N5  UNL     1      28.300  10.283  49.617  1.00  0.00    -0.327 N 
HETATM   17  C19 UNL     1      27.073   9.545  49.507  1.00  0.00     0.164 C 
HETATM   18  C20 UNL     1      26.603   9.578  48.082  1.00  0.00     0.097 C 
HETATM   19  C21 UNL     1      26.288  11.002  47.662  1.00  0.00     0.034 C 
HETATM   20  N6  UNL     1      25.451   8.702  47.872  1.00  0.00    -0.382 N 
HETATM   21  H25 UNL     1      28.203  11.166  50.215  1.00  0.00     0.180 HD
HETATM   22  H32 UNL     1      24.524   8.483  47.523  1.00  0.00     0.160 HD
ENDROOT
BRANCH   3  23
HETATM   23  N1  UNL     1      23.644   7.288  49.625  1.00  0.00    -0.386 N 
HETATM   24  H5  UNL     1      23.767   8.099  48.933  1.00  0.00     0.159 HD
BRANCH  23  25
HETATM   25  C5  UNL     1      22.446   7.904  49.916  1.00  0.00     0.150 C 
BRANCH  25  26
HETATM   26  C6  UNL     1      21.631   7.065  50.923  1.00  0.00     0.290 C 
BRANCH  26  27
HETATM   27  N2  UNL     1      21.691   5.677  50.538  1.00  0.00     0.081 N 
HETATM   28  C7  UNL     1      21.922   4.891  51.733  1.00  0.00     0.309 C 
HETATM   29  C8  UNL     1      20.578   5.235  49.753  1.00  0.00     0.309 C 
ENDBRANCH  26  27
ENDBRANCH  25  26
ENDBRANCH  23  25
ENDBRANCH   3  23
BRANCH   1  30
HETATM   30  O1  UNL     1      27.102   3.691  49.830  1.00  0.00    -0.355 OA
HETATM   31  C1  UNL     1      26.507   2.796  50.740  1.00  0.00     0.210 C 
ENDBRANCH   1  30
TORSDOF 5
ENDMDL
MODEL 8
REMARK VINA RESULT:      -6.7      7.301     11.698
REMARK  5 active torsions:
REMARK  status: ('A' for Active; 'I' for Inactive)
REMARK    1  A    between atoms: O1_2  and  C2_3 
REMARK    2  A    between atoms: C4_5  and  N1_6 
REMARK    3  A    between atoms: N1_6  and  C5_7 
REMARK    4  A    between atoms: C5_7  and  C6_8 
REMARK    5  A    between atoms: C6_8  and  N2_9 
ROOT
HETATM    1  C2  UNL     1      27.458   6.872  48.581  1.00  0.00     0.078 A 
HETATM    2  C3  UNL     1      28.707   6.536  48.205  1.00  0.00     0.068 A 
HETATM    3  C4  UNL     1      29.847   7.286  48.323  1.00  0.00     0.057 A 
HETATM    4  C9  UNL     1      29.759   8.565  48.896  1.00  0.00     0.055 A 
HETATM    5  C10 UNL     1      28.485   8.912  49.283  1.00  0.00     0.043 A 
HETATM    6  C11 UNL     1      27.338   8.119  49.146  1.00  0.00    -0.003 A 
HETATM    7  C12 UNL     1      26.147   8.880  49.625  1.00  0.00     0.190 C 
HETATM    8  N3  UNL     1      26.472  10.336  49.485  1.00  0.00    -0.295 NA
HETATM    9  C13 UNL     1      26.689  10.771  48.252  1.00  0.00     0.142 C 
HETATM   10  C14 UNL     1      27.031  12.170  47.903  1.00  0.00     0.073 A 
HETATM   11  C15 UNL     1      26.207  13.230  48.208  1.00  0.00     0.035 A 
HETATM   12  C16 UNL     1      26.801  14.415  47.787  1.00  0.00     0.029 A 
HETATM   13  C17 UNL     1      27.984  13.995  47.232  1.00  0.00     0.030 A 
HETATM   14  C18 UNL     1      28.874  15.056  46.674  1.00  0.00     0.070 C 
HETATM   15  N4  UNL     1      28.134  12.663  47.293  1.00  0.00    -0.264 N 
HETATM   16  N5  UNL     1      29.234  11.992  46.774  1.00  0.00    -0.327 N 
HETATM   17  C19 UNL     1      29.793  10.730  47.174  1.00  0.00     0.164 C 
HETATM   18  C20 UNL     1      30.353  10.856  48.561  1.00  0.00     0.097 C 
HETATM   19  C21 UNL     1      31.493  11.858  48.582  1.00  0.00     0.034 C 
HETATM   20  N6  UNL     1      30.781   9.563  49.091  1.00  0.00    -0.382 N 
HETATM   21  H25 UNL     1      29.763  12.441  45.959  1.00  0.00     0.180 HD
HETATM   22  H32 UNL     1      31.434   8.938  49.553  1.00  0.00     0.160 HD
ENDROOT
BRANCH   3  23
HETATM   23  N1  UNL     1      31.189   6.946  47.942  1.00  0.00    -0.386 N 
HETATM   24  H5  UNL     1      31.668   7.457  48.753  1.00  0.00     0.159 HD
BRANCH  23  25
HETATM   25  C5  UNL     1      32.476   6.619  47.574  1.00  0.00     0.150 C 
BRANCH  25  26
HETATM   26  C6  UNL     1      32.913   5.294  48.234  1.00  0.00     0.290 C 
BRANCH  26  27
HETATM   27  N2  UNL     1      34.309   5.067  47.956  1.00  0.00     0.081 N 
HETATM   28  C7  UNL     1      35.085   5.793  48.941  1.00  0.00     0.309 C 
HETATM   29  C8  UNL     1      34.667   3.685  47.833  1.00  0.00     0.309 C 
ENDBRANCH  26  27
ENDBRANCH  25  26
ENDBRANCH  23  25
ENDBRANCH   3  23
BRANCH   1  30
HETATM   30  O1  UNL     1      26.280   6.233  48.522  1.00  0.00    -0.355 OA
HETATM   31  C1  UNL     1      26.013   5.042  49.225  1.00  0.00     0.210 C 
ENDBRANCH   1  30
TORSDOF 5
ENDMDL
MODEL 9
REMARK VINA RESULT:      -6.7      2.700      5.578
REMARK  5 active torsions:
REMARK  status: ('A' for Active; 'I' for Inactive)
REMARK    1  A    between atoms: O1_2  and  C2_3 
REMARK    2  A    between atoms: C4_5  and  N1_6 
REMARK    3  A    between atoms: N1_6  and  C5_7 
REMARK    4  A    between atoms: C5_7  and  C6_8 
REMARK    5  A    between atoms: C6_8  and  N2_9 
ROOT
HETATM    1  C2  UNL     1      20.010   3.041  50.499  1.00  0.00     0.078 A 
HETATM    2  C3  UNL     1      20.510   4.188  50.001  1.00  0.00     0.068 A 
HETATM    3  C4  UNL     1      21.792   4.430  49.580  1.00  0.00     0.057 A 
HETATM    4  C9  UNL     1      22.736   3.394  49.658  1.00  0.00     0.055 A 
HETATM    5  C10 UNL     1      22.229   2.219  50.165  1.00  0.00     0.043 A 
HETATM    6  C11 UNL     1      20.911   2.006  50.588  1.00  0.00    -0.003 A 
HETATM    7  C12 UNL     1      20.780   0.623  51.133  1.00  0.00     0.190 C 
HETATM    8  N3  UNL     1      22.141   0.206  51.601  1.00  0.00    -0.295 NA
HETATM    9  C13 UNL     1      22.665   0.920  52.587  1.00  0.00     0.142 C 
HETATM   10  C14 UNL     1      23.998   0.676  53.185  1.00  0.00     0.073 A 
HETATM   11  C15 UNL     1      24.335  -0.521  53.778  1.00  0.00     0.035 A 
HETATM   12  C16 UNL     1      25.652  -0.465  54.219  1.00  0.00     0.029 A 
HETATM   13  C17 UNL     1      26.052   0.798  53.861  1.00  0.00     0.030 A 
HETATM   14  C18 UNL     1      27.455   1.176  54.204  1.00  0.00     0.070 C 
HETATM   15  N4  UNL     1      25.079   1.488  53.246  1.00  0.00    -0.264 N 
HETATM   16  N5  UNL     1      25.228   2.800  52.813  1.00  0.00    -0.327 N 
HETATM   17  C19 UNL     1      24.545   3.481  51.749  1.00  0.00     0.164 C 
HETATM   18  C20 UNL     1      24.932   2.861  50.438  1.00  0.00     0.097 C 
HETATM   19  C21 UNL     1      26.417   3.045  50.184  1.00  0.00     0.034 C 
HETATM   20  N6  UNL     1      24.140   3.397  49.332  1.00  0.00    -0.382 N 
HETATM   21  H25 UNL     1      25.935   3.424  53.321  1.00  0.00     0.180 HD
HETATM   22  H32 UNL     1      24.019   3.789  48.404  1.00  0.00     0.160 HD
ENDROOT
BRANCH   3  23
HETATM   23  N1  UNL     1      22.344   5.638  49.035  1.00  0.00    -0.386 N 
HETATM   24  H5  UNL     1      23.068   5.789  49.812  1.00  0.00     0.159 HD
BRANCH  23  25
HETATM   25  C5  UNL     1      22.872   6.798  48.512  1.00  0.00     0.150 C 
BRANCH  25  26
HETATM   26  C6  UNL     1      24.376   6.625  48.208  1.00  0.00     0.290 C 
BRANCH  26  27
HETATM   27  N2  UNL     1      25.136   7.475  49.091  1.00  0.00     0.081 N 
HETATM   28  C7  UNL     1      24.558   8.802  49.042  1.00  0.00     0.309 C 
HETATM   29  C8  UNL     1      25.294   6.954  50.416  1.00  0.00     0.309 C 
ENDBRANCH  26  27
ENDBRANCH  25  26
ENDBRANCH  23  25
ENDBRANCH   3  23
BRANCH   1  30
HETATM   30  O1  UNL     1      18.793   2.685  50.936  1.00  0.00    -0.355 OA
HETATM   31  C1  UNL     1      17.915   3.577  51.582  1.00  0.00     0.210 C 
ENDBRANCH   1  30
TORSDOF 5
ENDMDL
