MODEL 1
REMARK VINA RESULT:      -8.0      0.000      0.000
REMARK  5 active torsions:
REMARK  status: ('A' for Active; 'I' for Inactive)
REMARK    1  A    between atoms: C1_2  and  C2_3 
REMARK       I    between atoms: C1_2  and  N1_7 
REMARK    2  A    between atoms: C3_4  and  C4_5 
REMARK    3  A    between atoms: C4_5  and  O2_6 
REMARK    4  A    between atoms: C11_14  and  N2_15 
REMARK    5  A    between atoms: N2_15  and  C12_16 
ROOT
HETATM    1  O1  UNL     1      21.105   2.977  52.221  1.00  0.00    -0.258 OA
HETATM    2  C1  UNL     1      21.565   1.832  52.545  1.00  0.00     0.299 C 
HETATM    3  N1  UNL     1      22.969   1.628  52.649  1.00  0.00    -0.334 N 
HETATM    4  C5  UNL     1      23.257   0.263  53.049  1.00  0.00     0.155 C 
HETATM    5  C6  UNL     1      24.728  -0.077  53.047  1.00  0.00     0.002 C 
HETATM    6  C7  UNL     1      25.686   0.896  53.133  1.00  0.00    -0.040 C 
HETATM    7  C8  UNL     1      25.621   2.206  53.891  1.00  0.00     0.021 C 
HETATM    8  C9  UNL     1      25.171   2.632  52.666  1.00  0.00     0.006 C 
HETATM    9  C10 UNL     1      23.725   2.895  52.290  1.00  0.00     0.169 C 
HETATM   10  C11 UNL     1      25.951   2.657  51.400  1.00  0.00     0.131 C 
HETATM   11  N3  UNL     1      27.154   2.154  51.696  1.00  0.00    -0.268 NA
HETATM   12  C18 UNL     1      27.018   0.806  52.389  1.00  0.00     0.189 C 
ENDROOT
BRANCH  10  13
HETATM   13  N2  UNL     1      25.510   3.201  50.164  1.00  0.00    -0.341 N 
HETATM   14  H10 UNL     1      24.796   2.585  49.675  1.00  0.00     0.167 HD
BRANCH  13  15
HETATM   15  C12 UNL     1      26.007   4.448  49.715  1.00  0.00     0.035 A 
HETATM   16  C13 UNL     1      27.132   4.450  48.925  1.00  0.00     0.032 A 
HETATM   17  C14 UNL     1      27.593   5.678  48.494  1.00  0.00     0.046 A 
HETATM   18  C15 UNL     1      26.931   6.856  48.857  1.00  0.00     0.138 A 
HETATM   19  F1  UNL     1      27.405   8.040  48.420  1.00  0.00    -0.204 F 
HETATM   20  C16 UNL     1      25.788   6.808  49.663  1.00  0.00     0.074 A 
HETATM   21 CL1  UNL     1      24.949   8.271  50.130  1.00  0.00    -0.081 Cl
HETATM   22  C17 UNL     1      25.316   5.581  50.101  1.00  0.00     0.056 A 
ENDBRANCH  13  15
ENDBRANCH  10  13
BRANCH   2  23
HETATM   23  C2  UNL     1      20.550   0.844  52.777  1.00  0.00    -0.003 C 
HETATM   24  C3  UNL     1      19.689   0.020  52.961  1.00  0.00    -0.071 C 
BRANCH  24  25
HETATM   25  C4  UNL     1      18.630  -0.987  53.162  1.00  0.00     0.258 C 
BRANCH  25  26
HETATM   26  O2  UNL     1      19.067  -1.947  54.066  1.00  0.00    -0.389 OA
HETATM   27  H3  UNL     1      19.442  -1.469  54.847  1.00  0.00     0.210 HD
ENDBRANCH  25  26
ENDBRANCH  24  25
ENDBRANCH   2  23
TORSDOF 5
ENDMDL
MODEL 2
REMARK VINA RESULT:      -7.9      4.212      7.741
REMARK  5 active torsions:
REMARK  status: ('A' for Active; 'I' for Inactive)
REMARK    1  A    between atoms: C1_2  and  C2_3 
REMARK       I    between atoms: C1_2  and  N1_7 
REMARK    2  A    between atoms: C3_4  and  C4_5 
REMARK    3  A    between atoms: C4_5  and  O2_6 
REMARK    4  A    between atoms: C11_14  and  N2_15 
REMARK    5  A    between atoms: N2_15  and  C12_16 
ROOT
HETATM    1  O1  UNL     1      24.219   3.041  49.428  1.00  0.00    -0.258 OA
HETATM    2  C1  UNL     1      25.356   3.225  49.976  1.00  0.00     0.299 C 
HETATM    3  N1  UNL     1      25.795   2.363  51.020  1.00  0.00    -0.334 N 
HETATM    4  C5  UNL     1      27.118   2.747  51.474  1.00  0.00     0.155 C 
HETATM    5  C6  UNL     1      27.601   1.970  52.675  1.00  0.00     0.002 C 
HETATM    6  C7  UNL     1      27.078   0.744  52.991  1.00  0.00    -0.040 C 
HETATM    7  C8  UNL     1      26.578  -0.328  52.047  1.00  0.00     0.021 C 
HETATM    8  C9  UNL     1      25.398   0.334  52.280  1.00  0.00     0.006 C 
HETATM    9  C10 UNL     1      24.733   1.326  51.343  1.00  0.00     0.169 C 
HETATM   10  C11 UNL     1      24.684   0.433  53.581  1.00  0.00     0.131 C 
HETATM   11  N3  UNL     1      25.439  -0.222  54.469  1.00  0.00    -0.268 NA
HETATM   12  C18 UNL     1      26.873   0.287  54.435  1.00  0.00     0.189 C 
ENDROOT
BRANCH  10  13
HETATM   13  N2  UNL     1      23.411   1.029  53.785  1.00  0.00    -0.341 N 
HETATM   14  H10 UNL     1      23.468   2.079  53.939  1.00  0.00     0.167 HD
BRANCH  13  15
HETATM   15  C12 UNL     1      22.238   0.237  53.752  1.00  0.00     0.035 A 
HETATM   16  C13 UNL     1      22.192  -0.882  54.549  1.00  0.00     0.032 A 
HETATM   17  C14 UNL     1      21.035  -1.635  54.505  1.00  0.00     0.046 A 
HETATM   18  C15 UNL     1      19.970  -1.259  53.678  1.00  0.00     0.138 A 
HETATM   19  F1  UNL     1      18.853  -2.014  53.657  1.00  0.00    -0.204 F 
HETATM   20  C16 UNL     1      20.060  -0.111  52.883  1.00  0.00     0.074 A 
HETATM   21 CL1  UNL     1      18.741   0.373  51.841  1.00  0.00    -0.081 Cl
HETATM   22  C17 UNL     1      21.216   0.653  52.920  1.00  0.00     0.056 A 
ENDBRANCH  13  15
ENDBRANCH  10  13
BRANCH   2  23
HETATM   23  C2  UNL     1      26.086   4.338  49.439  1.00  0.00    -0.003 C 
HETATM   24  C3  UNL     1      26.706   5.263  48.979  1.00  0.00    -0.071 C 
BRANCH  24  25
HETATM   25  C4  UNL     1      27.465   6.385  48.393  1.00  0.00     0.258 C 
BRANCH  25  26
HETATM   26  O2  UNL     1      27.793   7.295  49.389  1.00  0.00    -0.389 OA
HETATM   27  H3  UNL     1      28.765   7.213  49.557  1.00  0.00     0.210 HD
ENDBRANCH  25  26
ENDBRANCH  24  25
ENDBRANCH   2  23
TORSDOF 5
ENDMDL
MODEL 3
REMARK VINA RESULT:      -7.8      3.211      5.149
REMARK  5 active torsions:
REMARK  status: ('A' for Active; 'I' for Inactive)
REMARK    1  A    between atoms: C1_2  and  C2_3 
REMARK       I    between atoms: C1_2  and  N1_7 
REMARK    2  A    between atoms: C3_4  and  C4_5 
REMARK    3  A    between atoms: C4_5  and  O2_6 
REMARK    4  A    between atoms: C11_14  and  N2_15 
REMARK    5  A    between atoms: N2_15  and  C12_16 
ROOT
HETATM    1  O1  UNL     1      26.950   1.905  51.227  1.00  0.00    -0.258 OA
HETATM    2  C1  UNL     1      26.311   1.005  51.867  1.00  0.00     0.299 C 
HETATM    3  N1  UNL     1      24.894   1.078  51.982  1.00  0.00    -0.334 N 
HETATM    4  C5  UNL     1      24.385  -0.058  52.728  1.00  0.00     0.155 C 
HETATM    5  C6  UNL     1      22.905   0.014  53.016  1.00  0.00     0.002 C 
HETATM    6  C7  UNL     1      22.067   0.791  52.261  1.00  0.00    -0.040 C 
HETATM    7  C8  UNL     1      22.161   1.101  50.782  1.00  0.00     0.021 C 
HETATM    8  C9  UNL     1      22.854   2.176  51.281  1.00  0.00     0.006 C 
HETATM    9  C10 UNL     1      24.363   2.330  51.305  1.00  0.00     0.169 C 
HETATM   10  C11 UNL     1      22.302   3.262  52.134  1.00  0.00     0.131 C 
HETATM   11  N3  UNL     1      21.016   2.957  52.335  1.00  0.00    -0.268 NA
HETATM   12  C18 UNL     1      20.876   1.537  52.861  1.00  0.00     0.189 C 
ENDROOT
BRANCH  10  13
HETATM   13  N2  UNL     1      23.002   4.425  52.553  1.00  0.00    -0.341 N 
HETATM   14  H10 UNL     1      23.502   4.291  53.481  1.00  0.00     0.167 HD
BRANCH  13  15
HETATM   15  C12 UNL     1      22.999   5.589  51.748  1.00  0.00     0.035 A 
HETATM   16  C13 UNL     1      21.785   6.087  51.338  1.00  0.00     0.032 A 
HETATM   17  C14 UNL     1      21.807   7.228  50.560  1.00  0.00     0.046 A 
HETATM   18  C15 UNL     1      23.021   7.834  50.216  1.00  0.00     0.138 A 
HETATM   19  F1  UNL     1      23.010   8.947  49.455  1.00  0.00    -0.204 F 
HETATM   20  C16 UNL     1      24.234   7.292  50.656  1.00  0.00     0.074 A 
HETATM   21 CL1  UNL     1      25.761   8.034  50.233  1.00  0.00    -0.081 Cl
HETATM   22  C17 UNL     1      24.224   6.148  51.438  1.00  0.00     0.056 A 
ENDBRANCH  13  15
ENDBRANCH  10  13
BRANCH   2  23
HETATM   23  C2  UNL     1      27.149  -0.022  52.416  1.00  0.00    -0.003 C 
HETATM   24  C3  UNL     1      27.856  -0.889  52.864  1.00  0.00    -0.071 C 
BRANCH  24  25
HETATM   25  C4  UNL     1      28.738  -1.949  53.393  1.00  0.00     0.258 C 
BRANCH  25  26
HETATM   26  O2  UNL     1      28.344  -3.179  52.881  1.00  0.00    -0.389 OA
HETATM   27  H3  UNL     1      29.071  -3.823  53.070  1.00  0.00     0.210 HD
ENDBRANCH  25  26
ENDBRANCH  24  25
ENDBRANCH   2  23
TORSDOF 5
ENDMDL
MODEL 4
REMARK VINA RESULT:      -7.5      3.921      7.437
REMARK  5 active torsions:
REMARK  status: ('A' for Active; 'I' for Inactive)
REMARK    1  A    between atoms: C1_2  and  C2_3 
REMARK       I    between atoms: C1_2  and  N1_7 
REMARK    2  A    between atoms: C3_4  and  C4_5 
REMARK    3  A    between atoms: C4_5  and  O2_6 
REMARK    4  A    between atoms: C11_14  and  N2_15 
REMARK    5  A    between atoms: N2_15  and  C12_16 
ROOT
HETATM    1  O1  UNL     1      24.115   5.961  51.392  1.00  0.00    -0.258 OA
HETATM    2  C1  UNL     1      24.278   5.234  50.357  1.00  0.00     0.299 C 
HETATM    3  N1  UNL     1      23.293   4.273  49.994  1.00  0.00    -0.334 N 
HETATM    4  C5  UNL     1      23.679   3.583  48.777  1.00  0.00     0.155 C 
HETATM    5  C6  UNL     1      22.756   2.450  48.399  1.00  0.00     0.002 C 
HETATM    6  C7  UNL     1      21.468   2.393  48.860  1.00  0.00    -0.040 C 
HETATM    7  C8  UNL     1      20.526   3.543  49.143  1.00  0.00     0.021 C 
HETATM    8  C9  UNL     1      21.075   3.390  50.392  1.00  0.00     0.006 C 
HETATM    9  C10 UNL     1      22.158   4.259  51.003  1.00  0.00     0.169 C 
HETATM   10  C11 UNL     1      20.930   2.204  51.279  1.00  0.00     0.131 C 
HETATM   11  N3  UNL     1      20.192   1.321  50.599  1.00  0.00    -0.268 NA
HETATM   12  C18 UNL     1      20.782   1.075  49.219  1.00  0.00     0.189 C 
ENDROOT
BRANCH  10  13
HETATM   13  N2  UNL     1      21.412   2.101  52.612  1.00  0.00    -0.341 N 
HETATM   14  H10 UNL     1      20.880   2.721  53.290  1.00  0.00     0.167 HD
BRANCH  13  15
HETATM   15  C12 UNL     1      22.479   1.223  52.919  1.00  0.00     0.035 A 
HETATM   16  C13 UNL     1      22.224   0.165  53.758  1.00  0.00     0.032 A 
HETATM   17  C14 UNL     1      23.279  -0.682  54.036  1.00  0.00     0.046 A 
HETATM   18  C15 UNL     1      24.542  -0.455  53.479  1.00  0.00     0.138 A 
HETATM   19  F1  UNL     1      25.553  -1.299  53.770  1.00  0.00    -0.204 F 
HETATM   20  C16 UNL     1      24.758   0.636  52.629  1.00  0.00     0.074 A 
HETATM   21 CL1  UNL     1      26.331   0.938  51.926  1.00  0.00    -0.081 Cl
HETATM   22  C17 UNL     1      23.706   1.491  52.342  1.00  0.00     0.056 A 
ENDBRANCH  13  15
ENDBRANCH  10  13
BRANCH   2  23
HETATM   23  C2  UNL     1      25.501   5.494  49.652  1.00  0.00    -0.003 C 
HETATM   24  C3  UNL     1      26.535   5.704  49.069  1.00  0.00    -0.071 C 
BRANCH  24  25
HETATM   25  C4  UNL     1      27.808   5.936  48.360  1.00  0.00     0.258 C 
BRANCH  25  26
HETATM   26  O2  UNL     1      28.847   5.335  49.059  1.00  0.00    -0.389 OA
HETATM   27  H3  UNL     1      29.216   6.013  49.679  1.00  0.00     0.210 HD
ENDBRANCH  25  26
ENDBRANCH  24  25
ENDBRANCH   2  23
TORSDOF 5
ENDMDL
MODEL 5
REMARK VINA RESULT:      -7.5      4.627      7.728
REMARK  5 active torsions:
REMARK  status: ('A' for Active; 'I' for Inactive)
REMARK    1  A    between atoms: C1_2  and  C2_3 
REMARK       I    between atoms: C1_2  and  N1_7 
REMARK    2  A    between atoms: C3_4  and  C4_5 
REMARK    3  A    between atoms: C4_5  and  O2_6 
REMARK    4  A    between atoms: C11_14  and  N2_15 
REMARK    5  A    between atoms: N2_15  and  C12_16 
ROOT
HETATM    1  O1  UNL     1      25.093  -0.893  54.214  1.00  0.00    -0.258 OA
HETATM    2  C1  UNL     1      25.806  -0.105  53.508  1.00  0.00     0.299 C 
HETATM    3  N1  UNL     1      25.197   0.966  52.795  1.00  0.00    -0.334 N 
HETATM    4  C5  UNL     1      26.198   1.738  52.083  1.00  0.00     0.155 C 
HETATM    5  C6  UNL     1      25.621   2.809  51.189  1.00  0.00     0.002 C 
HETATM    6  C7  UNL     1      24.363   3.309  51.393  1.00  0.00    -0.040 C 
HETATM    7  C8  UNL     1      23.641   3.512  52.708  1.00  0.00     0.021 C 
HETATM    8  C9  UNL     1      23.187   2.254  52.394  1.00  0.00     0.006 C 
HETATM    9  C10 UNL     1      23.690   0.952  52.988  1.00  0.00     0.169 C 
HETATM   10  C11 UNL     1      22.329   1.890  51.235  1.00  0.00     0.131 C 
HETATM   11  N3  UNL     1      22.122   3.024  50.557  1.00  0.00    -0.268 NA
HETATM   12  C18 UNL     1      23.442   3.710  50.241  1.00  0.00     0.189 C 
ENDROOT
BRANCH  10  13
HETATM   13  N2  UNL     1      21.777   0.605  50.982  1.00  0.00    -0.341 N 
HETATM   14  H10 UNL     1      22.451  -0.038  50.472  1.00  0.00     0.167 HD
BRANCH  13  15
HETATM   15  C12 UNL     1      20.467   0.293  51.416  1.00  0.00     0.035 A 
HETATM   16  C13 UNL     1      20.312  -0.228  52.679  1.00  0.00     0.032 A 
HETATM   17  C14 UNL     1      19.023  -0.518  53.083  1.00  0.00     0.046 A 
HETATM   18  C15 UNL     1      17.939  -0.284  52.230  1.00  0.00     0.138 A 
HETATM   19  F1  UNL     1      16.692  -0.577  52.653  1.00  0.00    -0.204 F 
HETATM   20  C16 UNL     1      18.143   0.249  50.952  1.00  0.00     0.074 A 
HETATM   21 CL1  UNL     1      16.799   0.545  49.871  1.00  0.00    -0.081 Cl
HETATM   22  C17 UNL     1      19.432   0.544  50.537  1.00  0.00     0.056 A 
ENDBRANCH  13  15
ENDBRANCH  10  13
BRANCH   2  23
HETATM   23  C2  UNL     1      27.207  -0.416  53.526  1.00  0.00    -0.003 C 
HETATM   24  C3  UNL     1      28.385  -0.671  53.529  1.00  0.00    -0.071 C 
BRANCH  24  25
HETATM   25  C4  UNL     1      29.832  -0.959  53.521  1.00  0.00     0.258 C 
BRANCH  25  26
HETATM   26  O2  UNL     1      30.544   0.232  53.457  1.00  0.00    -0.389 OA
HETATM   27  H3  UNL     1      30.085   0.881  54.047  1.00  0.00     0.210 HD
ENDBRANCH  25  26
ENDBRANCH  24  25
ENDBRANCH   2  23
TORSDOF 5
ENDMDL
MODEL 6
REMARK VINA RESULT:      -7.4      4.484      5.865
REMARK  5 active torsions:
REMARK  status: ('A' for Active; 'I' for Inactive)
REMARK    1  A    between atoms: C1_2  and  C2_3 
REMARK       I    between atoms: C1_2  and  N1_7 
REMARK    2  A    between atoms: C3_4  and  C4_5 
REMARK    3  A    between atoms: C4_5  and  O2_6 
REMARK    4  A    between atoms: C11_14  and  N2_15 
REMARK    5  A    between atoms: N2_15  and  C12_16 
ROOT
HETATM    1  O1  UNL     1      23.447   4.078  49.412  1.00  0.00    -0.258 OA
HETATM    2  C1  UNL     1      22.524   3.196  49.395  1.00  0.00     0.299 C 
HETATM    3  N1  UNL     1      22.454   2.215  50.424  1.00  0.00    -0.334 N 
HETATM    4  C5  UNL     1      21.318   1.337  50.212  1.00  0.00     0.155 C 
HETATM    5  C6  UNL     1      21.250   0.181  51.181  1.00  0.00     0.002 C 
HETATM    6  C7  UNL     1      21.887   0.226  52.392  1.00  0.00    -0.040 C 
HETATM    7  C8  UNL     1      22.114   1.429  53.283  1.00  0.00     0.021 C 
HETATM    8  C9  UNL     1      23.284   1.456  52.566  1.00  0.00     0.006 C 
HETATM    9  C10 UNL     1      23.599   2.383  51.407  1.00  0.00     0.169 C 
HETATM   10  C11 UNL     1      24.356   0.425  52.589  1.00  0.00     0.131 C 
HETATM   11  N3  UNL     1      23.930  -0.535  53.417  1.00  0.00    -0.268 NA
HETATM   12  C18 UNL     1      22.537  -1.004  53.024  1.00  0.00     0.189 C 
ENDROOT
BRANCH  10  13
HETATM   13  N2  UNL     1      25.610   0.516  51.927  1.00  0.00    -0.341 N 
HETATM   14  H10 UNL     1      25.538   0.334  50.883  1.00  0.00     0.167 HD
BRANCH  13  15
HETATM   15  C12 UNL     1      26.779   0.841  52.655  1.00  0.00     0.035 A 
HETATM   16  C13 UNL     1      26.922   2.132  53.107  1.00  0.00     0.032 A 
HETATM   17  C14 UNL     1      28.067   2.423  53.821  1.00  0.00     0.046 A 
HETATM   18  C15 UNL     1      29.027   1.434  54.063  1.00  0.00     0.138 A 
HETATM   19  F1  UNL     1      30.135   1.748  54.764  1.00  0.00    -0.204 F 
HETATM   20  C16 UNL     1      28.841   0.132  53.585  1.00  0.00     0.074 A 
HETATM   21 CL1  UNL     1      30.032  -1.117  53.875  1.00  0.00    -0.081 Cl
HETATM   22  C17 UNL     1      27.695  -0.172  52.868  1.00  0.00     0.056 A 
ENDBRANCH  13  15
ENDBRANCH  10  13
BRANCH   2  23
HETATM   23  C2  UNL     1      21.627   3.317  48.281  1.00  0.00    -0.003 C 
HETATM   24  C3  UNL     1      20.884   3.411  47.338  1.00  0.00    -0.071 C 
BRANCH  24  25
HETATM   25  C4  UNL     1      19.983   3.507  46.172  1.00  0.00     0.258 C 
BRANCH  25  26
HETATM   26  O2  UNL     1      18.811   2.810  46.432  1.00  0.00    -0.389 OA
HETATM   27  H3  UNL     1      18.978   1.859  46.214  1.00  0.00     0.210 HD
ENDBRANCH  25  26
ENDBRANCH  24  25
ENDBRANCH   2  23
TORSDOF 5
ENDMDL
MODEL 7
REMARK VINA RESULT:      -7.2      3.858      5.606
REMARK  5 active torsions:
REMARK  status: ('A' for Active; 'I' for Inactive)
REMARK    1  A    between atoms: C1_2  and  C2_3 
REMARK       I    between atoms: C1_2  and  N1_7 
REMARK    2  A    between atoms: C3_4  and  C4_5 
REMARK    3  A    between atoms: C4_5  and  O2_6 
REMARK    4  A    between atoms: C11_14  and  N2_15 
REMARK    5  A    between atoms: N2_15  and  C12_16 
ROOT
HETATM    1  O1  UNL     1      20.693   1.339  51.861  1.00  0.00    -0.258 OA
HETATM    2  C1  UNL     1      20.646   2.510  51.357  1.00  0.00     0.299 C 
HETATM    3  N1  UNL     1      21.822   3.104  50.817  1.00  0.00    -0.334 N 
HETATM    4  C5  UNL     1      21.527   4.421  50.283  1.00  0.00     0.155 C 
HETATM    5  C6  UNL     1      22.746   5.178  49.816  1.00  0.00     0.002 C 
HETATM    6  C7  UNL     1      23.907   4.530  49.485  1.00  0.00    -0.040 C 
HETATM    7  C8  UNL     1      24.065   3.165  48.848  1.00  0.00     0.021 C 
HETATM    8  C9  UNL     1      24.135   2.805  50.171  1.00  0.00     0.006 C 
HETATM    9  C10 UNL     1      23.017   2.183  50.986  1.00  0.00     0.169 C 
HETATM   10  C11 UNL     1      25.198   3.194  51.136  1.00  0.00     0.131 C 
HETATM   11  N3  UNL     1      26.040   3.983  50.460  1.00  0.00    -0.268 NA
HETATM   12  C18 UNL     1      25.287   5.116  49.779  1.00  0.00     0.189 C 
ENDROOT
BRANCH  10  13
HETATM   13  N2  UNL     1      25.318   2.727  52.472  1.00  0.00    -0.341 N 
HETATM   14  H10 UNL     1      24.596   3.154  53.123  1.00  0.00     0.167 HD
BRANCH  13  15
HETATM   15  C12 UNL     1      26.311   1.776  52.809  1.00  0.00     0.035 A 
HETATM   16  C13 UNL     1      27.428   2.218  53.477  1.00  0.00     0.032 A 
HETATM   17  C14 UNL     1      28.379   1.270  53.802  1.00  0.00     0.046 A 
HETATM   18  C15 UNL     1      28.194  -0.073  53.457  1.00  0.00     0.138 A 
HETATM   19  F1  UNL     1      29.140  -0.975  53.788  1.00  0.00    -0.204 F 
HETATM   20  C16 UNL     1      27.040  -0.479  52.777  1.00  0.00     0.074 A 
HETATM   21 CL1  UNL     1      26.793  -2.154  52.335  1.00  0.00    -0.081 Cl
HETATM   22  C17 UNL     1      26.079   0.463  52.447  1.00  0.00     0.056 A 
ENDBRANCH  13  15
ENDBRANCH  10  13
BRANCH   2  23
HETATM   23  C2  UNL     1      19.343   3.109  51.402  1.00  0.00    -0.003 C 
HETATM   24  C3  UNL     1      18.254   3.625  51.434  1.00  0.00    -0.071 C 
BRANCH  24  25
HETATM   25  C4  UNL     1      16.926   4.269  51.452  1.00  0.00     0.258 C 
BRANCH  25  26
HETATM   26  O2  UNL     1      16.356   4.123  52.710  1.00  0.00    -0.389 OA
HETATM   27  H3  UNL     1      16.641   4.897  53.255  1.00  0.00     0.210 HD
ENDBRANCH  25  26
ENDBRANCH  24  25
ENDBRANCH   2  23
TORSDOF 5
ENDMDL
MODEL 8
REMARK VINA RESULT:      -6.9      4.332      6.791
REMARK  5 active torsions:
REMARK  status: ('A' for Active; 'I' for Inactive)
REMARK    1  A    between atoms: C1_2  and  C2_3 
REMARK       I    between atoms: C1_2  and  N1_7 
REMARK    2  A    between atoms: C3_4  and  C4_5 
REMARK    3  A    between atoms: C4_5  and  O2_6 
REMARK    4  A    between atoms: C11_14  and  N2_15 
REMARK    5  A    between atoms: N2_15  and  C12_16 
ROOT
HETATM    1  O1  UNL     1      25.416   5.929  48.750  1.00  0.00    -0.258 OA
HETATM    2  C1  UNL     1      24.183   5.601  48.750  1.00  0.00     0.299 C 
HETATM    3  N1  UNL     1      23.653   4.812  49.809  1.00  0.00    -0.334 N 
HETATM    4  C5  UNL     1      22.234   4.583  49.611  1.00  0.00     0.155 C 
HETATM    5  C6  UNL     1      21.622   3.637  50.616  1.00  0.00     0.002 C 
HETATM    6  C7  UNL     1      22.206   3.413  51.834  1.00  0.00    -0.040 C 
HETATM    7  C8  UNL     1      22.988   4.388  52.688  1.00  0.00     0.021 C 
HETATM    8  C9  UNL     1      24.024   3.823  51.986  1.00  0.00     0.006 C 
HETATM    9  C10 UNL     1      24.741   4.442  50.802  1.00  0.00     0.169 C 
HETATM   10  C11 UNL     1      24.466   2.405  52.057  1.00  0.00     0.131 C 
HETATM   11  N3  UNL     1      23.634   1.799  52.910  1.00  0.00    -0.268 NA
HETATM   12  C18 UNL     1      22.186   2.045  52.515  1.00  0.00     0.189 C 
ENDROOT
BRANCH  10  13
HETATM   13  N2  UNL     1      25.607   1.857  51.409  1.00  0.00    -0.341 N 
HETATM   14  H10 UNL     1      25.616   2.047  50.364  1.00  0.00     0.167 HD
BRANCH  13  15
HETATM   15  C12 UNL     1      26.588   1.165  52.157  1.00  0.00     0.035 A 
HETATM   16  C13 UNL     1      26.588  -0.209  52.109  1.00  0.00     0.032 A 
HETATM   17  C14 UNL     1      27.561  -0.861  52.841  1.00  0.00     0.046 A 
HETATM   18  C15 UNL     1      28.494  -0.138  53.592  1.00  0.00     0.138 A 
HETATM   19  F1  UNL     1      29.432  -0.803  54.297  1.00  0.00    -0.204 F 
HETATM   20  C16 UNL     1      28.458   1.261  53.613  1.00  0.00     0.074 A 
HETATM   21 CL1  UNL     1      29.615   2.182  54.548  1.00  0.00    -0.081 Cl
HETATM   22  C17 UNL     1      27.487   1.926  52.880  1.00  0.00     0.056 A 
ENDBRANCH  13  15
ENDBRANCH  10  13
BRANCH   2  23
HETATM   23  C2  UNL     1      23.450   6.099  47.621  1.00  0.00    -0.003 C 
HETATM   24  C3  UNL     1      22.831   6.528  46.680  1.00  0.00    -0.071 C 
BRANCH  24  25
HETATM   25  C4  UNL     1      22.077   7.077  45.537  1.00  0.00     0.258 C 
BRANCH  25  26
HETATM   26  O2  UNL     1      21.914   6.093  44.571  1.00  0.00    -0.389 OA
HETATM   27  H3  UNL     1      21.269   5.433  44.928  1.00  0.00     0.210 HD
ENDBRANCH  25  26
ENDBRANCH  24  25
ENDBRANCH   2  23
TORSDOF 5
ENDMDL
MODEL 9
REMARK VINA RESULT:      -6.8      2.216      2.588
REMARK  5 active torsions:
REMARK  status: ('A' for Active; 'I' for Inactive)
REMARK    1  A    between atoms: C1_2  and  C2_3 
REMARK       I    between atoms: C1_2  and  N1_7 
REMARK    2  A    between atoms: C3_4  and  C4_5 
REMARK    3  A    between atoms: C4_5  and  O2_6 
REMARK    4  A    between atoms: C11_14  and  N2_15 
REMARK    5  A    between atoms: N2_15  and  C12_16 
ROOT
HETATM    1  O1  UNL     1      20.653   4.790  50.786  1.00  0.00    -0.258 OA
HETATM    2  C1  UNL     1      20.703   3.604  51.253  1.00  0.00     0.299 C 
HETATM    3  N1  UNL     1      21.954   3.029  51.615  1.00  0.00    -0.334 N 
HETATM    4  C5  UNL     1      21.765   1.690  52.140  1.00  0.00     0.155 C 
HETATM    5  C6  UNL     1      23.055   0.956  52.418  1.00  0.00     0.002 C 
HETATM    6  C7  UNL     1      24.231   1.628  52.614  1.00  0.00    -0.040 C 
HETATM    7  C8  UNL     1      24.438   2.977  53.269  1.00  0.00     0.021 C 
HETATM    8  C9  UNL     1      24.323   3.377  51.961  1.00  0.00     0.006 C 
HETATM    9  C10 UNL     1      23.092   3.990  51.321  1.00  0.00     0.169 C 
HETATM   10  C11 UNL     1      25.260   3.048  50.853  1.00  0.00     0.131 C 
HETATM   11  N3  UNL     1      26.203   2.265  51.386  1.00  0.00    -0.268 NA
HETATM   12  C18 UNL     1      25.575   1.091  52.123  1.00  0.00     0.189 C 
ENDROOT
BRANCH  10  13
HETATM   13  N2  UNL     1      25.190   3.557  49.529  1.00  0.00    -0.341 N 
HETATM   14  H10 UNL     1      24.509   3.019  48.917  1.00  0.00     0.167 HD
BRANCH  13  15
HETATM   15  C12 UNL     1      25.966   4.680  49.154  1.00  0.00     0.035 A 
HETATM   16  C13 UNL     1      25.358   5.913  49.147  1.00  0.00     0.032 A 
HETATM   17  C14 UNL     1      26.138   6.994  48.785  1.00  0.00     0.046 A 
HETATM   18  C15 UNL     1      27.484   6.820  48.445  1.00  0.00     0.138 A 
HETATM   19  F1  UNL     1      28.220   7.895  48.096  1.00  0.00    -0.204 F 
HETATM   20  C16 UNL     1      28.063   5.546  48.466  1.00  0.00     0.074 A 
HETATM   21 CL1  UNL     1      29.743   5.309  48.041  1.00  0.00    -0.081 Cl
HETATM   22  C17 UNL     1      27.290   4.454  48.829  1.00  0.00     0.056 A 
ENDBRANCH  13  15
ENDBRANCH  10  13
BRANCH   2  23
HETATM   23  C2  UNL     1      19.420   2.968  51.361  1.00  0.00    -0.003 C 
HETATM   24  C3  UNL     1      18.339   2.442  51.439  1.00  0.00    -0.071 C 
BRANCH  24  25
HETATM   25  C4  UNL     1      17.013   1.797  51.510  1.00  0.00     0.258 C 
BRANCH  25  26
HETATM   26  O2  UNL     1      16.062   2.732  51.895  1.00  0.00    -0.389 OA
HETATM   27  H3  UNL     1      16.521   3.605  51.976  1.00  0.00     0.210 HD
ENDBRANCH  25  26
ENDBRANCH  24  25
ENDBRANCH   2  23
TORSDOF 5
ENDMDL
