MODEL 1
REMARK VINA RESULT:      -6.4      0.000      0.000
REMARK  12 active torsions:
REMARK  status: ('A' for Active; 'I' for Inactive)
REMARK    1  A    between atoms: O1_2  and  C2_3 
REMARK    2  A    between atoms: C2_3  and  C3_5 
REMARK    3  A    between atoms: C3_5  and  C4_6 
REMARK    4  A    between atoms: C4_6  and  N1_7 
REMARK    5  A    between atoms: C11_14  and  C12_15 
REMARK    6  A    between atoms: C12_15  and  C13_16 
REMARK    7  A    between atoms: C13_16  and  O3_18 
REMARK    8  A    between atoms: C15_19  and  S1_20 
REMARK    9  A    between atoms: C15_19  and  C16_21 
REMARK   10  A    between atoms: C16_21  and  C17_22 
REMARK   11  A    between atoms: C17_22  and  C18_23 
REMARK   12  A    between atoms: C18_23  and  O5_25 
ROOT
HETATM    1  N1  UNL     1      24.844   0.767  52.369  1.00  0.00    -0.361 N 
HETATM    2  C5  UNL     1      23.806   0.267  53.191  1.00  0.00     0.038 A 
HETATM    3  C6  UNL     1      23.760  -0.669  54.190  1.00  0.00     0.030 A 
HETATM    4  C7  UNL     1      22.655  -1.037  54.905  1.00  0.00     0.002 A 
HETATM    5  C8  UNL     1      21.456  -0.383  54.572  1.00  0.00     0.001 A 
HETATM    6  C9  UNL     1      21.486   0.558  53.573  1.00  0.00     0.010 A 
HETATM    7  C10 UNL     1      22.638   0.913  52.858  1.00  0.00    -0.024 A 
HETATM    8  C11 UNL     1      22.924   1.862  51.752  1.00  0.00     0.062 C 
HETATM    9  C15 UNL     1      24.379   2.135  51.988  1.00  0.00     0.087 C 
ENDROOT
BRANCH   9  10
HETATM   10  S1  UNL     1      24.538   3.161  53.444  1.00  0.00    -0.150 SA
HETATM   11  H20 UNL     1      23.758   2.734  54.511  1.00  0.00     0.104 HD
ENDBRANCH   9  10
BRANCH   9  12
HETATM   12  C16 UNL     1      25.176   2.573  50.829  1.00  0.00     0.053 C 
BRANCH  12  13
HETATM   13  C17 UNL     1      25.258   4.020  50.509  1.00  0.00     0.114 C 
BRANCH  13  14
HETATM   14  C18 UNL     1      24.241   4.408  49.474  1.00  0.00     0.258 C 
HETATM   15  O4  UNL     1      23.461   4.669  48.541  1.00  0.00    -0.265 OA
BRANCH  14  16
HETATM   16  O5  UNL     1      23.284   5.172  50.094  1.00  0.00    -0.326 OA
HETATM   17  C19 UNL     1      23.446   6.051  51.165  1.00  0.00     0.213 C 
ENDBRANCH  14  16
ENDBRANCH  13  14
ENDBRANCH  12  13
ENDBRANCH   9  12
BRANCH   1  18
HETATM   18  C4  UNL     1      26.068   0.201  51.921  1.00  0.00     0.134 C 
BRANCH  18  19
HETATM   19  C3  UNL     1      26.925  -0.527  52.899  1.00  0.00     0.131 C 
BRANCH  19  20
HETATM   20  C2  UNL     1      27.321   0.382  54.040  1.00  0.00     0.259 C 
HETATM   21  O2  UNL     1      27.455  -0.288  55.118  1.00  0.00    -0.265 OA
BRANCH  20  22
HETATM   22  O1  UNL     1      27.595   1.715  54.330  1.00  0.00    -0.326 OA
HETATM   23  C1  UNL     1      28.598   2.399  53.548  1.00  0.00     0.213 C 
ENDBRANCH  20  22
ENDBRANCH  19  20
ENDBRANCH  18  19
ENDBRANCH   1  18
BRANCH   8  24
HETATM   24  C12 UNL     1      22.593   1.294  50.404  1.00  0.00     0.044 C 
BRANCH  24  25
HETATM   25  C13 UNL     1      21.296   1.901  49.908  1.00  0.00     0.114 C 
HETATM   26  C14 UNL     1      21.324   1.754  48.381  1.00  0.00     0.039 C 
BRANCH  25  27
HETATM   27  O3  UNL     1      21.173   3.253  50.180  1.00  0.00    -0.396 OA
HETATM   28  H19 UNL     1      20.837   3.704  49.370  1.00  0.00     0.210 HD
ENDBRANCH  25  27
ENDBRANCH  24  25
ENDBRANCH   8  24
TORSDOF 12
ENDMDL
MODEL 2
REMARK VINA RESULT:      -5.9      2.224      5.004
REMARK  12 active torsions:
REMARK  status: ('A' for Active; 'I' for Inactive)
REMARK    1  A    between atoms: O1_2  and  C2_3 
REMARK    2  A    between atoms: C2_3  and  C3_5 
REMARK    3  A    between atoms: C3_5  and  C4_6 
REMARK    4  A    between atoms: C4_6  and  N1_7 
REMARK    5  A    between atoms: C11_14  and  C12_15 
REMARK    6  A    between atoms: C12_15  and  C13_16 
REMARK    7  A    between atoms: C13_16  and  O3_18 
REMARK    8  A    between atoms: C15_19  and  S1_20 
REMARK    9  A    between atoms: C15_19  and  C16_21 
REMARK   10  A    between atoms: C16_21  and  C17_22 
REMARK   11  A    between atoms: C17_22  and  C18_23 
REMARK   12  A    between atoms: C18_23  and  O5_25 
ROOT
HETATM    1  N1  UNL     1      23.894   2.412  51.882  1.00  0.00    -0.361 N 
HETATM    2  C5  UNL     1      24.758   3.072  50.976  1.00  0.00     0.038 A 
HETATM    3  C6  UNL     1      26.070   2.895  50.624  1.00  0.00     0.030 A 
HETATM    4  C7  UNL     1      26.768   3.629  49.705  1.00  0.00     0.002 A 
HETATM    5  C8  UNL     1      26.058   4.662  49.070  1.00  0.00     0.001 A 
HETATM    6  C9  UNL     1      24.742   4.851  49.412  1.00  0.00     0.010 A 
HETATM    7  C10 UNL     1      24.055   4.081  50.359  1.00  0.00    -0.024 A 
HETATM    8  C11 UNL     1      22.673   4.092  50.905  1.00  0.00     0.062 C 
HETATM    9  C15 UNL     1      22.528   2.662  51.328  1.00  0.00     0.087 C 
ENDROOT
BRANCH   9  10
HETATM   10  S1  UNL     1      22.369   1.647  49.865  1.00  0.00    -0.150 SA
HETATM   11  H20 UNL     1      23.516   1.618  49.082  1.00  0.00     0.104 HD
ENDBRANCH   9  10
BRANCH   9  12
HETATM   12  C16 UNL     1      21.553   2.374  52.394  1.00  0.00     0.053 C 
BRANCH  12  13
HETATM   13  C17 UNL     1      20.304   1.644  52.059  1.00  0.00     0.114 C 
BRANCH  13  14
HETATM   14  C18 UNL     1      20.164   0.396  52.883  1.00  0.00     0.258 C 
HETATM   15  O4  UNL     1      19.975  -0.675  53.485  1.00  0.00    -0.265 OA
BRANCH  14  16
HETATM   16  O5  UNL     1      20.967   0.533  53.988  1.00  0.00    -0.326 OA
HETATM   17  C19 UNL     1      21.515  -0.473  54.784  1.00  0.00     0.213 C 
ENDBRANCH  14  16
ENDBRANCH  13  14
ENDBRANCH  12  13
ENDBRANCH   9  12
BRANCH   1  18
HETATM   18  C4  UNL     1      24.135   1.678  53.074  1.00  0.00     0.134 C 
BRANCH  18  19
HETATM   19  C3  UNL     1      24.825   0.361  52.981  1.00  0.00     0.131 C 
BRANCH  19  20
HETATM   20  C2  UNL     1      25.715   0.140  54.183  1.00  0.00     0.259 C 
HETATM   21  O2  UNL     1      25.458  -0.985  54.728  1.00  0.00    -0.265 OA
BRANCH  20  22
HETATM   22  O1  UNL     1      26.732   0.746  54.915  1.00  0.00    -0.326 OA
HETATM   23  C1  UNL     1      28.077   0.236  54.778  1.00  0.00     0.213 C 
ENDBRANCH  20  22
ENDBRANCH  19  20
ENDBRANCH  18  19
ENDBRANCH   1  18
BRANCH   8  24
HETATM   24  C12 UNL     1      22.495   5.102  52.000  1.00  0.00     0.044 C 
BRANCH  24  25
HETATM   25  C13 UNL     1      21.761   6.310  51.453  1.00  0.00     0.114 C 
HETATM   26  C14 UNL     1      21.000   5.813  50.217  1.00  0.00     0.039 C 
BRANCH  25  27
HETATM   27  O3  UNL     1      22.598   7.328  51.029  1.00  0.00    -0.396 OA
HETATM   28  H19 UNL     1      22.928   7.103  50.127  1.00  0.00     0.210 HD
ENDBRANCH  25  27
ENDBRANCH  24  25
ENDBRANCH   8  24
TORSDOF 12
ENDMDL
MODEL 3
REMARK VINA RESULT:      -5.9      2.615      4.486
REMARK  12 active torsions:
REMARK  status: ('A' for Active; 'I' for Inactive)
REMARK    1  A    between atoms: O1_2  and  C2_3 
REMARK    2  A    between atoms: C2_3  and  C3_5 
REMARK    3  A    between atoms: C3_5  and  C4_6 
REMARK    4  A    between atoms: C4_6  and  N1_7 
REMARK    5  A    between atoms: C11_14  and  C12_15 
REMARK    6  A    between atoms: C12_15  and  C13_16 
REMARK    7  A    between atoms: C13_16  and  O3_18 
REMARK    8  A    between atoms: C15_19  and  S1_20 
REMARK    9  A    between atoms: C15_19  and  C16_21 
REMARK   10  A    between atoms: C16_21  and  C17_22 
REMARK   11  A    between atoms: C17_22  and  C18_23 
REMARK   12  A    between atoms: C18_23  and  O5_25 
ROOT
HETATM    1  N1  UNL     1      24.529   2.456  51.021  1.00  0.00    -0.361 N 
HETATM    2  C5  UNL     1      25.169   1.404  51.718  1.00  0.00     0.038 A 
HETATM    3  C6  UNL     1      26.444   0.905  51.712  1.00  0.00     0.030 A 
HETATM    4  C7  UNL     1      26.912  -0.133  52.469  1.00  0.00     0.002 A 
HETATM    5  C8  UNL     1      25.982  -0.738  53.331  1.00  0.00     0.001 A 
HETATM    6  C9  UNL     1      24.699  -0.249  53.349  1.00  0.00     0.010 A 
HETATM    7  C10 UNL     1      24.251   0.818  52.560  1.00  0.00    -0.024 A 
HETATM    8  C11 UNL     1      22.947   1.508  52.386  1.00  0.00     0.062 C 
HETATM    9  C15 UNL     1      23.405   2.857  51.920  1.00  0.00     0.087 C 
ENDROOT
BRANCH   9  10
HETATM   10  S1  UNL     1      24.131   3.723  53.305  1.00  0.00    -0.150 SA
HETATM   11  H20 UNL     1      23.627   5.005  53.484  1.00  0.00     0.104 HD
ENDBRANCH   9  10
BRANCH   9  12
HETATM   12  C16 UNL     1      22.453   3.648  51.121  1.00  0.00     0.053 C 
BRANCH  12  13
HETATM   13  C17 UNL     1      21.366   4.389  51.810  1.00  0.00     0.114 C 
BRANCH  13  14
HETATM   14  C18 UNL     1      20.073   4.288  51.051  1.00  0.00     0.258 C 
HETATM   15  O4  UNL     1      19.061   4.243  50.331  1.00  0.00    -0.265 OA
BRANCH  14  16
HETATM   16  O5  UNL     1      19.117   3.816  51.916  1.00  0.00    -0.326 OA
HETATM   17  C19 UNL     1      17.816   3.406  51.622  1.00  0.00     0.213 C 
ENDBRANCH  14  16
ENDBRANCH  13  14
ENDBRANCH  12  13
ENDBRANCH   9  12
BRANCH   1  18
HETATM   18  C4  UNL     1      24.781   3.062  49.761  1.00  0.00     0.134 C 
BRANCH  18  19
HETATM   19  C3  UNL     1      25.915   4.020  49.636  1.00  0.00     0.131 C 
BRANCH  19  20
HETATM   20  C2  UNL     1      25.412   5.446  49.656  1.00  0.00     0.259 C 
HETATM   21  O2  UNL     1      24.720   5.689  48.612  1.00  0.00    -0.265 OA
BRANCH  20  22
HETATM   22  O1  UNL     1      25.441   6.604  50.428  1.00  0.00    -0.326 OA
HETATM   23  C1  UNL     1      24.255   6.970  51.167  1.00  0.00     0.213 C 
ENDBRANCH  20  22
ENDBRANCH  19  20
ENDBRANCH  18  19
ENDBRANCH   1  18
BRANCH   8  24
HETATM   24  C12 UNL     1      22.033   0.784  51.443  1.00  0.00     0.044 C 
BRANCH  24  25
HETATM   25  C13 UNL     1      20.758   0.406  52.170  1.00  0.00     0.114 C 
HETATM   26  C14 UNL     1      19.667   0.340  51.092  1.00  0.00     0.039 C 
BRANCH  25  27
HETATM   27  O3  UNL     1      20.348   1.344  53.101  1.00  0.00    -0.396 OA
HETATM   28  H19 UNL     1      20.298   2.223  52.657  1.00  0.00     0.210 HD
ENDBRANCH  25  27
ENDBRANCH  24  25
ENDBRANCH   8  24
TORSDOF 12
ENDMDL
MODEL 4
REMARK VINA RESULT:      -5.8      1.850      6.104
REMARK  12 active torsions:
REMARK  status: ('A' for Active; 'I' for Inactive)
REMARK    1  A    between atoms: O1_2  and  C2_3 
REMARK    2  A    between atoms: C2_3  and  C3_5 
REMARK    3  A    between atoms: C3_5  and  C4_6 
REMARK    4  A    between atoms: C4_6  and  N1_7 
REMARK    5  A    between atoms: C11_14  and  C12_15 
REMARK    6  A    between atoms: C12_15  and  C13_16 
REMARK    7  A    between atoms: C13_16  and  O3_18 
REMARK    8  A    between atoms: C15_19  and  S1_20 
REMARK    9  A    between atoms: C15_19  and  C16_21 
REMARK   10  A    between atoms: C16_21  and  C17_22 
REMARK   11  A    between atoms: C17_22  and  C18_23 
REMARK   12  A    between atoms: C18_23  and  O5_25 
ROOT
HETATM    1  N1  UNL     1      23.143   3.295  51.911  1.00  0.00    -0.361 N 
HETATM    2  C5  UNL     1      22.312   2.731  50.914  1.00  0.00     0.038 A 
HETATM    3  C6  UNL     1      21.524   3.265  49.929  1.00  0.00     0.030 A 
HETATM    4  C7  UNL     1      20.776   2.566  49.022  1.00  0.00     0.002 A 
HETATM    5  C8  UNL     1      20.829   1.166  49.124  1.00  0.00     0.001 A 
HETATM    6  C9  UNL     1      21.615   0.616  50.106  1.00  0.00     0.010 A 
HETATM    7  C10 UNL     1      22.371   1.361  51.021  1.00  0.00    -0.024 A 
HETATM    8  C11 UNL     1      23.265   1.016  52.156  1.00  0.00     0.062 C 
HETATM    9  C15 UNL     1      24.149   2.226  52.192  1.00  0.00     0.087 C 
ENDROOT
BRANCH   9  10
HETATM   10  S1  UNL     1      25.252   2.170  50.786  1.00  0.00    -0.150 SA
HETATM   11  H20 UNL     1      26.457   1.532  51.051  1.00  0.00     0.104 HD
ENDBRANCH   9  10
BRANCH   9  12
HETATM   12  C16 UNL     1      24.795   2.546  53.476  1.00  0.00     0.053 C 
BRANCH  12  13
HETATM   13  C17 UNL     1      26.191   2.100  53.719  1.00  0.00     0.114 C 
BRANCH  13  14
HETATM   14  C18 UNL     1      26.226   0.726  54.324  1.00  0.00     0.258 C 
HETATM   15  O4  UNL     1      26.159  -0.434  54.766  1.00  0.00    -0.265 OA
BRANCH  14  16
HETATM   16  O5  UNL     1      27.342   0.648  55.120  1.00  0.00    -0.326 OA
HETATM   17  C19 UNL     1      28.632   0.257  54.759  1.00  0.00     0.213 C 
ENDBRANCH  14  16
ENDBRANCH  13  14
ENDBRANCH  12  13
ENDBRANCH   9  12
BRANCH   1  18
HETATM   18  C4  UNL     1      23.120   4.547  52.581  1.00  0.00     0.134 C 
BRANCH  18  19
HETATM   19  C3  UNL     1      23.762   5.724  51.930  1.00  0.00     0.131 C 
BRANCH  19  20
HETATM   20  C2  UNL     1      22.779   6.433  51.026  1.00  0.00     0.259 C 
HETATM   21  O2  UNL     1      23.175   6.387  49.814  1.00  0.00    -0.265 OA
BRANCH  20  22
HETATM   22  O1  UNL     1      21.575   7.131  51.055  1.00  0.00    -0.326 OA
HETATM   23  C1  UNL     1      21.107   7.749  49.837  1.00  0.00     0.213 C 
ENDBRANCH  20  22
ENDBRANCH  19  20
ENDBRANCH  18  19
ENDBRANCH   1  18
BRANCH   8  24
HETATM   24  C12 UNL     1      22.509   0.741  53.422  1.00  0.00     0.044 C 
BRANCH  24  25
HETATM   25  C13 UNL     1      22.536  -0.748  53.708  1.00  0.00     0.114 C 
HETATM   26  C14 UNL     1      21.081  -1.143  53.995  1.00  0.00     0.039 C 
BRANCH  25  27
HETATM   27  O3  UNL     1      23.274  -1.088  54.828  1.00  0.00    -0.396 OA
HETATM   28  H19 UNL     1      23.203  -2.062  54.963  1.00  0.00     0.210 HD
ENDBRANCH  25  27
ENDBRANCH  24  25
ENDBRANCH   8  24
TORSDOF 12
ENDMDL
MODEL 5
REMARK VINA RESULT:      -5.7      2.332      5.475
REMARK  12 active torsions:
REMARK  status: ('A' for Active; 'I' for Inactive)
REMARK    1  A    between atoms: O1_2  and  C2_3 
REMARK    2  A    between atoms: C2_3  and  C3_5 
REMARK    3  A    between atoms: C3_5  and  C4_6 
REMARK    4  A    between atoms: C4_6  and  N1_7 
REMARK    5  A    between atoms: C11_14  and  C12_15 
REMARK    6  A    between atoms: C12_15  and  C13_16 
REMARK    7  A    between atoms: C13_16  and  O3_18 
REMARK    8  A    between atoms: C15_19  and  S1_20 
REMARK    9  A    between atoms: C15_19  and  C16_21 
REMARK   10  A    between atoms: C16_21  and  C17_22 
REMARK   11  A    between atoms: C17_22  and  C18_23 
REMARK   12  A    between atoms: C18_23  and  O5_25 
ROOT
HETATM    1  N1  UNL     1      21.862   2.698  52.040  1.00  0.00    -0.361 N 
HETATM    2  C5  UNL     1      21.634   1.492  52.745  1.00  0.00     0.038 A 
HETATM    3  C6  UNL     1      20.544   0.965  53.387  1.00  0.00     0.030 A 
HETATM    4  C7  UNL     1      20.486  -0.243  54.025  1.00  0.00     0.002 A 
HETATM    5  C8  UNL     1      21.666  -1.006  54.015  1.00  0.00     0.001 A 
HETATM    6  C9  UNL     1      22.766  -0.491  53.375  1.00  0.00     0.010 A 
HETATM    7  C10 UNL     1      22.793   0.752  52.729  1.00  0.00    -0.024 A 
HETATM    8  C11 UNL     1      23.832   1.522  51.998  1.00  0.00     0.062 C 
HETATM    9  C15 UNL     1      22.976   2.364  51.101  1.00  0.00     0.087 C 
ENDROOT
BRANCH   9  10
HETATM   10  S1  UNL     1      22.284   1.319  49.826  1.00  0.00    -0.150 SA
HETATM   11  H20 UNL     1      21.251   0.507  50.274  1.00  0.00     0.104 HD
ENDBRANCH   9  10
BRANCH   9  12
HETATM   12  C16 UNL     1      23.552   3.632  50.621  1.00  0.00     0.053 C 
BRANCH  12  13
HETATM   13  C17 UNL     1      24.368   3.636  49.381  1.00  0.00     0.114 C 
BRANCH  13  14
HETATM   14  C18 UNL     1      25.837   3.615  49.695  1.00  0.00     0.258 C 
HETATM   15  O4  UNL     1      27.038   3.488  49.991  1.00  0.00    -0.265 OA
BRANCH  14  16
HETATM   16  O5  UNL     1      26.356   4.837  49.350  1.00  0.00    -0.326 OA
HETATM   17  C19 UNL     1      27.511   5.106  48.614  1.00  0.00     0.213 C 
ENDBRANCH  14  16
ENDBRANCH  13  14
ENDBRANCH  12  13
ENDBRANCH   9  12
BRANCH   1  18
HETATM   18  C4  UNL     1      21.264   3.984  52.123  1.00  0.00     0.134 C 
BRANCH  18  19
HETATM   19  C3  UNL     1      19.905   4.185  51.548  1.00  0.00     0.131 C 
BRANCH  19  20
HETATM   20  C2  UNL     1      19.998   4.683  50.124  1.00  0.00     0.259 C 
HETATM   21  O2  UNL     1      19.195   5.657  49.938  1.00  0.00    -0.265 OA
BRANCH  20  22
HETATM   22  O1  UNL     1      20.664   4.444  48.925  1.00  0.00    -0.326 OA
HETATM   23  C1  UNL     1      21.269   5.562  48.238  1.00  0.00     0.213 C 
ENDBRANCH  20  22
ENDBRANCH  19  20
ENDBRANCH  18  19
ENDBRANCH   1  18
BRANCH   8  24
HETATM   24  C12 UNL     1      24.737   2.287  52.918  1.00  0.00     0.044 C 
BRANCH  24  25
HETATM   25  C13 UNL     1      26.120   1.668  52.890  1.00  0.00     0.114 C 
HETATM   26  C14 UNL     1      26.281   0.945  54.234  1.00  0.00     0.039 C 
BRANCH  25  27
HETATM   27  O3  UNL     1      27.145   2.594  52.805  1.00  0.00    -0.396 OA
HETATM   28  H19 UNL     1      27.011   3.272  53.509  1.00  0.00     0.210 HD
ENDBRANCH  25  27
ENDBRANCH  24  25
ENDBRANCH   8  24
TORSDOF 12
ENDMDL
MODEL 6
REMARK VINA RESULT:      -5.6      2.964      5.400
REMARK  12 active torsions:
REMARK  status: ('A' for Active; 'I' for Inactive)
REMARK    1  A    between atoms: O1_2  and  C2_3 
REMARK    2  A    between atoms: C2_3  and  C3_5 
REMARK    3  A    between atoms: C3_5  and  C4_6 
REMARK    4  A    between atoms: C4_6  and  N1_7 
REMARK    5  A    between atoms: C11_14  and  C12_15 
REMARK    6  A    between atoms: C12_15  and  C13_16 
REMARK    7  A    between atoms: C13_16  and  O3_18 
REMARK    8  A    between atoms: C15_19  and  S1_20 
REMARK    9  A    between atoms: C15_19  and  C16_21 
REMARK   10  A    between atoms: C16_21  and  C17_22 
REMARK   11  A    between atoms: C17_22  and  C18_23 
REMARK   12  A    between atoms: C18_23  and  O5_25 
ROOT
HETATM    1  N1  UNL     1      22.681   1.486  52.211  1.00  0.00    -0.361 N 
HETATM    2  C5  UNL     1      23.977   1.846  51.771  1.00  0.00     0.038 A 
HETATM    3  C6  UNL     1      25.212   1.266  51.896  1.00  0.00     0.030 A 
HETATM    4  C7  UNL     1      26.388   1.748  51.393  1.00  0.00     0.002 A 
HETATM    5  C8  UNL     1      26.308   2.958  50.683  1.00  0.00     0.001 A 
HETATM    6  C9  UNL     1      25.077   3.551  50.548  1.00  0.00     0.010 A 
HETATM    7  C10 UNL     1      23.888   3.030  51.077  1.00  0.00    -0.024 A 
HETATM    8  C11 UNL     1      22.471   3.474  51.084  1.00  0.00     0.062 C 
HETATM    9  C15 UNL     1      21.768   2.159  51.239  1.00  0.00     0.087 C 
ENDROOT
BRANCH   9  10
HETATM   10  S1  UNL     1      21.894   1.259  49.700  1.00  0.00    -0.150 SA
HETATM   11  H20 UNL     1      23.012   0.437  49.628  1.00  0.00     0.104 HD
ENDBRANCH   9  10
BRANCH   9  12
HETATM   12  C16 UNL     1      20.421   2.186  51.835  1.00  0.00     0.053 C 
BRANCH  12  13
HETATM   13  C17 UNL     1      19.300   1.514  51.129  1.00  0.00     0.114 C 
BRANCH  13  14
HETATM   14  C18 UNL     1      18.864   0.274  51.857  1.00  0.00     0.258 C 
HETATM   15  O4  UNL     1      18.603  -0.748  52.515  1.00  0.00    -0.265 OA
BRANCH  14  16
HETATM   16  O5  UNL     1      17.613  -0.059  51.402  1.00  0.00    -0.326 OA
HETATM   17  C19 UNL     1      17.176  -0.161  50.081  1.00  0.00     0.213 C 
ENDBRANCH  14  16
ENDBRANCH  13  14
ENDBRANCH  12  13
ENDBRANCH   9  12
BRANCH   1  18
HETATM   18  C4  UNL     1      22.224   0.704  53.306  1.00  0.00     0.134 C 
BRANCH  18  19
HETATM   19  C3  UNL     1      22.283  -0.781  53.203  1.00  0.00     0.131 C 
BRANCH  19  20
HETATM   20  C2  UNL     1      22.162  -1.414  54.571  1.00  0.00     0.259 C 
HETATM   21  O2  UNL     1      20.955  -1.758  54.798  1.00  0.00    -0.265 OA
BRANCH  20  22
HETATM   22  O1  UNL     1      22.921  -1.758  55.687  1.00  0.00    -0.326 OA
HETATM   23  C1  UNL     1      24.285  -1.291  55.763  1.00  0.00     0.213 C 
ENDBRANCH  20  22
ENDBRANCH  19  20
ENDBRANCH  18  19
ENDBRANCH   1  18
BRANCH   8  24
HETATM   24  C12 UNL     1      22.188   4.479  52.160  1.00  0.00     0.044 C 
BRANCH  24  25
HETATM   25  C13 UNL     1      21.903   5.826  51.525  1.00  0.00     0.114 C 
HETATM   26  C14 UNL     1      21.399   5.522  50.108  1.00  0.00     0.039 C 
BRANCH  25  27
HETATM   27  O3  UNL     1      23.023   6.628  51.391  1.00  0.00    -0.396 OA
HETATM   28  H19 UNL     1      22.784   7.406  50.834  1.00  0.00     0.210 HD
ENDBRANCH  25  27
ENDBRANCH  24  25
ENDBRANCH   8  24
TORSDOF 12
ENDMDL
MODEL 7
REMARK VINA RESULT:      -5.5      2.159      5.797
REMARK  12 active torsions:
REMARK  status: ('A' for Active; 'I' for Inactive)
REMARK    1  A    between atoms: O1_2  and  C2_3 
REMARK    2  A    between atoms: C2_3  and  C3_5 
REMARK    3  A    between atoms: C3_5  and  C4_6 
REMARK    4  A    between atoms: C4_6  and  N1_7 
REMARK    5  A    between atoms: C11_14  and  C12_15 
REMARK    6  A    between atoms: C12_15  and  C13_16 
REMARK    7  A    between atoms: C13_16  and  O3_18 
REMARK    8  A    between atoms: C15_19  and  S1_20 
REMARK    9  A    between atoms: C15_19  and  C16_21 
REMARK   10  A    between atoms: C16_21  and  C17_22 
REMARK   11  A    between atoms: C17_22  and  C18_23 
REMARK   12  A    between atoms: C18_23  and  O5_25 
ROOT
HETATM    1  N1  UNL     1      23.012   3.073  50.651  1.00  0.00    -0.361 N 
HETATM    2  C5  UNL     1      22.303   4.282  50.458  1.00  0.00     0.038 A 
HETATM    3  C6  UNL     1      20.975   4.585  50.317  1.00  0.00     0.030 A 
HETATM    4  C7  UNL     1      20.443   5.833  50.143  1.00  0.00     0.002 A 
HETATM    5  C8  UNL     1      21.360   6.897  50.105  1.00  0.00     0.001 A 
HETATM    6  C9  UNL     1      22.695   6.608  50.245  1.00  0.00     0.010 A 
HETATM    7  C10 UNL     1      23.208   5.317  50.422  1.00  0.00    -0.024 A 
HETATM    8  C11 UNL     1      24.574   4.753  50.579  1.00  0.00     0.062 C 
HETATM    9  C15 UNL     1      24.271   3.496  51.337  1.00  0.00     0.087 C 
ENDROOT
BRANCH   9  10
HETATM   10  S1  UNL     1      23.828   3.933  53.012  1.00  0.00    -0.150 SA
HETATM   11  H20 UNL     1      22.930   3.048  53.597  1.00  0.00     0.104 HD
ENDBRANCH   9  10
BRANCH   9  12
HETATM   12  C16 UNL     1      25.239   2.392  51.217  1.00  0.00     0.053 C 
BRANCH  12  13
HETATM   13  C17 UNL     1      25.805   1.785  52.449  1.00  0.00     0.114 C 
BRANCH  13  14
HETATM   14  C18 UNL     1      27.269   2.091  52.585  1.00  0.00     0.258 C 
HETATM   15  O4  UNL     1      28.454   2.455  52.671  1.00  0.00    -0.265 OA
BRANCH  14  16
HETATM   16  O5  UNL     1      27.907   0.931  52.943  1.00  0.00    -0.326 OA
HETATM   17  C19 UNL     1      27.402  -0.370  52.927  1.00  0.00     0.213 C 
ENDBRANCH  14  16
ENDBRANCH  13  14
ENDBRANCH  12  13
ENDBRANCH   9  12
BRANCH   1  18
HETATM   18  C4  UNL     1      22.722   1.726  50.306  1.00  0.00     0.134 C 
BRANCH  18  19
HETATM   19  C3  UNL     1      21.524   1.072  50.904  1.00  0.00     0.131 C 
BRANCH  19  20
HETATM   20  C2  UNL     1      21.593   1.114  52.414  1.00  0.00     0.259 C 
HETATM   21  O2  UNL     1      20.662   1.850  52.883  1.00  0.00    -0.265 OA
BRANCH  20  22
HETATM   22  O1  UNL     1      22.329   0.623  53.488  1.00  0.00    -0.326 OA
HETATM   23  C1  UNL     1      23.080  -0.598  53.308  1.00  0.00     0.213 C 
ENDBRANCH  20  22
ENDBRANCH  19  20
ENDBRANCH  18  19
ENDBRANCH   1  18
BRANCH   8  24
HETATM   24  C12 UNL     1      25.269   4.554  49.265  1.00  0.00     0.044 C 
BRANCH  24  25
HETATM   25  C13 UNL     1      26.227   5.703  49.024  1.00  0.00     0.114 C 
HETATM   26  C14 UNL     1      27.561   5.057  48.624  1.00  0.00     0.039 C 
BRANCH  25  27
HETATM   27  O3  UNL     1      26.473   6.470  50.150  1.00  0.00    -0.396 OA
HETATM   28  H19 UNL     1      27.272   7.023  49.982  1.00  0.00     0.210 HD
ENDBRANCH  25  27
ENDBRANCH  24  25
ENDBRANCH   8  24
TORSDOF 12
ENDMDL
MODEL 8
REMARK VINA RESULT:      -5.5      8.522     11.528
REMARK  12 active torsions:
REMARK  status: ('A' for Active; 'I' for Inactive)
REMARK    1  A    between atoms: O1_2  and  C2_3 
REMARK    2  A    between atoms: C2_3  and  C3_5 
REMARK    3  A    between atoms: C3_5  and  C4_6 
REMARK    4  A    between atoms: C4_6  and  N1_7 
REMARK    5  A    between atoms: C11_14  and  C12_15 
REMARK    6  A    between atoms: C12_15  and  C13_16 
REMARK    7  A    between atoms: C13_16  and  O3_18 
REMARK    8  A    between atoms: C15_19  and  S1_20 
REMARK    9  A    between atoms: C15_19  and  C16_21 
REMARK   10  A    between atoms: C16_21  and  C17_22 
REMARK   11  A    between atoms: C17_22  and  C18_23 
REMARK   12  A    between atoms: C18_23  and  O5_25 
ROOT
HETATM    1  N1  UNL     1      29.806   8.939  48.171  1.00  0.00    -0.361 N 
HETATM    2  C5  UNL     1      28.966   7.809  48.313  1.00  0.00     0.038 A 
HETATM    3  C6  UNL     1      27.639   7.649  48.611  1.00  0.00     0.030 A 
HETATM    4  C7  UNL     1      26.966   6.463  48.702  1.00  0.00     0.002 A 
HETATM    5  C8  UNL     1      27.722   5.302  48.466  1.00  0.00     0.001 A 
HETATM    6  C9  UNL     1      29.054   5.446  48.166  1.00  0.00     0.010 A 
HETATM    7  C10 UNL     1      29.715   6.678  48.080  1.00  0.00    -0.024 A 
HETATM    8  C11 UNL     1      31.113   7.091  47.794  1.00  0.00     0.062 C 
HETATM    9  C15 UNL     1      30.892   8.473  47.257  1.00  0.00     0.087 C 
ENDROOT
BRANCH   9  10
HETATM   10  S1  UNL     1      30.175   8.342  45.624  1.00  0.00    -0.150 SA
HETATM   11  H20 UNL     1      31.002   8.817  44.615  1.00  0.00     0.104 HD
ENDBRANCH   9  10
BRANCH   9  12
HETATM   12  C16 UNL     1      32.011   9.423  47.369  1.00  0.00     0.053 C 
BRANCH  12  13
HETATM   13  C17 UNL     1      33.141   9.332  46.410  1.00  0.00     0.114 C 
BRANCH  13  14
HETATM   14  C18 UNL     1      34.451   9.159  47.126  1.00  0.00     0.258 C 
HETATM   15  O4  UNL     1      35.473   8.990  47.812  1.00  0.00    -0.265 OA
BRANCH  14  16
HETATM   16  O5  UNL     1      35.455   9.382  46.218  1.00  0.00    -0.326 OA
HETATM   17  C19 UNL     1      35.348   9.540  44.836  1.00  0.00     0.213 C 
ENDBRANCH  14  16
ENDBRANCH  13  14
ENDBRANCH  12  13
ENDBRANCH   9  12
BRANCH   1  18
HETATM   18  C4  UNL     1      29.753  10.246  48.725  1.00  0.00     0.134 C 
BRANCH  18  19
HETATM   19  C3  UNL     1      29.136  11.342  47.926  1.00  0.00     0.131 C 
BRANCH  19  20
HETATM   20  C2  UNL     1      27.931  11.909  48.642  1.00  0.00     0.259 C 
HETATM   21  O2  UNL     1      28.268  12.908  49.361  1.00  0.00    -0.265 OA
BRANCH  20  22
HETATM   22  O1  UNL     1      26.561  11.718  48.794  1.00  0.00    -0.326 OA
HETATM   23  C1  UNL     1      25.886  10.818  47.888  1.00  0.00     0.213 C 
ENDBRANCH  20  22
ENDBRANCH  19  20
ENDBRANCH  18  19
ENDBRANCH   1  18
BRANCH   8  24
HETATM   24  C12 UNL     1      31.996   7.012  49.004  1.00  0.00     0.044 C 
BRANCH  24  25
HETATM   25  C13 UNL     1      32.896   5.798  48.889  1.00  0.00     0.114 C 
HETATM   26  C14 UNL     1      33.277   5.699  47.406  1.00  0.00     0.039 C 
BRANCH  25  27
HETATM   27  O3  UNL     1      32.276   4.608  49.226  1.00  0.00    -0.396 OA
HETATM   28  H19 UNL     1      32.177   4.575  50.207  1.00  0.00     0.210 HD
ENDBRANCH  25  27
ENDBRANCH  24  25
ENDBRANCH   8  24
TORSDOF 12
ENDMDL
MODEL 9
REMARK VINA RESULT:      -5.5      2.245      3.427
REMARK  12 active torsions:
REMARK  status: ('A' for Active; 'I' for Inactive)
REMARK    1  A    between atoms: O1_2  and  C2_3 
REMARK    2  A    between atoms: C2_3  and  C3_5 
REMARK    3  A    between atoms: C3_5  and  C4_6 
REMARK    4  A    between atoms: C4_6  and  N1_7 
REMARK    5  A    between atoms: C11_14  and  C12_15 
REMARK    6  A    between atoms: C12_15  and  C13_16 
REMARK    7  A    between atoms: C13_16  and  O3_18 
REMARK    8  A    between atoms: C15_19  and  S1_20 
REMARK    9  A    between atoms: C15_19  and  C16_21 
REMARK   10  A    between atoms: C16_21  and  C17_22 
REMARK   11  A    between atoms: C17_22  and  C18_23 
REMARK   12  A    between atoms: C18_23  and  O5_25 
ROOT
HETATM    1  N1  UNL     1      21.762   0.278  52.129  1.00  0.00    -0.361 N 
HETATM    2  C5  UNL     1      20.358   0.157  52.001  1.00  0.00     0.038 A 
HETATM    3  C6  UNL     1      19.405  -0.553  52.682  1.00  0.00     0.030 A 
HETATM    4  C7  UNL     1      18.061  -0.552  52.433  1.00  0.00     0.002 A 
HETATM    5  C8  UNL     1      17.630   0.259  51.369  1.00  0.00     0.001 A 
HETATM    6  C9  UNL     1      18.573   0.977  50.677  1.00  0.00     0.010 A 
HETATM    7  C10 UNL     1      19.945   0.954  50.958  1.00  0.00    -0.024 A 
HETATM    8  C11 UNL     1      21.140   1.608  50.365  1.00  0.00     0.062 C 
HETATM    9  C15 UNL     1      22.066   1.619  51.544  1.00  0.00     0.087 C 
ENDROOT
BRANCH   9  10
HETATM   10  S1  UNL     1      21.485   2.839  52.715  1.00  0.00    -0.150 SA
HETATM   11  H20 UNL     1      20.338   3.503  52.301  1.00  0.00     0.104 HD
ENDBRANCH   9  10
BRANCH   9  12
HETATM   12  C16 UNL     1      23.510   1.668  51.261  1.00  0.00     0.053 C 
BRANCH  12  13
HETATM   13  C17 UNL     1      24.383   2.547  52.080  1.00  0.00     0.114 C 
BRANCH  13  14
HETATM   14  C18 UNL     1      25.825   2.409  51.681  1.00  0.00     0.258 C 
HETATM   15  O4  UNL     1      27.020   2.198  51.414  1.00  0.00    -0.265 OA
BRANCH  14  16
HETATM   16  O5  UNL     1      26.129   3.455  50.847  1.00  0.00    -0.326 OA
HETATM   17  C19 UNL     1      26.504   3.405  49.503  1.00  0.00     0.213 C 
ENDBRANCH  14  16
ENDBRANCH  13  14
ENDBRANCH  12  13
ENDBRANCH   9  12
BRANCH   1  18
HETATM   18  C4  UNL     1      22.756  -0.596  52.645  1.00  0.00     0.134 C 
BRANCH  18  19
HETATM   19  C3  UNL     1      23.176  -0.448  54.067  1.00  0.00     0.131 C 
BRANCH  19  20
HETATM   20  C2  UNL     1      24.674  -0.606  54.199  1.00  0.00     0.259 C 
HETATM   21  O2  UNL     1      25.199  -0.844  53.061  1.00  0.00    -0.265 OA
BRANCH  20  22
HETATM   22  O1  UNL     1      25.696  -0.582  55.144  1.00  0.00    -0.326 OA
HETATM   23  C1  UNL     1      26.852   0.245  54.888  1.00  0.00     0.213 C 
ENDBRANCH  20  22
ENDBRANCH  19  20
ENDBRANCH  18  19
ENDBRANCH   1  18
BRANCH   8  24
HETATM   24  C12 UNL     1      21.654   0.883  49.157  1.00  0.00     0.044 C 
BRANCH  24  25
HETATM   25  C13 UNL     1      21.467   1.755  47.932  1.00  0.00     0.114 C 
HETATM   26  C14 UNL     1      22.426   2.940  48.113  1.00  0.00     0.039 C 
BRANCH  25  27
HETATM   27  O3  UNL     1      20.193   2.282  47.809  1.00  0.00    -0.396 OA
HETATM   28  H19 UNL     1      19.568   1.704  48.306  1.00  0.00     0.210 HD
ENDBRANCH  25  27
ENDBRANCH  24  25
ENDBRANCH   8  24
TORSDOF 12
ENDMDL
