MODEL 1
REMARK VINA RESULT:      -9.8      0.000      0.000
REMARK  2 active torsions:
REMARK  status: ('A' for Active; 'I' for Inactive)
REMARK    1  A    between atoms: C10_15  and  C11_16 
REMARK    2  A    between atoms: C11_16  and  C12_17 
ROOT
HETATM    1  C1  UNL     1      24.945   2.788  52.302  1.00  0.00     0.319 C 
HETATM    2  N1  UNL     1      25.624   1.592  52.812  1.00  0.00     0.128 N 
HETATM    3  C2  UNL     1      26.745   2.468  53.386  1.00  0.00     0.581 A 
HETATM    4  O1  UNL     1      26.580   1.360  53.225  1.00  0.00    -0.114 OA
HETATM    5  N2  UNL     1      28.073   1.923  53.923  1.00  0.00     0.174 N 
HETATM    6  C3  UNL     1      29.382   1.313  54.439  1.00  0.00     0.431 A 
HETATM    7  O2  UNL     1      28.930   2.417  54.512  1.00  0.00    -0.130 OA
HETATM    8  C4  UNL     1      29.393   0.009  54.061  1.00  0.00    -0.025 C 
HETATM    9  C5  UNL     1      29.382  -1.027  53.751  1.00  0.00    -0.087 C 
HETATM   10  C6  UNL     1      29.345  -2.299  53.363  1.00  0.00     0.073 A 
HETATM   11  O3  UNL     1      28.666  -3.345  52.833  1.00  0.00     0.000 OA
HETATM   12  C7  UNL     1      28.037  -1.977  53.029  1.00  0.00     0.041 A 
HETATM   13  C8  UNL     1      26.604  -1.762  52.625  1.00  0.00    -0.021 C 
HETATM   14  C9  UNL     1      25.546  -0.930  52.514  1.00  0.00     0.006 C 
HETATM   15  C10 UNL     1      24.860   0.299  52.631  1.00  0.00     0.256 C 
HETATM   16  H4  UNL     1      27.960   2.959  54.057  1.00  0.00     0.330 HD
HETATM   17  H5  UNL     1      29.121  -4.265  52.943  1.00  0.00     0.000 HD
ENDROOT
BRANCH  15  18
HETATM   18  C11 UNL     1      23.917   0.223  53.875  1.00  0.00     0.079 C 
BRANCH  18  19
HETATM   19  C12 UNL     1      22.547   0.144  53.389  1.00  0.00    -0.056 A 
HETATM   20  C13 UNL     1      21.564  -0.212  54.257  1.00  0.00     0.007 A 
HETATM   21  C14 UNL     1      20.250  -0.310  53.871  1.00  0.00     0.001 A 
HETATM   22  C15 UNL     1      19.886  -0.041  52.556  1.00  0.00     0.000 A 
HETATM   23  C16 UNL     1      20.882   0.326  51.651  1.00  0.00     0.001 A 
HETATM   24  C17 UNL     1      22.197   0.414  52.080  1.00  0.00     0.007 A 
ENDBRANCH  18  19
ENDBRANCH  15  18
TORSDOF 2
ENDMDL
MODEL 2
REMARK VINA RESULT:      -9.3      2.374      6.676
REMARK  2 active torsions:
REMARK  status: ('A' for Active; 'I' for Inactive)
REMARK    1  A    between atoms: C10_15  and  C11_16 
REMARK    2  A    between atoms: C11_16  and  C12_17 
ROOT
HETATM    1  C1  UNL     1      25.728   2.623  51.602  1.00  0.00     0.319 C 
HETATM    2  N1  UNL     1      24.826   1.525  51.963  1.00  0.00     0.128 N 
HETATM    3  C2  UNL     1      23.816   2.005  50.912  1.00  0.00     0.581 A 
HETATM    4  O1  UNL     1      23.814   1.255  51.760  1.00  0.00    -0.114 OA
HETATM    5  N2  UNL     1      22.377   1.488  50.803  1.00  0.00     0.174 N 
HETATM    6  C3  UNL     1      20.948   0.934  50.753  1.00  0.00     0.431 A 
HETATM    7  O2  UNL     1      21.565   1.627  49.999  1.00  0.00    -0.130 OA
HETATM    8  C4  UNL     1      20.759   0.209  51.886  1.00  0.00    -0.025 C 
HETATM    9  C5  UNL     1      20.629  -0.363  52.794  1.00  0.00    -0.087 C 
HETATM   10  C6  UNL     1      20.494  -1.065  53.916  1.00  0.00     0.073 A 
HETATM   11  O3  UNL     1      21.038  -1.622  55.026  1.00  0.00     0.000 OA
HETATM   12  C7  UNL     1      21.860  -0.842  54.014  1.00  0.00     0.041 A 
HETATM   13  C8  UNL     1      23.338  -0.675  54.241  1.00  0.00    -0.021 C 
HETATM   14  C9  UNL     1      24.522  -0.172  53.829  1.00  0.00     0.006 C 
HETATM   15  C10 UNL     1      25.384   0.546  52.971  1.00  0.00     0.256 C 
HETATM   16  H4  UNL     1      22.643   2.153  50.034  1.00  0.00     0.330 HD
HETATM   17  H5  UNL     1      20.433  -2.297  55.520  1.00  0.00     0.000 HD
ENDROOT
BRANCH  15  18
HETATM   18  C11 UNL     1      26.194  -0.480  52.113  1.00  0.00     0.079 C 
BRANCH  18  19
HETATM   19  C12 UNL     1      27.512  -0.621  52.718  1.00  0.00    -0.056 A 
HETATM   20  C13 UNL     1      28.072  -1.857  52.785  1.00  0.00     0.007 A 
HETATM   21  C14 UNL     1      29.309  -2.068  53.343  1.00  0.00     0.001 A 
HETATM   22  C15 UNL     1      30.032  -1.000  53.863  1.00  0.00     0.000 A 
HETATM   23  C16 UNL     1      29.472   0.276  53.804  1.00  0.00     0.001 A 
HETATM   24  C17 UNL     1      28.221   0.448  53.232  1.00  0.00     0.007 A 
ENDBRANCH  18  19
ENDBRANCH  15  18
TORSDOF 2
ENDMDL
MODEL 3
REMARK VINA RESULT:      -8.8      3.218      5.951
REMARK  2 active torsions:
REMARK  status: ('A' for Active; 'I' for Inactive)
REMARK    1  A    between atoms: C10_15  and  C11_16 
REMARK    2  A    between atoms: C11_16  and  C12_17 
ROOT
HETATM    1  C1  UNL     1      26.545   1.355  52.553  1.00  0.00     0.319 C 
HETATM    2  N1  UNL     1      25.712   2.410  51.966  1.00  0.00     0.128 N 
HETATM    3  C2  UNL     1      26.777   2.657  50.889  1.00  0.00     0.581 A 
HETATM    4  O1  UNL     1      25.836   3.180  51.238  1.00  0.00    -0.114 OA
HETATM    5  N2  UNL     1      26.777   3.859  49.938  1.00  0.00     0.174 N 
HETATM    6  C3  UNL     1      26.720   5.087  49.023  1.00  0.00     0.431 A 
HETATM    7  O2  UNL     1      27.397   4.102  49.000  1.00  0.00    -0.130 OA
HETATM    8  C4  UNL     1      25.768   5.917  49.522  1.00  0.00    -0.025 C 
HETATM    9  C5  UNL     1      25.006   6.563  49.936  1.00  0.00    -0.087 C 
HETATM   10  C6  UNL     1      24.061   7.339  50.460  1.00  0.00     0.073 A 
HETATM   11  O3  UNL     1      23.048   7.523  51.342  1.00  0.00     0.000 OA
HETATM   12  C7  UNL     1      23.822   6.220  51.245  1.00  0.00     0.041 A 
HETATM   13  C8  UNL     1      23.460   5.081  52.158  1.00  0.00    -0.021 C 
HETATM   14  C9  UNL     1      23.688   3.818  52.579  1.00  0.00     0.006 C 
HETATM   15  C10 UNL     1      24.346   2.568  52.595  1.00  0.00     0.256 C 
HETATM   16  H4  UNL     1      27.537   3.163  49.734  1.00  0.00     0.330 HD
HETATM   17  H5  UNL     1      22.466   8.359  51.173  1.00  0.00     0.000 HD
ENDROOT
BRANCH  15  18
HETATM   18  C11 UNL     1      23.449   1.527  51.850  1.00  0.00     0.079 C 
BRANCH  18  19
HETATM   19  C12 UNL     1      22.721   0.767  52.857  1.00  0.00    -0.056 A 
HETATM   20  C13 UNL     1      23.372  -0.218  53.530  1.00  0.00     0.007 A 
HETATM   21  C14 UNL     1      22.752  -0.978  54.491  1.00  0.00     0.001 A 
HETATM   22  C15 UNL     1      21.417  -0.752  54.806  1.00  0.00     0.000 A 
HETATM   23  C16 UNL     1      20.733   0.256  54.125  1.00  0.00     0.001 A 
HETATM   24  C17 UNL     1      21.394   1.001  53.162  1.00  0.00     0.007 A 
ENDBRANCH  18  19
ENDBRANCH  15  18
TORSDOF 2
ENDMDL
MODEL 4
REMARK VINA RESULT:      -8.7      2.827      6.536
REMARK  2 active torsions:
REMARK  status: ('A' for Active; 'I' for Inactive)
REMARK    1  A    between atoms: C10_15  and  C11_16 
REMARK    2  A    between atoms: C11_16  and  C12_17 
ROOT
HETATM    1  C1  UNL     1      23.431   0.407  52.799  1.00  0.00     0.319 C 
HETATM    2  N1  UNL     1      24.275   1.503  52.312  1.00  0.00     0.128 N 
HETATM    3  C2  UNL     1      23.161   2.508  52.631  1.00  0.00     0.581 A 
HETATM    4  O1  UNL     1      24.144   2.534  52.071  1.00  0.00    -0.114 OA
HETATM    5  N2  UNL     1      23.160   3.969  52.165  1.00  0.00     0.174 N 
HETATM    6  C3  UNL     1      23.219   5.415  51.662  1.00  0.00     0.431 A 
HETATM    7  O2  UNL     1      22.497   4.868  52.442  1.00  0.00    -0.130 OA
HETATM    8  C4  UNL     1      24.236   5.488  50.765  1.00  0.00    -0.025 C 
HETATM    9  C5  UNL     1      25.050   5.524  50.055  1.00  0.00    -0.087 C 
HETATM   10  C6  UNL     1      26.059   5.546  49.188  1.00  0.00     0.073 A 
HETATM   11  O3  UNL     1      27.130   4.942  48.617  1.00  0.00     0.000 OA
HETATM   12  C7  UNL     1      26.292   4.275  49.694  1.00  0.00     0.041 A 
HETATM   13  C8  UNL     1      26.656   2.890  50.155  1.00  0.00    -0.021 C 
HETATM   14  C9  UNL     1      26.395   1.830  50.950  1.00  0.00     0.006 C 
HETATM   15  C10 UNL     1      25.682   1.102  51.929  1.00  0.00     0.256 C 
HETATM   16  H4  UNL     1      22.358   3.731  52.801  1.00  0.00     0.330 HD
HETATM   17  H5  UNL     1      27.739   5.563  48.061  1.00  0.00     0.000 HD
ENDROOT
BRANCH  15  18
HETATM   18  C11 UNL     1      26.485   1.159  53.269  1.00  0.00     0.079 C 
BRANCH  18  19
HETATM   19  C12 UNL     1      27.450   0.068  53.253  1.00  0.00    -0.056 A 
HETATM   20  C13 UNL     1      27.023  -1.179  52.924  1.00  0.00     0.007 A 
HETATM   21  C14 UNL     1      27.874  -2.256  52.890  1.00  0.00     0.001 A 
HETATM   22  C15 UNL     1      29.220  -2.093  53.198  1.00  0.00     0.000 A 
HETATM   23  C16 UNL     1      29.676  -0.819  53.538  1.00  0.00     0.001 A 
HETATM   24  C17 UNL     1      28.786   0.243  53.560  1.00  0.00     0.007 A 
ENDBRANCH  18  19
ENDBRANCH  15  18
TORSDOF 2
ENDMDL
MODEL 5
REMARK VINA RESULT:      -8.7      2.766      6.170
REMARK  2 active torsions:
REMARK  status: ('A' for Active; 'I' for Inactive)
REMARK    1  A    between atoms: C10_15  and  C11_16 
REMARK    2  A    between atoms: C11_16  and  C12_17 
ROOT
HETATM    1  C1  UNL     1      26.804   0.231  52.029  1.00  0.00     0.319 C 
HETATM    2  N1  UNL     1      25.422   0.435  52.478  1.00  0.00     0.128 N 
HETATM    3  C2  UNL     1      25.700  -0.408  53.730  1.00  0.00     0.581 A 
HETATM    4  O1  UNL     1      24.784   0.029  53.230  1.00  0.00    -0.114 OA
HETATM    5  N2  UNL     1      24.614  -0.913  54.686  1.00  0.00     0.174 N 
HETATM    6  C3  UNL     1      23.479  -1.391  55.598  1.00  0.00     0.431 A 
HETATM    7  O2  UNL     1      24.667  -1.410  55.723  1.00  0.00    -0.130 OA
HETATM    8  C4  UNL     1      22.311  -1.136  54.953  1.00  0.00    -0.025 C 
HETATM    9  C5  UNL     1      21.393  -0.924  54.423  1.00  0.00    -0.087 C 
HETATM   10  C6  UNL     1      20.276  -0.650  53.753  1.00  0.00     0.073 A 
HETATM   11  O3  UNL     1      19.648  -0.054  52.711  1.00  0.00     0.000 OA
HETATM   12  C7  UNL     1      21.150   0.033  52.920  1.00  0.00     0.041 A 
HETATM   13  C8  UNL     1      21.985   0.809  51.938  1.00  0.00    -0.021 C 
HETATM   14  C9  UNL     1      23.202   1.242  51.543  1.00  0.00     0.006 C 
HETATM   15  C10 UNL     1      24.606   1.377  51.622  1.00  0.00     0.256 C 
HETATM   16  H4  UNL     1      25.590  -1.129  55.009  1.00  0.00     0.330 HD
HETATM   17  H5  UNL     1      18.620  -0.002  52.789  1.00  0.00     0.000 HD
ENDROOT
BRANCH  15  18
HETATM   18  C11 UNL     1      24.935   2.800  52.180  1.00  0.00     0.079 C 
BRANCH  18  19
HETATM   19  C12 UNL     1      25.314   3.641  51.053  1.00  0.00    -0.056 A 
HETATM   20  C13 UNL     1      26.442   3.337  50.360  1.00  0.00     0.007 A 
HETATM   21  C14 UNL     1      26.864   4.085  49.288  1.00  0.00     0.001 A 
HETATM   22  C15 UNL     1      26.131   5.193  48.878  1.00  0.00     0.000 A 
HETATM   23  C16 UNL     1      24.970   5.520  49.578  1.00  0.00     0.001 A 
HETATM   24  C17 UNL     1      24.578   4.740  50.655  1.00  0.00     0.007 A 
ENDBRANCH  18  19
ENDBRANCH  15  18
TORSDOF 2
ENDMDL
MODEL 6
REMARK VINA RESULT:      -8.5      3.290      6.299
REMARK  2 active torsions:
REMARK  status: ('A' for Active; 'I' for Inactive)
REMARK    1  A    between atoms: C10_15  and  C11_16 
REMARK    2  A    between atoms: C11_16  and  C12_17 
ROOT
HETATM    1  C1  UNL     1      22.002   4.503  51.637  1.00  0.00     0.319 C 
HETATM    2  N1  UNL     1      22.756   3.271  51.895  1.00  0.00     0.128 N 
HETATM    3  C2  UNL     1      21.446   2.522  52.171  1.00  0.00     0.581 A 
HETATM    4  O1  UNL     1      22.549   2.306  52.300  1.00  0.00    -0.114 OA
HETATM    5  N2  UNL     1      21.369   1.121  52.787  1.00  0.00     0.174 N 
HETATM    6  C3  UNL     1      21.363  -0.279  53.412  1.00  0.00     0.431 A 
HETATM    7  O2  UNL     1      20.498   0.379  52.913  1.00  0.00    -0.130 OA
HETATM    8  C4  UNL     1      22.626  -0.533  53.841  1.00  0.00    -0.025 C 
HETATM    9  C5  UNL     1      23.638  -0.715  54.174  1.00  0.00    -0.087 C 
HETATM   10  C6  UNL     1      24.891  -0.919  54.572  1.00  0.00     0.073 A 
HETATM   11  O3  UNL     1      26.193  -0.541  54.594  1.00  0.00     0.000 OA
HETATM   12  C7  UNL     1      25.125   0.244  53.853  1.00  0.00     0.041 A 
HETATM   13  C8  UNL     1      25.514   1.493  53.110  1.00  0.00    -0.021 C 
HETATM   14  C9  UNL     1      25.149   2.547  52.349  1.00  0.00     0.006 C 
HETATM   15  C10 UNL     1      24.244   3.369  51.641  1.00  0.00     0.256 C 
HETATM   16  H4  UNL     1      20.435   1.501  52.491  1.00  0.00     0.330 HD
HETATM   17  H5  UNL     1      26.852  -1.255  54.943  1.00  0.00     0.000 HD
ENDROOT
BRANCH  15  18
HETATM   18  C11 UNL     1      24.401   3.076  50.113  1.00  0.00     0.079 C 
BRANCH  18  19
HETATM   19  C12 UNL     1      25.348   4.042  49.572  1.00  0.00    -0.056 A 
HETATM   20  C13 UNL     1      24.915   5.301  49.303  1.00  0.00     0.007 A 
HETATM   21  C14 UNL     1      25.748   6.265  48.789  1.00  0.00     0.001 A 
HETATM   22  C15 UNL     1      27.081   5.968  48.529  1.00  0.00     0.000 A 
HETATM   23  C16 UNL     1      27.543   4.680  48.799  1.00  0.00     0.001 A 
HETATM   24  C17 UNL     1      26.671   3.736  49.317  1.00  0.00     0.007 A 
ENDBRANCH  18  19
ENDBRANCH  15  18
TORSDOF 2
ENDMDL
MODEL 7
REMARK VINA RESULT:      -8.4      2.897      6.810
REMARK  2 active torsions:
REMARK  status: ('A' for Active; 'I' for Inactive)
REMARK    1  A    between atoms: C10_15  and  C11_16 
REMARK    2  A    between atoms: C11_16  and  C12_17 
ROOT
HETATM    1  C1  UNL     1      24.174   3.869  51.896  1.00  0.00     0.319 C 
HETATM    2  N1  UNL     1      23.599   2.541  52.139  1.00  0.00     0.128 N 
HETATM    3  C2  UNL     1      22.404   2.890  51.242  1.00  0.00     0.581 A 
HETATM    4  O1  UNL     1      22.665   2.057  51.962  1.00  0.00    -0.114 OA
HETATM    5  N2  UNL     1      21.126   2.050  51.146  1.00  0.00     0.174 N 
HETATM    6  C3  UNL     1      19.873   1.168  51.102  1.00  0.00     0.431 A 
HETATM    7  O2  UNL     1      20.228   2.088  50.427  1.00  0.00    -0.130 OA
HETATM    8  C4  UNL     1      19.976   0.273  52.119  1.00  0.00    -0.025 C 
HETATM    9  C5  UNL     1      20.077  -0.430  52.934  1.00  0.00    -0.087 C 
HETATM   10  C6  UNL     1      20.226  -1.288  53.940  1.00  0.00     0.073 A 
HETATM   11  O3  UNL     1      20.994  -1.834  54.913  1.00  0.00     0.000 OA
HETATM   12  C7  UNL     1      21.502  -0.745  53.984  1.00  0.00     0.041 A 
HETATM   13  C8  UNL     1      22.913  -0.246  54.139  1.00  0.00    -0.021 C 
HETATM   14  C9  UNL     1      23.896   0.588  53.736  1.00  0.00     0.006 C 
HETATM   15  C10 UNL     1      24.473   1.607  52.946  1.00  0.00     0.256 C 
HETATM   16  H4  UNL     1      21.149   2.857  50.473  1.00  0.00     0.330 HD
HETATM   17  H5  UNL     1      20.620  -2.700  55.334  1.00  0.00     0.000 HD
ENDROOT
BRANCH  15  18
HETATM   18  C11 UNL     1      25.414   0.941  51.890  1.00  0.00     0.079 C 
BRANCH  18  19
HETATM   19  C12 UNL     1      26.722   0.772  52.507  1.00  0.00    -0.056 A 
HETATM   20  C13 UNL     1      27.417   1.878  52.880  1.00  0.00     0.007 A 
HETATM   21  C14 UNL     1      28.657   1.799  53.465  1.00  0.00     0.001 A 
HETATM   22  C15 UNL     1      29.242   0.558  53.695  1.00  0.00     0.000 A 
HETATM   23  C16 UNL     1      28.543  -0.589  53.318  1.00  0.00     0.001 A 
HETATM   24  C17 UNL     1      27.294  -0.466  52.731  1.00  0.00     0.007 A 
ENDBRANCH  18  19
ENDBRANCH  15  18
TORSDOF 2
ENDMDL
MODEL 8
REMARK VINA RESULT:      -8.4      3.915      7.174
REMARK  2 active torsions:
REMARK  status: ('A' for Active; 'I' for Inactive)
REMARK    1  A    between atoms: C10_15  and  C11_16 
REMARK    2  A    between atoms: C11_16  and  C12_17 
ROOT
HETATM    1  C1  UNL     1      23.562   6.221  51.547  1.00  0.00     0.319 C 
HETATM    2  N1  UNL     1      23.495   4.755  51.539  1.00  0.00     0.128 N 
HETATM    3  C2  UNL     1      21.992   4.819  51.842  1.00  0.00     0.581 A 
HETATM    4  O1  UNL     1      22.784   4.011  51.818  1.00  0.00    -0.114 OA
HETATM    5  N2  UNL     1      21.144   3.609  52.250  1.00  0.00     0.174 N 
HETATM    6  C3  UNL     1      20.357   2.360  52.660  1.00  0.00     0.431 A 
HETATM    7  O2  UNL     1      20.008   3.463  52.359  1.00  0.00    -0.130 OA
HETATM    8  C4  UNL     1      21.262   1.378  52.909  1.00  0.00    -0.025 C 
HETATM    9  C5  UNL     1      21.998   0.610  53.101  1.00  0.00    -0.087 C 
HETATM   10  C6  UNL     1      22.922  -0.320  53.328  1.00  0.00     0.073 A 
HETATM   11  O3  UNL     1      24.211  -0.734  53.265  1.00  0.00     0.000 OA
HETATM   12  C7  UNL     1      23.765   0.629  52.767  1.00  0.00     0.041 A 
HETATM   13  C8  UNL     1      24.784   1.566  52.177  1.00  0.00    -0.021 C 
HETATM   14  C9  UNL     1      25.070   2.763  51.622  1.00  0.00     0.006 C 
HETATM   15  C10 UNL     1      24.779   4.061  51.144  1.00  0.00     0.256 C 
HETATM   16  H4  UNL     1      20.584   4.487  52.116  1.00  0.00     0.330 HD
HETATM   17  H5  UNL     1      24.357  -1.742  53.434  1.00  0.00     0.000 HD
ENDROOT
BRANCH  15  18
HETATM   18  C11 UNL     1      24.734   4.013  49.582  1.00  0.00     0.079 C 
BRANCH  18  19
HETATM   19  C12 UNL     1      25.823   4.840  49.082  1.00  0.00    -0.056 A 
HETATM   20  C13 UNL     1      27.071   4.306  49.012  1.00  0.00     0.007 A 
HETATM   21  C14 UNL     1      28.148   5.025  48.553  1.00  0.00     0.001 A 
HETATM   22  C15 UNL     1      27.983   6.343  48.142  1.00  0.00     0.000 A 
HETATM   23  C16 UNL     1      26.709   6.908  48.208  1.00  0.00     0.001 A 
HETATM   24  C17 UNL     1      25.648   6.149  48.676  1.00  0.00     0.007 A 
ENDBRANCH  18  19
ENDBRANCH  15  18
TORSDOF 2
ENDMDL
MODEL 9
REMARK VINA RESULT:      -7.9      4.645      6.738
REMARK  2 active torsions:
REMARK  status: ('A' for Active; 'I' for Inactive)
REMARK    1  A    between atoms: C10_15  and  C11_16 
REMARK    2  A    between atoms: C11_16  and  C12_17 
ROOT
HETATM    1  C1  UNL     1      21.982   3.534  49.227  1.00  0.00     0.319 C 
HETATM    2  N1  UNL     1      23.334   4.075  49.404  1.00  0.00     0.128 N 
HETATM    3  C2  UNL     1      22.864   5.435  48.870  1.00  0.00     0.581 A 
HETATM    4  O1  UNL     1      23.860   4.956  49.112  1.00  0.00    -0.114 OA
HETATM    5  N2  UNL     1      23.805   6.582  48.488  1.00  0.00     0.174 N 
HETATM    6  C3  UNL     1      24.803   7.686  48.118  1.00  0.00     0.431 A 
HETATM    7  O2  UNL     1      23.612   7.686  48.226  1.00  0.00    -0.130 OA
HETATM    8  C4  UNL     1      26.042   7.129  48.132  1.00  0.00    -0.025 C 
HETATM    9  C5  UNL     1      27.018   6.666  48.149  1.00  0.00    -0.087 C 
HETATM   10  C6  UNL     1      28.211   6.077  48.181  1.00  0.00     0.073 A 
HETATM   11  O3  UNL     1      28.984   5.007  48.489  1.00  0.00     0.000 OA
HETATM   12  C7  UNL     1      27.487   5.035  48.744  1.00  0.00     0.041 A 
HETATM   13  C8  UNL     1      26.825   3.836  49.363  1.00  0.00    -0.021 C 
HETATM   14  C9  UNL     1      25.698   3.235  49.805  1.00  0.00     0.006 C 
HETATM   15  C10 UNL     1      24.314   3.137  50.072  1.00  0.00     0.256 C 
HETATM   16  H4  UNL     1      22.788   6.837  48.428  1.00  0.00     0.330 HD
HETATM   17  H5  UNL     1      30.002   5.181  48.469  1.00  0.00     0.000 HD
ENDROOT
BRANCH  15  18
HETATM   18  C11 UNL     1      24.089   3.359  51.602  1.00  0.00     0.079 C 
BRANCH  18  19
HETATM   19  C12 UNL     1      23.894   2.053  52.216  1.00  0.00    -0.056 A 
HETATM   20  C13 UNL     1      24.922   1.495  52.908  1.00  0.00     0.007 A 
HETATM   21  C14 UNL     1      24.814   0.266  53.512  1.00  0.00     0.001 A 
HETATM   22  C15 UNL     1      23.626  -0.451  53.427  1.00  0.00     0.000 A 
HETATM   23  C16 UNL     1      22.560   0.106  52.719  1.00  0.00     0.001 A 
HETATM   24  C17 UNL     1      22.709   1.349  52.125  1.00  0.00     0.007 A 
ENDBRANCH  18  19
ENDBRANCH  15  18
TORSDOF 2
ENDMDL
