MODEL 1
REMARK VINA RESULT:      -7.8      0.000      0.000
REMARK  4 active torsions:
REMARK  status: ('A' for Active; 'I' for Inactive)
REMARK    1  A    between atoms: O1_2  and  C2_3 
REMARK    2  A    between atoms: C2_3  and  C3_5 
REMARK    3  A    between atoms: C14_16  and  P1_17 
REMARK    4  A    between atoms: P1_17  and  O3_18 
ROOT
HETATM    1  C3  UNL     1      21.843   5.773  48.886  1.00  0.00     0.054 C 
HETATM    2  C4  UNL     1      21.113   5.659  47.747  1.00  0.00    -0.038 C 
HETATM    3  C5  UNL     1      19.806   6.367  47.755  1.00  0.00     0.050 C 
HETATM    4  C6  UNL     1      21.592   4.932  46.695  1.00  0.00    -0.036 A 
HETATM    5  C7  UNL     1      22.228   4.880  45.432  1.00  0.00     0.002 A 
HETATM    6  C8  UNL     1      21.803   3.658  46.089  1.00  0.00     0.042 A 
HETATM    7  C9  UNL     1      21.245   2.858  47.070  1.00  0.00    -0.007 C 
HETATM    8  C10 UNL     1      21.989   2.549  48.192  1.00  0.00    -0.002 C 
HETATM    9  C11 UNL     1      23.081   3.315  48.546  1.00  0.00     0.008 C 
HETATM   10  C12 UNL     1      23.757   4.317  49.245  1.00  0.00    -0.042 C 
HETATM   11  C13 UNL     1      23.173   5.591  49.219  1.00  0.00    -0.017 C 
HETATM   12  C14 UNL     1      23.729   6.905  49.500  1.00  0.00     0.147 C 
HETATM   13  C15 UNL     1      24.858   7.270  48.567  1.00  0.00     0.175 C 
HETATM   14  O4  UNL     1      24.729   8.241  47.744  1.00  0.00    -0.291 OA
HETATM   15  C16 UNL     1      26.188   6.678  48.405  1.00  0.00     0.025 A 
HETATM   16  C17 UNL     1      26.981   7.567  47.716  1.00  0.00     0.016 A 
HETATM   17  C18 UNL     1      28.301   7.266  47.419  1.00  0.00     0.001 A 
HETATM   18  C19 UNL     1      28.838   6.053  47.818  1.00  0.00     0.001 A 
HETATM   19  C20 UNL     1      28.073   5.126  48.517  1.00  0.00     0.016 A 
HETATM   20  C21 UNL     1      26.766   5.483  48.782  1.00  0.00     0.024 A 
HETATM   21  C22 UNL     1      26.234   4.320  49.515  1.00  0.00     0.164 C 
HETATM   22  O5  UNL     1      27.153   3.619  50.029  1.00  0.00    -0.292 OA
HETATM   23  C23 UNL     1      24.941   3.720  49.832  1.00  0.00     0.123 C 
ENDROOT
BRANCH   1  24
HETATM   24  C2  UNL     1      21.363   6.158  50.207  1.00  0.00     0.294 C 
HETATM   25  O2  UNL     1      21.022   7.362  50.386  1.00  0.00    -0.259 OA
BRANCH  24  26
HETATM   26  O1  UNL     1      21.192   5.435  51.384  1.00  0.00    -0.322 OA
HETATM   27  C1  UNL     1      20.588   4.154  51.393  1.00  0.00     0.213 C 
ENDBRANCH  24  26
ENDBRANCH   1  24
BRANCH  12  28
HETATM   28  P1  UNL     1      24.257   7.183  51.251  1.00  0.00     0.025 P 
HETATM   29  H12 UNL     1      23.551   8.328  51.798  1.00  0.00     0.088 HD
BRANCH  28  30
HETATM   30  O3  UNL     1      23.854   5.768  52.181  1.00  0.00    -0.375 OA
HETATM   31  H13 UNL     1      22.868   5.629  52.237  1.00  0.00     0.214 HD
ENDBRANCH  28  30
ENDBRANCH  12  28
TORSDOF 4
ENDMDL
MODEL 2
REMARK VINA RESULT:      -7.8      2.856      4.827
REMARK  4 active torsions:
REMARK  status: ('A' for Active; 'I' for Inactive)
REMARK    1  A    between atoms: O1_2  and  C2_3 
REMARK    2  A    between atoms: C2_3  and  C3_5 
REMARK    3  A    between atoms: C14_16  and  P1_17 
REMARK    4  A    between atoms: P1_17  and  O3_18 
ROOT
HETATM    1  C3  UNL     1      22.402   4.537  49.804  1.00  0.00     0.054 C 
HETATM    2  C4  UNL     1      22.333   4.382  48.457  1.00  0.00    -0.038 C 
HETATM    3  C5  UNL     1      22.463   5.635  47.665  1.00  0.00     0.050 C 
HETATM    4  C6  UNL     1      22.157   3.141  47.916  1.00  0.00    -0.036 A 
HETATM    5  C7  UNL     1      22.695   1.989  47.293  1.00  0.00     0.002 A 
HETATM    6  C8  UNL     1      21.274   2.073  47.578  1.00  0.00     0.042 A 
HETATM    7  C9  UNL     1      20.089   2.621  48.035  1.00  0.00    -0.007 C 
HETATM    8  C10 UNL     1      19.793   2.560  49.382  1.00  0.00    -0.002 C 
HETATM    9  C11 UNL     1      20.788   2.340  50.312  1.00  0.00     0.008 C 
HETATM   10  C12 UNL     1      21.741   2.709  51.264  1.00  0.00    -0.042 C 
HETATM   11  C13 UNL     1      22.654   3.698  50.874  1.00  0.00    -0.017 C 
HETATM   12  C14 UNL     1      23.951   4.072  51.415  1.00  0.00     0.147 C 
HETATM   13  C15 UNL     1      24.955   2.945  51.347  1.00  0.00     0.175 C 
HETATM   14  O4  UNL     1      25.988   3.044  50.599  1.00  0.00    -0.291 OA
HETATM   15  C16 UNL     1      24.979   1.649  52.029  1.00  0.00     0.025 A 
HETATM   16  C17 UNL     1      26.252   1.135  51.945  1.00  0.00     0.016 A 
HETATM   17  C18 UNL     1      26.566  -0.092  52.508  1.00  0.00     0.001 A 
HETATM   18  C19 UNL     1      25.588  -0.818  53.167  1.00  0.00     0.001 A 
HETATM   19  C20 UNL     1      24.289  -0.337  53.275  1.00  0.00     0.016 A 
HETATM   20  C21 UNL     1      24.038   0.890  52.694  1.00  0.00     0.024 A 
HETATM   21  C22 UNL     1      22.608   1.117  52.974  1.00  0.00     0.164 C 
HETATM   22  O5  UNL     1      22.197   0.422  53.947  1.00  0.00    -0.292 OA
HETATM   23  C23 UNL     1      21.502   1.916  52.454  1.00  0.00     0.123 C 
ENDROOT
BRANCH   1  24
HETATM   24  C2  UNL     1      22.203   5.765  50.563  1.00  0.00     0.294 C 
HETATM   25  O2  UNL     1      21.105   5.915  51.172  1.00  0.00    -0.259 OA
BRANCH  24  26
HETATM   26  O1  UNL     1      23.016   6.875  50.770  1.00  0.00    -0.322 OA
HETATM   27  C1  UNL     1      22.759   8.118  50.143  1.00  0.00     0.213 C 
ENDBRANCH  24  26
ENDBRANCH   1  24
BRANCH  12  28
HETATM   28  P1  UNL     1      23.922   4.774  53.127  1.00  0.00     0.025 P 
HETATM   29  H12 UNL     1      24.822   4.017  53.980  1.00  0.00     0.088 HD
BRANCH  28  30
HETATM   30  O3  UNL     1      24.461   6.427  53.054  1.00  0.00    -0.375 OA
HETATM   31  H13 UNL     1      23.787   7.054  53.438  1.00  0.00     0.214 HD
ENDBRANCH  28  30
ENDBRANCH  12  28
TORSDOF 4
ENDMDL
MODEL 3
REMARK VINA RESULT:      -7.3      6.011     10.163
REMARK  4 active torsions:
REMARK  status: ('A' for Active; 'I' for Inactive)
REMARK    1  A    between atoms: O1_2  and  C2_3 
REMARK    2  A    between atoms: C2_3  and  C3_5 
REMARK    3  A    between atoms: C14_16  and  P1_17 
REMARK    4  A    between atoms: P1_17  and  O3_18 
ROOT
HETATM    1  C3  UNL     1      32.022   5.019  47.070  1.00  0.00     0.054 C 
HETATM    2  C4  UNL     1      32.455   3.812  46.623  1.00  0.00    -0.038 C 
HETATM    3  C5  UNL     1      31.435   2.730  46.621  1.00  0.00     0.050 C 
HETATM    4  C6  UNL     1      33.749   3.655  46.215  1.00  0.00    -0.036 A 
HETATM    5  C7  UNL     1      34.702   3.571  45.172  1.00  0.00     0.002 A 
HETATM    6  C8  UNL     1      35.119   3.457  46.557  1.00  0.00     0.042 A 
HETATM    7  C9  UNL     1      34.994   3.415  47.934  1.00  0.00    -0.007 C 
HETATM    8  C10 UNL     1      34.896   4.599  48.638  1.00  0.00    -0.002 C 
HETATM    9  C11 UNL     1      34.524   5.767  48.004  1.00  0.00     0.008 C 
HETATM   10  C12 UNL     1      33.633   6.762  47.595  1.00  0.00    -0.042 C 
HETATM   11  C13 UNL     1      32.467   6.323  46.954  1.00  0.00    -0.017 C 
HETATM   12  C14 UNL     1      31.521   7.025  46.100  1.00  0.00     0.147 C 
HETATM   13  C15 UNL     1      32.161   7.557  44.840  1.00  0.00     0.175 C 
HETATM   14  O4  UNL     1      31.820   7.094  43.697  1.00  0.00    -0.291 OA
HETATM   15  C16 UNL     1      33.183   8.590  44.654  1.00  0.00     0.025 A 
HETATM   16  C17 UNL     1      33.170   8.985  43.336  1.00  0.00     0.016 A 
HETATM   17  C18 UNL     1      34.041   9.958  42.874  1.00  0.00     0.001 A 
HETATM   18  C19 UNL     1      34.943  10.547  43.745  1.00  0.00     0.001 A 
HETATM   19  C20 UNL     1      34.990  10.178  45.084  1.00  0.00     0.016 A 
HETATM   20  C21 UNL     1      34.098   9.203  45.485  1.00  0.00     0.024 A 
HETATM   21  C22 UNL     1      34.392   9.038  46.920  1.00  0.00     0.164 C 
HETATM   22  O5  UNL     1      34.983  10.045  47.405  1.00  0.00    -0.292 OA
HETATM   23  C23 UNL     1      34.204   8.042  47.971  1.00  0.00     0.123 C 
ENDROOT
BRANCH   1  24
HETATM   24  C2  UNL     1      30.842   5.288  47.882  1.00  0.00     0.294 C 
HETATM   25  O2  UNL     1      31.002   5.443  49.127  1.00  0.00    -0.259 OA
BRANCH  24  26
HETATM   26  O1  UNL     1      29.496   5.418  47.555  1.00  0.00    -0.322 OA
HETATM   27  C1  UNL     1      28.471   5.187  48.504  1.00  0.00     0.213 C 
ENDBRANCH  24  26
ENDBRANCH   1  24
BRANCH  12  28
HETATM   28  P1  UNL     1      30.560   8.373  46.925  1.00  0.00     0.025 P 
HETATM   29  H12 UNL     1      30.984   9.662  46.407  1.00  0.00     0.088 HD
BRANCH  28  30
HETATM   30  O3  UNL     1      28.872   8.144  46.571  1.00  0.00    -0.375 OA
HETATM   31  H13 UNL     1      28.612   7.181  46.608  1.00  0.00     0.214 HD
ENDBRANCH  28  30
ENDBRANCH  12  28
TORSDOF 4
ENDMDL
MODEL 4
REMARK VINA RESULT:      -7.1      3.633      6.334
REMARK  4 active torsions:
REMARK  status: ('A' for Active; 'I' for Inactive)
REMARK    1  A    between atoms: O1_2  and  C2_3 
REMARK    2  A    between atoms: C2_3  and  C3_5 
REMARK    3  A    between atoms: C14_16  and  P1_17 
REMARK    4  A    between atoms: P1_17  and  O3_18 
ROOT
HETATM    1  C3  UNL     1      22.070   1.406  51.948  1.00  0.00     0.054 C 
HETATM    2  C4  UNL     1      23.270   0.843  52.239  1.00  0.00    -0.038 C 
HETATM    3  C5  UNL     1      23.206  -0.491  52.893  1.00  0.00     0.050 C 
HETATM    4  C6  UNL     1      24.428   1.498  51.932  1.00  0.00    -0.036 A 
HETATM    5  C7  UNL     1      25.539   1.682  51.075  1.00  0.00     0.002 A 
HETATM    6  C8  UNL     1      25.386   2.501  52.263  1.00  0.00     0.042 A 
HETATM    7  C9  UNL     1      24.809   2.972  53.428  1.00  0.00    -0.007 C 
HETATM    8  C10 UNL     1      23.763   3.869  53.348  1.00  0.00    -0.002 C 
HETATM    9  C11 UNL     1      23.031   3.996  52.184  1.00  0.00     0.008 C 
HETATM   10  C12 UNL     1      21.956   3.753  51.327  1.00  0.00    -0.042 C 
HETATM   11  C13 UNL     1      21.639   2.408  51.098  1.00  0.00    -0.017 C 
HETATM   12  C14 UNL     1      20.867   1.772  50.042  1.00  0.00     0.147 C 
HETATM   13  C15 UNL     1      21.466   1.991  48.673  1.00  0.00     0.175 C 
HETATM   14  O4  UNL     1      21.932   1.004  48.006  1.00  0.00    -0.291 OA
HETATM   15  C16 UNL     1      21.632   3.219  47.892  1.00  0.00     0.025 A 
HETATM   16  C17 UNL     1      21.876   2.874  46.583  1.00  0.00     0.016 A 
HETATM   17  C18 UNL     1      22.074   3.844  45.613  1.00  0.00     0.001 A 
HETATM   18  C19 UNL     1      22.028   5.184  45.959  1.00  0.00     0.001 A 
HETATM   19  C20 UNL     1      21.785   5.577  47.270  1.00  0.00     0.016 A 
HETATM   20  C21 UNL     1      21.596   4.565  48.190  1.00  0.00     0.024 A 
HETATM   21  C22 UNL     1      21.368   5.289  49.454  1.00  0.00     0.164 C 
HETATM   22  O5  UNL     1      20.995   6.481  49.260  1.00  0.00    -0.292 OA
HETATM   23  C23 UNL     1      21.445   5.039  50.891  1.00  0.00     0.123 C 
ENDROOT
BRANCH   1  24
HETATM   24  C2  UNL     1      20.773   1.067  52.521  1.00  0.00     0.294 C 
HETATM   25  O2  UNL     1      20.280   1.853  53.380  1.00  0.00    -0.259 OA
BRANCH  24  26
HETATM   26  O1  UNL     1      19.912  -0.006  52.308  1.00  0.00    -0.322 OA
HETATM   27  C1  UNL     1      19.392  -0.771  53.380  1.00  0.00     0.213 C 
ENDBRANCH  24  26
ENDBRANCH   1  24
BRANCH  12  28
HETATM   28  P1  UNL     1      19.068   2.202  50.007  1.00  0.00     0.025 P 
HETATM   29  H12 UNL     1      18.811   3.140  48.930  1.00  0.00     0.088 HD
BRANCH  28  30
HETATM   30  O3  UNL     1      18.158   0.746  49.724  1.00  0.00    -0.375 OA
HETATM   31  H13 UNL     1      17.175   0.899  49.812  1.00  0.00     0.214 HD
ENDBRANCH  28  30
ENDBRANCH  12  28
TORSDOF 4
ENDMDL
MODEL 5
REMARK VINA RESULT:      -7.0      4.843      6.726
REMARK  4 active torsions:
REMARK  status: ('A' for Active; 'I' for Inactive)
REMARK    1  A    between atoms: O1_2  and  C2_3 
REMARK    2  A    between atoms: C2_3  and  C3_5 
REMARK    3  A    between atoms: C14_16  and  P1_17 
REMARK    4  A    between atoms: P1_17  and  O3_18 
ROOT
HETATM    1  C3  UNL     1      27.559  10.327  46.961  1.00  0.00     0.054 C 
HETATM    2  C4  UNL     1      26.927  10.617  45.795  1.00  0.00    -0.038 C 
HETATM    3  C5  UNL     1      26.580  12.049  45.597  1.00  0.00     0.050 C 
HETATM    4  C6  UNL     1      26.651   9.624  44.899  1.00  0.00    -0.036 A 
HETATM    5  C7  UNL     1      26.971   8.924  43.711  1.00  0.00     0.002 A 
HETATM    6  C8  UNL     1      25.815   8.540  44.500  1.00  0.00     0.042 A 
HETATM    7  C9  UNL     1      24.900   8.581  45.537  1.00  0.00    -0.007 C 
HETATM    8  C10 UNL     1      25.227   8.002  46.747  1.00  0.00    -0.002 C 
HETATM    9  C11 UNL     1      26.544   7.750  47.074  1.00  0.00     0.008 C 
HETATM   10  C12 UNL     1      27.776   8.014  47.675  1.00  0.00    -0.042 C 
HETATM   11  C13 UNL     1      28.330   9.276  47.422  1.00  0.00    -0.017 C 
HETATM   12  C14 UNL     1      29.692   9.769  47.556  1.00  0.00     0.147 C 
HETATM   13  C15 UNL     1      30.668   9.027  46.673  1.00  0.00     0.175 C 
HETATM   14  O4  UNL     1      31.259   9.631  45.713  1.00  0.00    -0.291 OA
HETATM   15  C16 UNL     1      31.108   7.631  46.705  1.00  0.00     0.025 A 
HETATM   16  C17 UNL     1      32.261   7.519  45.962  1.00  0.00     0.016 A 
HETATM   17  C18 UNL     1      32.903   6.300  45.818  1.00  0.00     0.001 A 
HETATM   18  C19 UNL     1      32.383   5.171  46.427  1.00  0.00     0.001 A 
HETATM   19  C20 UNL     1      31.221   5.237  47.187  1.00  0.00     0.016 A 
HETATM   20  C21 UNL     1      30.627   6.480  47.294  1.00  0.00     0.024 A 
HETATM   21  C22 UNL     1      29.447   6.224  48.140  1.00  0.00     0.164 C 
HETATM   22  O5  UNL     1      29.568   5.165  48.820  1.00  0.00    -0.292 OA
HETATM   23  C23 UNL     1      28.155   6.837  48.434  1.00  0.00     0.123 C 
ENDROOT
BRANCH   1  24
HETATM   24  C2  UNL     1      27.595  11.139  48.171  1.00  0.00     0.294 C 
HETATM   25  O2  UNL     1      26.784  10.857  49.098  1.00  0.00    -0.259 OA
BRANCH  24  26
HETATM   26  O1  UNL     1      28.382  12.225  48.541  1.00  0.00    -0.322 OA
HETATM   27  C1  UNL     1      27.849  13.532  48.651  1.00  0.00     0.213 C 
ENDBRANCH  24  26
ENDBRANCH   1  24
BRANCH  12  28
HETATM   28  P1  UNL     1      30.344   9.831  49.286  1.00  0.00     0.025 P 
HETATM   29  H12 UNL     1      30.952  11.126  49.533  1.00  0.00     0.088 HD
BRANCH  28  30
HETATM   30  O3  UNL     1      29.015   9.606  50.386  1.00  0.00    -0.375 OA
HETATM   31  H13 UNL     1      28.618  10.476  50.671  1.00  0.00     0.214 HD
ENDBRANCH  28  30
ENDBRANCH  12  28
TORSDOF 4
ENDMDL
MODEL 6
REMARK VINA RESULT:      -7.0      7.650     10.194
REMARK  4 active torsions:
REMARK  status: ('A' for Active; 'I' for Inactive)
REMARK    1  A    between atoms: O1_2  and  C2_3 
REMARK    2  A    between atoms: C2_3  and  C3_5 
REMARK    3  A    between atoms: C14_16  and  P1_17 
REMARK    4  A    between atoms: P1_17  and  O3_18 
ROOT
HETATM    1  C3  UNL     1      31.273   9.563  46.326  1.00  0.00     0.054 C 
HETATM    2  C4  UNL     1      29.927   9.395  46.371  1.00  0.00    -0.038 C 
HETATM    3  C5  UNL     1      29.139  10.343  45.539  1.00  0.00     0.050 C 
HETATM    4  C6  UNL     1      29.383   8.409  47.144  1.00  0.00    -0.036 A 
HETATM    5  C7  UNL     1      28.820   7.116  47.260  1.00  0.00     0.002 A 
HETATM    6  C8  UNL     1      28.977   7.955  48.433  1.00  0.00     0.042 A 
HETATM    7  C9  UNL     1      29.323   9.072  49.173  1.00  0.00    -0.007 C 
HETATM    8  C10 UNL     1      30.639   9.250  49.550  1.00  0.00    -0.002 C 
HETATM    9  C11 UNL     1      31.656   8.587  48.893  1.00  0.00     0.008 C 
HETATM   10  C12 UNL     1      32.685   8.445  47.959  1.00  0.00    -0.042 C 
HETATM   11  C13 UNL     1      32.368   8.777  46.635  1.00  0.00    -0.017 C 
HETATM   12  C14 UNL     1      33.019   8.434  45.380  1.00  0.00     0.147 C 
HETATM   13  C15 UNL     1      33.049   6.945  45.129  1.00  0.00     0.175 C 
HETATM   14  O4  UNL     1      32.394   6.441  44.152  1.00  0.00    -0.291 OA
HETATM   15  C16 UNL     1      33.741   5.873  45.848  1.00  0.00     0.025 A 
HETATM   16  C17 UNL     1      33.773   4.758  45.042  1.00  0.00     0.016 A 
HETATM   17  C18 UNL     1      34.373   3.584  45.470  1.00  0.00     0.001 A 
HETATM   18  C19 UNL     1      34.949   3.524  46.728  1.00  0.00     0.001 A 
HETATM   19  C20 UNL     1      34.938   4.626  47.575  1.00  0.00     0.016 A 
HETATM   20  C21 UNL     1      34.327   5.766  47.092  1.00  0.00     0.024 A 
HETATM   21  C22 UNL     1      34.477   6.730  48.196  1.00  0.00     0.164 C 
HETATM   22  O5  UNL     1      35.416   6.413  48.981  1.00  0.00    -0.292 OA
HETATM   23  C23 UNL     1      33.856   7.965  48.667  1.00  0.00     0.123 C 
ENDROOT
BRANCH   1  24
HETATM   24  C2  UNL     1      32.001  10.749  45.892  1.00  0.00     0.294 C 
HETATM   25  O2  UNL     1      32.581  11.444  46.775  1.00  0.00    -0.259 OA
BRANCH  24  26
HETATM   26  O1  UNL     1      32.204  11.309  44.635  1.00  0.00    -0.322 OA
HETATM   27  C1  UNL     1      31.861  12.654  44.352  1.00  0.00     0.213 C 
ENDBRANCH  24  26
ENDBRANCH   1  24
BRANCH  12  28
HETATM   28  P1  UNL     1      34.715   9.136  45.150  1.00  0.00     0.025 P 
HETATM   29  H12 UNL     1      35.456   9.038  46.395  1.00  0.00     0.088 HD
BRANCH  28  30
HETATM   30  O3  UNL     1      35.534   8.211  43.925  1.00  0.00    -0.375 OA
HETATM   31  H13 UNL     1      35.068   7.349  43.737  1.00  0.00     0.214 HD
ENDBRANCH  28  30
ENDBRANCH  12  28
TORSDOF 4
ENDMDL
MODEL 7
REMARK VINA RESULT:      -6.7      5.630      7.891
REMARK  4 active torsions:
REMARK  status: ('A' for Active; 'I' for Inactive)
REMARK    1  A    between atoms: O1_2  and  C2_3 
REMARK    2  A    between atoms: C2_3  and  C3_5 
REMARK    3  A    between atoms: C14_16  and  P1_17 
REMARK    4  A    between atoms: P1_17  and  O3_18 
ROOT
HETATM    1  C3  UNL     1      29.443   9.576  47.438  1.00  0.00     0.054 C 
HETATM    2  C4  UNL     1      28.497  10.051  46.588  1.00  0.00    -0.038 C 
HETATM    3  C5  UNL     1      28.231  11.511  46.683  1.00  0.00     0.050 C 
HETATM    4  C6  UNL     1      27.863   9.204  45.724  1.00  0.00    -0.036 A 
HETATM    5  C7  UNL     1      27.722   8.661  44.425  1.00  0.00     0.002 A 
HETATM    6  C8  UNL     1      26.852   8.224  45.501  1.00  0.00     0.042 A 
HETATM    7  C9  UNL     1      26.327   8.161  46.779  1.00  0.00    -0.007 C 
HETATM    8  C10 UNL     1      26.973   7.408  47.738  1.00  0.00    -0.002 C 
HETATM    9  C11 UNL     1      28.298   7.055  47.581  1.00  0.00     0.008 C 
HETATM   10  C12 UNL     1      29.676   7.179  47.768  1.00  0.00    -0.042 C 
HETATM   11  C13 UNL     1      30.227   8.438  47.494  1.00  0.00    -0.017 C 
HETATM   12  C14 UNL     1      31.597   8.847  47.228  1.00  0.00     0.147 C 
HETATM   13  C15 UNL     1      32.169   8.192  45.993  1.00  0.00     0.175 C 
HETATM   14  O4  UNL     1      32.470   8.896  44.968  1.00  0.00    -0.291 OA
HETATM   15  C16 UNL     1      32.474   6.786  45.716  1.00  0.00     0.025 A 
HETATM   16  C17 UNL     1      33.312   6.728  44.626  1.00  0.00     0.016 A 
HETATM   17  C18 UNL     1      33.765   5.513  44.138  1.00  0.00     0.001 A 
HETATM   18  C19 UNL     1      33.373   4.334  44.750  1.00  0.00     0.001 A 
HETATM   19  C20 UNL     1      32.527   4.347  45.853  1.00  0.00     0.016 A 
HETATM   20  C21 UNL     1      32.109   5.587  46.293  1.00  0.00     0.024 A 
HETATM   21  C22 UNL     1      31.246   5.270  47.445  1.00  0.00     0.164 C 
HETATM   22  O5  UNL     1      31.487   4.123  47.920  1.00  0.00    -0.292 OA
HETATM   23  C23 UNL     1      30.175   5.893  48.218  1.00  0.00     0.123 C 
ENDROOT
BRANCH   1  24
HETATM   24  C2  UNL     1      29.936  10.211  48.654  1.00  0.00     0.294 C 
HETATM   25  O2  UNL     1      29.485   9.801  49.762  1.00  0.00    -0.259 OA
BRANCH  24  26
HETATM   26  O1  UNL     1      30.854  11.235  48.864  1.00  0.00    -0.322 OA
HETATM   27  C1  UNL     1      30.450  12.527  49.280  1.00  0.00     0.213 C 
ENDBRANCH  24  26
ENDBRANCH   1  24
BRANCH  12  28
HETATM   28  P1  UNL     1      32.773   8.641  48.641  1.00  0.00     0.025 P 
HETATM   29  H12 UNL     1      33.464   9.894  48.887  1.00  0.00     0.088 HD
BRANCH  28  30
HETATM   30  O3  UNL     1      31.863   8.204  50.058  1.00  0.00    -0.375 OA
HETATM   31  H13 UNL     1      31.049   7.674  49.828  1.00  0.00     0.214 HD
ENDBRANCH  28  30
ENDBRANCH  12  28
TORSDOF 4
ENDMDL
MODEL 8
REMARK VINA RESULT:      -6.7      7.079      9.071
REMARK  4 active torsions:
REMARK  status: ('A' for Active; 'I' for Inactive)
REMARK    1  A    between atoms: O1_2  and  C2_3 
REMARK    2  A    between atoms: C2_3  and  C3_5 
REMARK    3  A    between atoms: C14_16  and  P1_17 
REMARK    4  A    between atoms: P1_17  and  O3_18 
ROOT
HETATM    1  C3  UNL     1      30.710  10.227  46.420  1.00  0.00     0.054 C 
HETATM    2  C4  UNL     1      29.644  10.479  45.618  1.00  0.00    -0.038 C 
HETATM    3  C5  UNL     1      29.691  11.772  44.884  1.00  0.00     0.050 C 
HETATM    4  C6  UNL     1      28.625   9.576  45.527  1.00  0.00    -0.036 A 
HETATM    5  C7  UNL     1      27.979   8.525  44.832  1.00  0.00     0.002 A 
HETATM    6  C8  UNL     1      27.435   9.019  46.083  1.00  0.00     0.042 A 
HETATM    7  C9  UNL     1      27.345   9.800  47.221  1.00  0.00    -0.007 C 
HETATM    8  C10 UNL     1      28.117   9.482  48.321  1.00  0.00    -0.002 C 
HETATM    9  C11 UNL     1      29.235   8.684  48.190  1.00  0.00     0.008 C 
HETATM   10  C12 UNL     1      30.599   8.422  48.044  1.00  0.00    -0.042 C 
HETATM   11  C13 UNL     1      31.251   9.096  47.003  1.00  0.00    -0.017 C 
HETATM   12  C14 UNL     1      32.514   8.830  46.332  1.00  0.00     0.147 C 
HETATM   13  C15 UNL     1      32.532   7.487  45.640  1.00  0.00     0.175 C 
HETATM   14  O4  UNL     1      32.611   7.419  44.365  1.00  0.00    -0.291 OA
HETATM   15  C16 UNL     1      32.472   6.132  46.191  1.00  0.00     0.025 A 
HETATM   16  C17 UNL     1      32.892   5.248  45.223  1.00  0.00     0.016 A 
HETATM   17  C18 UNL     1      32.938   3.886  45.471  1.00  0.00     0.001 A 
HETATM   18  C19 UNL     1      32.555   3.397  46.709  1.00  0.00     0.001 A 
HETATM   19  C20 UNL     1      32.124   4.253  47.715  1.00  0.00     0.016 A 
HETATM   20  C21 UNL     1      32.101   5.600  47.408  1.00  0.00     0.024 A 
HETATM   21  C22 UNL     1      31.610   6.226  48.649  1.00  0.00     0.164 C 
HETATM   22  O5  UNL     1      31.778   5.482  49.658  1.00  0.00    -0.292 OA
HETATM   23  C23 UNL     1      30.974   7.471  49.073  1.00  0.00     0.123 C 
ENDROOT
BRANCH   1  24
HETATM   24  C2  UNL     1      31.673  11.192  46.939  1.00  0.00     0.294 C 
HETATM   25  O2  UNL     1      32.517  11.678  46.133  1.00  0.00    -0.259 OA
BRANCH  24  26
HETATM   26  O1  UNL     1      31.869  11.720  48.210  1.00  0.00    -0.322 OA
HETATM   27  C1  UNL     1      30.792  12.196  48.997  1.00  0.00     0.213 C 
ENDBRANCH  24  26
ENDBRANCH   1  24
BRANCH  12  28
HETATM   28  P1  UNL     1      34.023   9.003  47.388  1.00  0.00     0.025 P 
HETATM   29  H12 UNL     1      34.079   7.910  48.342  1.00  0.00     0.088 HD
BRANCH  28  30
HETATM   30  O3  UNL     1      35.426   8.936  46.362  1.00  0.00    -0.375 OA
HETATM   31  H13 UNL     1      36.156   9.532  46.691  1.00  0.00     0.214 HD
ENDBRANCH  28  30
ENDBRANCH  12  28
TORSDOF 4
ENDMDL
MODEL 9
REMARK VINA RESULT:      -6.5      2.606      5.225
REMARK  4 active torsions:
REMARK  status: ('A' for Active; 'I' for Inactive)
REMARK    1  A    between atoms: O1_2  and  C2_3 
REMARK    2  A    between atoms: C2_3  and  C3_5 
REMARK    3  A    between atoms: C14_16  and  P1_17 
REMARK    4  A    between atoms: P1_17  and  O3_18 
ROOT
HETATM    1  C3  UNL     1      23.482   3.125  50.340  1.00  0.00     0.054 C 
HETATM    2  C4  UNL     1      22.715   2.185  50.949  1.00  0.00    -0.038 C 
HETATM    3  C5  UNL     1      23.388   1.417  52.031  1.00  0.00     0.050 C 
HETATM    4  C6  UNL     1      21.421   1.997  50.558  1.00  0.00    -0.036 A 
HETATM    5  C7  UNL     1      20.037   2.214  50.761  1.00  0.00     0.002 A 
HETATM    6  C8  UNL     1      20.497   1.426  49.633  1.00  0.00     0.042 A 
HETATM    7  C9  UNL     1      21.398   0.803  48.788  1.00  0.00    -0.007 C 
HETATM    8  C10 UNL     1      22.044   1.549  47.823  1.00  0.00    -0.002 C 
HETATM    9  C11 UNL     1      22.125   2.922  47.931  1.00  0.00     0.008 C 
HETATM   10  C12 UNL     1      22.730   4.137  48.262  1.00  0.00    -0.042 C 
HETATM   11  C13 UNL     1      23.230   4.243  49.567  1.00  0.00    -0.017 C 
HETATM   12  C14 UNL     1      23.581   5.407  50.366  1.00  0.00     0.147 C 
HETATM   13  C15 UNL     1      22.402   6.318  50.613  1.00  0.00     0.175 C 
HETATM   14  O4  UNL     1      21.945   6.478  51.797  1.00  0.00    -0.291 OA
HETATM   15  C16 UNL     1      21.611   7.125  49.680  1.00  0.00     0.025 A 
HETATM   16  C17 UNL     1      20.903   8.057  50.402  1.00  0.00     0.016 A 
HETATM   17  C18 UNL     1      20.064   8.962  49.772  1.00  0.00     0.001 A 
HETATM   18  C19 UNL     1      19.930   8.933  48.394  1.00  0.00     0.001 A 
HETATM   19  C20 UNL     1      20.626   8.008  47.626  1.00  0.00     0.016 A 
HETATM   20  C21 UNL     1      21.446   7.133  48.311  1.00  0.00     0.024 A 
HETATM   21  C22 UNL     1      22.028   6.300  47.243  1.00  0.00     0.164 C 
HETATM   22  O5  UNL     1      21.971   6.865  46.113  1.00  0.00    -0.292 OA
HETATM   23  C23 UNL     1      22.662   4.993  47.093  1.00  0.00     0.123 C 
ENDROOT
BRANCH   1  24
HETATM   24  C2  UNL     1      24.937   3.213  50.340  1.00  0.00     0.294 C 
HETATM   25  O2  UNL     1      25.538   3.094  49.234  1.00  0.00    -0.259 OA
BRANCH  24  26
HETATM   26  O1  UNL     1      25.859   3.411  51.363  1.00  0.00    -0.322 OA
HETATM   27  C1  UNL     1      26.874   2.466  51.649  1.00  0.00     0.213 C 
ENDBRANCH  24  26
ENDBRANCH   1  24
BRANCH  12  28
HETATM   28  P1  UNL     1      25.010   6.398  49.737  1.00  0.00     0.025 P 
HETATM   29  H12 UNL     1      24.540   7.369  48.765  1.00  0.00     0.088 HD
BRANCH  28  30
HETATM   30  O3  UNL     1      25.733   7.238  51.079  1.00  0.00    -0.375 OA
HETATM   31  H13 UNL     1      25.801   8.219  50.910  1.00  0.00     0.214 HD
ENDBRANCH  28  30
ENDBRANCH  12  28
TORSDOF 4
ENDMDL
