MODEL 1
REMARK VINA RESULT:      -6.0      0.000      0.000
REMARK  6 active torsions:
REMARK  status: ('A' for Active; 'I' for Inactive)
REMARK    1  A    between atoms: C2_2  and  N1_3 
REMARK    2  A    between atoms: N1_3  and  C3_4 
REMARK    3  A    between atoms: N1_3  and  C5_6 
REMARK    4  A    between atoms: C5_6  and  C6_7 
REMARK    5  A    between atoms: C7_8  and  C8_9 
REMARK       I    between atoms: C8_9  and  N2_11 
REMARK    6  A    between atoms: N2_11  and  C9_12 
ROOT
HETATM    1  C8  UNL     1      24.728   3.654  51.015  1.00  0.00     0.297 C 
HETATM    2  O1  UNL     1      24.597   3.003  49.938  1.00  0.00    -0.258 OA
HETATM    3  N2  UNL     1      25.072   3.014  52.241  1.00  0.00    -0.336 N 
HETATM    4  H13 UNL     1      25.178   3.551  53.127  1.00  0.00     0.164 HD
ENDROOT
BRANCH   3   5
HETATM    5  C9  UNL     1      25.263   1.582  52.186  1.00  0.00     0.170 A 
HETATM    6  P1  UNL     1      23.703   0.737  52.711  1.00  0.00     0.026 P 
HETATM    7  N3  UNL     1      24.107  -0.405  54.013  1.00  0.00    -0.272 NA
HETATM    8  H15 UNL     1      22.735   1.718  53.093  1.00  0.00     0.084 HD
HETATM    9  C10 UNL     1      25.301  -0.538  54.450  1.00  0.00     0.147 A 
HETATM   10  C11 UNL     1      26.483   0.165  54.005  1.00  0.00     0.085 A 
HETATM   11  N4  UNL     1      27.663  -0.101  54.590  1.00  0.00    -0.240 NA
HETATM   12  C14 UNL     1      26.366   1.086  53.004  1.00  0.00     0.018 A 
HETATM   13  C12 UNL     1      28.807   0.527  54.227  1.00  0.00     0.233 A 
HETATM   14  N5  UNL     1      28.787   1.464  53.235  1.00  0.00    -0.253 NA
HETATM   15  C13 UNL     1      27.570   1.699  52.671  1.00  0.00     0.130 A 
ENDBRANCH   3   5
BRANCH   1  16
HETATM   16  C7  UNL     1      24.511   5.079  50.936  1.00  0.00    -0.004 C 
HETATM   17  C6  UNL     1      24.344   6.270  50.861  1.00  0.00    -0.077 C 
BRANCH  17  18
HETATM   18  C5  UNL     1      24.122   7.711  50.784  1.00  0.00     0.212 C 
BRANCH  18  19
HETATM   19  N1  UNL     1      24.934   8.271  49.775  1.00  0.00    -0.403 N 
BRANCH  19  20
HETATM   20  C2  UNL     1      24.351   8.412  48.486  1.00  0.00     0.113 C 
HETATM   21  C1  UNL     1      25.183   7.694  47.443  1.00  0.00     0.026 C 
ENDBRANCH  19  20
BRANCH  19  22
HETATM   22  C3  UNL     1      26.317   7.960  49.808  1.00  0.00     0.113 C 
HETATM   23  C4  UNL     1      27.107   9.179  50.292  1.00  0.00     0.026 C 
ENDBRANCH  19  22
ENDBRANCH  18  19
ENDBRANCH  17  18
ENDBRANCH   1  16
TORSDOF 6
ENDMDL
MODEL 2
REMARK VINA RESULT:      -5.8      3.031      7.862
REMARK  6 active torsions:
REMARK  status: ('A' for Active; 'I' for Inactive)
REMARK    1  A    between atoms: C2_2  and  N1_3 
REMARK    2  A    between atoms: N1_3  and  C3_4 
REMARK    3  A    between atoms: N1_3  and  C5_6 
REMARK    4  A    between atoms: C5_6  and  C6_7 
REMARK    5  A    between atoms: C7_8  and  C8_9 
REMARK       I    between atoms: C8_9  and  N2_11 
REMARK    6  A    between atoms: N2_11  and  C9_12 
ROOT
HETATM    1  C8  UNL     1      25.782   2.663  50.846  1.00  0.00     0.297 C 
HETATM    2  O1  UNL     1      26.593   3.350  50.160  1.00  0.00    -0.258 OA
HETATM    3  N2  UNL     1      24.403   3.009  50.945  1.00  0.00    -0.336 N 
HETATM    4  H13 UNL     1      23.737   2.444  51.511  1.00  0.00     0.164 HD
ENDROOT
BRANCH   3   5
HETATM    5  C9  UNL     1      23.983   4.185  50.217  1.00  0.00     0.170 A 
HETATM    6  P1  UNL     1      23.608   5.543  51.415  1.00  0.00     0.026 P 
HETATM    7  N3  UNL     1      21.968   6.141  51.074  1.00  0.00    -0.272 NA
HETATM    8  H15 UNL     1      23.771   5.059  52.751  1.00  0.00     0.084 HD
HETATM    9  C10 UNL     1      21.247   5.643  50.143  1.00  0.00     0.147 A 
HETATM   10  C11 UNL     1      21.594   4.567  49.243  1.00  0.00     0.085 A 
HETATM   11  N4  UNL     1      20.699   4.166  48.324  1.00  0.00    -0.240 NA
HETATM   12  C14 UNL     1      22.822   3.982  49.355  1.00  0.00     0.018 A 
HETATM   13  C12 UNL     1      20.956   3.159  47.455  1.00  0.00     0.233 A 
HETATM   14  N5  UNL     1      22.159   2.515  47.493  1.00  0.00    -0.253 NA
HETATM   15  C13 UNL     1      23.033   2.956  48.440  1.00  0.00     0.130 A 
ENDBRANCH   3   5
BRANCH   1  16
HETATM   16  C7  UNL     1      26.328   1.511  51.525  1.00  0.00    -0.004 C 
HETATM   17  C6  UNL     1      26.797   0.553  52.084  1.00  0.00    -0.077 C 
BRANCH  17  18
HETATM   18  C5  UNL     1      27.345  -0.613  52.771  1.00  0.00     0.212 C 
BRANCH  18  19
HETATM   19  N1  UNL     1      27.605  -0.298  54.122  1.00  0.00    -0.403 N 
BRANCH  19  20
HETATM   20  C2  UNL     1      26.544   0.295  54.859  1.00  0.00     0.113 C 
HETATM   21  C1  UNL     1      25.400  -0.683  55.032  1.00  0.00     0.026 C 
ENDBRANCH  19  20
BRANCH  19  22
HETATM   22  C3  UNL     1      28.915   0.136  54.447  1.00  0.00     0.113 C 
HETATM   23  C4  UNL     1      29.938  -0.671  53.644  1.00  0.00     0.026 C 
ENDBRANCH  19  22
ENDBRANCH  18  19
ENDBRANCH  17  18
ENDBRANCH   1  16
TORSDOF 6
ENDMDL
MODEL 3
REMARK VINA RESULT:      -5.8      1.278      1.915
REMARK  6 active torsions:
REMARK  status: ('A' for Active; 'I' for Inactive)
REMARK    1  A    between atoms: C2_2  and  N1_3 
REMARK    2  A    between atoms: N1_3  and  C3_4 
REMARK    3  A    between atoms: N1_3  and  C5_6 
REMARK    4  A    between atoms: C5_6  and  C6_7 
REMARK    5  A    between atoms: C7_8  and  C8_9 
REMARK       I    between atoms: C8_9  and  N2_11 
REMARK    6  A    between atoms: N2_11  and  C9_12 
ROOT
HETATM    1  C8  UNL     1      24.640   3.654  51.119  1.00  0.00     0.297 C 
HETATM    2  O1  UNL     1      24.533   3.013  50.033  1.00  0.00    -0.258 OA
HETATM    3  N2  UNL     1      25.003   3.010  52.338  1.00  0.00    -0.336 N 
HETATM    4  H13 UNL     1      25.090   3.538  53.230  1.00  0.00     0.164 HD
ENDROOT
BRANCH   3   5
HETATM    5  C9  UNL     1      25.244   1.586  52.264  1.00  0.00     0.170 A 
HETATM    6  P1  UNL     1      23.725   0.681  52.810  1.00  0.00     0.026 P 
HETATM    7  N3  UNL     1      24.194  -0.459  54.092  1.00  0.00    -0.272 NA
HETATM    8  H15 UNL     1      22.731   1.623  53.220  1.00  0.00     0.084 HD
HETATM    9  C10 UNL     1      25.401  -0.553  54.504  1.00  0.00     0.147 A 
HETATM   10  C11 UNL     1      26.548   0.195  54.043  1.00  0.00     0.085 A 
HETATM   11  N4  UNL     1      27.749  -0.035  54.603  1.00  0.00    -0.240 NA
HETATM   12  C14 UNL     1      26.379   1.121  53.055  1.00  0.00     0.018 A 
HETATM   13  C12 UNL     1      28.863   0.637  54.224  1.00  0.00     0.233 A 
HETATM   14  N5  UNL     1      28.790   1.582  53.242  1.00  0.00    -0.253 NA
HETATM   15  C13 UNL     1      27.554   1.780  52.705  1.00  0.00     0.130 A 
ENDBRANCH   3   5
BRANCH   1  16
HETATM   16  C7  UNL     1      24.374   5.072  51.059  1.00  0.00    -0.004 C 
HETATM   17  C6  UNL     1      24.169   6.258  51.005  1.00  0.00    -0.077 C 
BRANCH  17  18
HETATM   18  C5  UNL     1      23.897   7.691  50.946  1.00  0.00     0.212 C 
BRANCH  18  19
HETATM   19  N1  UNL     1      22.716   7.927  50.210  1.00  0.00    -0.403 N 
BRANCH  19  20
HETATM   20  C2  UNL     1      21.510   7.397  50.742  1.00  0.00     0.113 C 
HETATM   21  C1  UNL     1      20.679   6.757  49.649  1.00  0.00     0.026 C 
ENDBRANCH  19  20
BRANCH  19  22
HETATM   22  C3  UNL     1      22.825   7.942  48.796  1.00  0.00     0.113 C 
HETATM   23  C4  UNL     1      23.345   9.305  48.334  1.00  0.00     0.026 C 
ENDBRANCH  19  22
ENDBRANCH  18  19
ENDBRANCH  17  18
ENDBRANCH   1  16
TORSDOF 6
ENDMDL
MODEL 4
REMARK VINA RESULT:      -5.7      3.289      7.613
REMARK  6 active torsions:
REMARK  status: ('A' for Active; 'I' for Inactive)
REMARK    1  A    between atoms: C2_2  and  N1_3 
REMARK    2  A    between atoms: N1_3  and  C3_4 
REMARK    3  A    between atoms: N1_3  and  C5_6 
REMARK    4  A    between atoms: C5_6  and  C6_7 
REMARK    5  A    between atoms: C7_8  and  C8_9 
REMARK       I    between atoms: C8_9  and  N2_11 
REMARK    6  A    between atoms: N2_11  and  C9_12 
ROOT
HETATM    1  C8  UNL     1      23.237   0.947  52.236  1.00  0.00     0.297 C 
HETATM    2  O1  UNL     1      22.290   0.776  53.058  1.00  0.00    -0.258 OA
HETATM    3  N2  UNL     1      23.041   1.629  51.000  1.00  0.00    -0.336 N 
HETATM    4  H13 UNL     1      23.820   1.769  50.323  1.00  0.00     0.164 HD
ENDROOT
BRANCH   3   5
HETATM    5  C9  UNL     1      21.705   2.113  50.738  1.00  0.00     0.170 A 
HETATM    6  P1  UNL     1      21.041   1.286  49.223  1.00  0.00     0.026 P 
HETATM    7  N3  UNL     1      20.491   2.552  48.100  1.00  0.00    -0.272 NA
HETATM    8  H15 UNL     1      22.044   0.430  48.669  1.00  0.00     0.084 HD
HETATM    9  C10 UNL     1      20.591   3.795  48.383  1.00  0.00     0.147 A 
HETATM   10  C11 UNL     1      21.134   4.382  49.586  1.00  0.00     0.085 A 
HETATM   11  N4  UNL     1      21.166   5.721  49.706  1.00  0.00    -0.240 NA
HETATM   12  C14 UNL     1      21.606   3.560  50.567  1.00  0.00     0.018 A 
HETATM   13  C12 UNL     1      21.668   6.336  50.803  1.00  0.00     0.233 A 
HETATM   14  N5  UNL     1      22.163   5.594  51.836  1.00  0.00    -0.253 NA
HETATM   15  C13 UNL     1      22.109   4.244  51.670  1.00  0.00     0.130 A 
ENDBRANCH   3   5
BRANCH   1  16
HETATM   16  C7  UNL     1      24.525   0.416  52.616  1.00  0.00    -0.004 C 
HETATM   17  C6  UNL     1      25.592  -0.035  52.946  1.00  0.00    -0.077 C 
BRANCH  17  18
HETATM   18  C5  UNL     1      26.896  -0.569  53.328  1.00  0.00     0.212 C 
BRANCH  18  19
HETATM   19  N1  UNL     1      27.632   0.412  54.028  1.00  0.00    -0.403 N 
BRANCH  19  20
HETATM   20  C2  UNL     1      27.438   1.763  53.634  1.00  0.00     0.113 C 
HETATM   21  C1  UNL     1      28.752   2.518  53.650  1.00  0.00     0.026 C 
ENDBRANCH  19  20
BRANCH  19  22
HETATM   22  C3  UNL     1      28.939   0.062  54.452  1.00  0.00     0.113 C 
HETATM   23  C4  UNL     1      29.442  -1.133  53.638  1.00  0.00     0.026 C 
ENDBRANCH  19  22
ENDBRANCH  18  19
ENDBRANCH  17  18
ENDBRANCH   1  16
TORSDOF 6
ENDMDL
MODEL 5
REMARK VINA RESULT:      -5.7      3.322      4.434
REMARK  6 active torsions:
REMARK  status: ('A' for Active; 'I' for Inactive)
REMARK    1  A    between atoms: C2_2  and  N1_3 
REMARK    2  A    between atoms: N1_3  and  C3_4 
REMARK    3  A    between atoms: N1_3  and  C5_6 
REMARK    4  A    between atoms: C5_6  and  C6_7 
REMARK    5  A    between atoms: C7_8  and  C8_9 
REMARK       I    between atoms: C8_9  and  N2_11 
REMARK    6  A    between atoms: N2_11  and  C9_12 
ROOT
HETATM    1  C8  UNL     1      24.242   1.472  52.076  1.00  0.00     0.297 C 
HETATM    2  O1  UNL     1      23.660   1.691  53.179  1.00  0.00    -0.258 OA
HETATM    3  N2  UNL     1      25.573   0.966  52.019  1.00  0.00    -0.336 N 
HETATM    4  H13 UNL     1      26.051   0.787  51.111  1.00  0.00     0.164 HD
ENDROOT
BRANCH   3   5
HETATM    5  C9  UNL     1      26.220   0.717  53.287  1.00  0.00     0.170 A 
HETATM    6  P1  UNL     1      27.010   2.278  53.887  1.00  0.00     0.026 P 
HETATM    7  N3  UNL     1      28.718   1.930  54.242  1.00  0.00    -0.272 NA
HETATM    8  H15 UNL     1      26.828   3.309  52.914  1.00  0.00     0.084 HD
HETATM    9  C10 UNL     1      29.222   0.768  54.067  1.00  0.00     0.147 A 
HETATM   10  C11 UNL     1      28.552  -0.416  53.579  1.00  0.00     0.085 A 
HETATM   11  N4  UNL     1      29.248  -1.558  53.452  1.00  0.00    -0.240 NA
HETATM   12  C14 UNL     1      27.228  -0.340  53.256  1.00  0.00     0.018 A 
HETATM   13  C12 UNL     1      28.684  -2.702  52.994  1.00  0.00     0.233 A 
HETATM   14  N5  UNL     1      27.365  -2.720  52.646  1.00  0.00    -0.253 NA
HETATM   15  C13 UNL     1      26.700  -1.541  52.792  1.00  0.00     0.130 A 
ENDBRANCH   3   5
BRANCH   1  16
HETATM   16  C7  UNL     1      23.486   1.762  50.880  1.00  0.00    -0.004 C 
HETATM   17  C6  UNL     1      22.851   2.018  49.890  1.00  0.00    -0.077 C 
BRANCH  17  18
HETATM   18  C5  UNL     1      22.087   2.307  48.679  1.00  0.00     0.212 C 
BRANCH  18  19
HETATM   19  N1  UNL     1      21.348   3.498  48.849  1.00  0.00    -0.403 N 
BRANCH  19  20
HETATM   20  C2  UNL     1      22.091   4.702  48.980  1.00  0.00     0.113 C 
HETATM   21  C1  UNL     1      22.677   5.116  47.646  1.00  0.00     0.026 C 
ENDBRANCH  19  20
BRANCH  19  22
HETATM   22  C3  UNL     1      20.148   3.415  49.600  1.00  0.00     0.113 C 
HETATM   23  C4  UNL     1      19.823   4.783  50.205  1.00  0.00     0.026 C 
ENDBRANCH  19  22
ENDBRANCH  18  19
ENDBRANCH  17  18
ENDBRANCH   1  16
TORSDOF 6
ENDMDL
MODEL 6
REMARK VINA RESULT:      -5.7      2.207      2.890
REMARK  6 active torsions:
REMARK  status: ('A' for Active; 'I' for Inactive)
REMARK    1  A    between atoms: C2_2  and  N1_3 
REMARK    2  A    between atoms: N1_3  and  C3_4 
REMARK    3  A    between atoms: N1_3  and  C5_6 
REMARK    4  A    between atoms: C5_6  and  C6_7 
REMARK    5  A    between atoms: C7_8  and  C8_9 
REMARK       I    between atoms: C8_9  and  N2_11 
REMARK    6  A    between atoms: N2_11  and  C9_12 
ROOT
HETATM    1  C8  UNL     1      22.352   2.296  51.549  1.00  0.00     0.297 C 
HETATM    2  O1  UNL     1      22.245   1.522  50.554  1.00  0.00    -0.258 OA
HETATM    3  N2  UNL     1      22.690   1.808  52.845  1.00  0.00    -0.336 N 
HETATM    4  H13 UNL     1      22.778   2.446  53.663  1.00  0.00     0.164 HD
ENDROOT
BRANCH   3   5
HETATM    5  C9  UNL     1      22.902   0.383  52.959  1.00  0.00     0.170 A 
HETATM    6  P1  UNL     1      21.653  -0.330  54.121  1.00  0.00     0.026 P 
HETATM    7  N3  UNL     1      22.523  -1.252  55.369  1.00  0.00    -0.272 NA
HETATM    8  H15 UNL     1      20.841   0.721  54.652  1.00  0.00     0.084 HD
HETATM    9  C10 UNL     1      23.799  -1.337  55.379  1.00  0.00     0.147 A 
HETATM   10  C11 UNL     1      24.727  -0.743  54.444  1.00  0.00     0.085 A 
HETATM   11  N4  UNL     1      26.046  -0.935  54.618  1.00  0.00    -0.240 NA
HETATM   12  C14 UNL     1      24.237   0.004  53.412  1.00  0.00     0.018 A 
HETATM   13  C12 UNL     1      26.970  -0.401  53.784  1.00  0.00     0.233 A 
HETATM   14  N5  UNL     1      26.574   0.361  52.723  1.00  0.00    -0.253 NA
HETATM   15  C13 UNL     1      25.229   0.527  52.587  1.00  0.00     0.130 A 
ENDBRANCH   3   5
BRANCH   1  16
HETATM   16  C7  UNL     1      22.116   3.699  51.302  1.00  0.00    -0.004 C 
HETATM   17  C6  UNL     1      21.918   4.872  51.113  1.00  0.00    -0.077 C 
BRANCH  17  18
HETATM   18  C5  UNL     1      21.677   6.290  50.860  1.00  0.00     0.212 C 
BRANCH  18  19
HETATM   19  N1  UNL     1      22.749   6.836  50.121  1.00  0.00    -0.403 N 
BRANCH  19  20
HETATM   20  C2  UNL     1      23.696   7.611  50.842  1.00  0.00     0.113 C 
HETATM   21  C1  UNL     1      25.103   7.112  50.582  1.00  0.00     0.026 C 
ENDBRANCH  19  20
BRANCH  19  22
HETATM   22  C3  UNL     1      22.475   7.252  48.793  1.00  0.00     0.113 C 
HETATM   23  C4  UNL     1      22.842   6.133  47.817  1.00  0.00     0.026 C 
ENDBRANCH  19  22
ENDBRANCH  18  19
ENDBRANCH  17  18
ENDBRANCH   1  16
TORSDOF 6
ENDMDL
MODEL 7
REMARK VINA RESULT:      -5.7      2.816      8.146
REMARK  6 active torsions:
REMARK  status: ('A' for Active; 'I' for Inactive)
REMARK    1  A    between atoms: C2_2  and  N1_3 
REMARK    2  A    between atoms: N1_3  and  C3_4 
REMARK    3  A    between atoms: N1_3  and  C5_6 
REMARK    4  A    between atoms: C5_6  and  C6_7 
REMARK    5  A    between atoms: C7_8  and  C8_9 
REMARK       I    between atoms: C8_9  and  N2_11 
REMARK    6  A    between atoms: N2_11  and  C9_12 
ROOT
HETATM    1  C8  UNL     1      26.241   3.649  50.134  1.00  0.00     0.297 C 
HETATM    2  O1  UNL     1      26.981   3.830  49.124  1.00  0.00    -0.258 OA
HETATM    3  N2  UNL     1      25.154   4.521  50.433  1.00  0.00    -0.336 N 
HETATM    4  H13 UNL     1      24.546   4.372  51.265  1.00  0.00     0.164 HD
ENDROOT
BRANCH   3   5
HETATM    5  C9  UNL     1      24.945   5.622  49.521  1.00  0.00     0.170 A 
HETATM    6  P1  UNL     1      25.447   7.201  50.342  1.00  0.00     0.026 P 
HETATM    7  N3  UNL     1      24.085   8.339  50.229  1.00  0.00    -0.272 NA
HETATM    8  H15 UNL     1      25.853   6.931  51.687  1.00  0.00     0.084 HD
HETATM    9  C10 UNL     1      22.983   8.020  49.664  1.00  0.00     0.147 A 
HETATM   10  C11 UNL     1      22.645   6.757  49.048  1.00  0.00     0.085 A 
HETATM   11  N4  UNL     1      21.425   6.598  48.506  1.00  0.00    -0.240 NA
HETATM   12  C14 UNL     1      23.574   5.757  49.038  1.00  0.00     0.018 A 
HETATM   13  C12 UNL     1      21.041   5.439  47.920  1.00  0.00     0.233 A 
HETATM   14  N5  UNL     1      21.904   4.383  47.863  1.00  0.00    -0.253 NA
HETATM   15  C13 UNL     1      23.127   4.591  48.424  1.00  0.00     0.130 A 
ENDBRANCH   3   5
BRANCH   1  16
HETATM   16  C7  UNL     1      26.555   2.512  50.967  1.00  0.00    -0.004 C 
HETATM   17  C6  UNL     1      26.800   1.560  51.663  1.00  0.00    -0.077 C 
BRANCH  17  18
HETATM   18  C5  UNL     1      27.121   0.412  52.506  1.00  0.00     0.212 C 
BRANCH  18  19
HETATM   19  N1  UNL     1      27.405   0.843  53.820  1.00  0.00    -0.403 N 
BRANCH  19  20
HETATM   20  C2  UNL     1      28.774   0.893  54.198  1.00  0.00     0.113 C 
HETATM   21  C1  UNL     1      29.528  -0.293  53.632  1.00  0.00     0.026 C 
ENDBRANCH  19  20
BRANCH  19  22
HETATM   22  C3  UNL     1      26.486   0.477  54.836  1.00  0.00     0.113 C 
HETATM   23  C4  UNL     1      25.535  -0.600  54.307  1.00  0.00     0.026 C 
ENDBRANCH  19  22
ENDBRANCH  18  19
ENDBRANCH  17  18
ENDBRANCH   1  16
TORSDOF 6
ENDMDL
MODEL 8
REMARK VINA RESULT:      -5.7      2.974      3.521
REMARK  6 active torsions:
REMARK  status: ('A' for Active; 'I' for Inactive)
REMARK    1  A    between atoms: C2_2  and  N1_3 
REMARK    2  A    between atoms: N1_3  and  C3_4 
REMARK    3  A    between atoms: N1_3  and  C5_6 
REMARK    4  A    between atoms: C5_6  and  C6_7 
REMARK    5  A    between atoms: C7_8  and  C8_9 
REMARK       I    between atoms: C8_9  and  N2_11 
REMARK    6  A    between atoms: N2_11  and  C9_12 
ROOT
HETATM    1  C8  UNL     1      21.831   1.372  51.572  1.00  0.00     0.297 C 
HETATM    2  O1  UNL     1      21.639   0.413  50.768  1.00  0.00    -0.258 OA
HETATM    3  N2  UNL     1      22.536   1.193  52.798  1.00  0.00    -0.336 N 
HETATM    4  H13 UNL     1      22.693   1.981  53.459  1.00  0.00     0.164 HD
ENDROOT
BRANCH   3   5
HETATM    5  C9  UNL     1      23.019  -0.142  53.071  1.00  0.00     0.170 A 
HETATM    6  P1  UNL     1      21.947  -0.928  54.358  1.00  0.00     0.026 P 
HETATM    7  N3  UNL     1      22.998  -1.509  55.670  1.00  0.00    -0.272 NA
HETATM    8  H15 UNL     1      20.959   0.010  54.792  1.00  0.00     0.084 HD
HETATM    9  C10 UNL     1      24.267  -1.351  55.640  1.00  0.00     0.147 A 
HETATM   10  C11 UNL     1      25.049  -0.714  54.606  1.00  0.00     0.085 A 
HETATM   11  N4  UNL     1      26.382  -0.632  54.749  1.00  0.00    -0.240 NA
HETATM   12  C14 UNL     1      24.409  -0.206  53.512  1.00  0.00     0.018 A 
HETATM   13  C12 UNL     1      27.174  -0.042  53.821  1.00  0.00     0.233 A 
HETATM   14  N5  UNL     1      26.622   0.495  52.695  1.00  0.00    -0.253 NA
HETATM   15  C13 UNL     1      25.268   0.388  52.593  1.00  0.00     0.130 A 
ENDBRANCH   3   5
BRANCH   1  16
HETATM   16  C7  UNL     1      21.299   2.656  51.182  1.00  0.00    -0.004 C 
HETATM   17  C6  UNL     1      20.849   3.721  50.842  1.00  0.00    -0.077 C 
BRANCH  17  18
HETATM   18  C5  UNL     1      20.314   5.022  50.450  1.00  0.00     0.212 C 
BRANCH  18  19
HETATM   19  N1  UNL     1      21.081   5.560  49.395  1.00  0.00    -0.403 N 
BRANCH  19  20
HETATM   20  C2  UNL     1      21.048   4.864  48.157  1.00  0.00     0.113 C 
HETATM   21  C1  UNL     1      22.447   4.701  47.598  1.00  0.00     0.026 C 
ENDBRANCH  19  20
BRANCH  19  22
HETATM   22  C3  UNL     1      22.311   6.178  49.736  1.00  0.00     0.113 C 
HETATM   23  C4  UNL     1      22.054   7.342  50.696  1.00  0.00     0.026 C 
ENDBRANCH  19  22
ENDBRANCH  18  19
ENDBRANCH  17  18
ENDBRANCH   1  16
TORSDOF 6
ENDMDL
MODEL 9
REMARK VINA RESULT:      -5.5      3.823      5.332
REMARK  6 active torsions:
REMARK  status: ('A' for Active; 'I' for Inactive)
REMARK    1  A    between atoms: C2_2  and  N1_3 
REMARK    2  A    between atoms: N1_3  and  C3_4 
REMARK    3  A    between atoms: N1_3  and  C5_6 
REMARK    4  A    between atoms: C5_6  and  C6_7 
REMARK    5  A    between atoms: C7_8  and  C8_9 
REMARK       I    between atoms: C8_9  and  N2_11 
REMARK    6  A    between atoms: N2_11  and  C9_12 
ROOT
HETATM    1  C8  UNL     1      25.845   4.830  49.758  1.00  0.00     0.297 C 
HETATM    2  O1  UNL     1      25.148   5.868  49.954  1.00  0.00    -0.258 OA
HETATM    3  N2  UNL     1      25.398   3.539  50.163  1.00  0.00    -0.336 N 
HETATM    4  H13 UNL     1      25.972   2.686  50.002  1.00  0.00     0.164 HD
ENDROOT
BRANCH   3   5
HETATM    5  C9  UNL     1      24.107   3.481  50.810  1.00  0.00     0.170 A 
HETATM    6  P1  UNL     1      24.336   3.037  52.591  1.00  0.00     0.026 P 
HETATM    7  N3  UNL     1      23.305   1.631  52.946  1.00  0.00    -0.272 NA
HETATM    8  H15 UNL     1      25.723   2.807  52.851  1.00  0.00     0.084 HD
HETATM    9  C10 UNL     1      22.575   1.086  52.049  1.00  0.00     0.147 A 
HETATM   10  C11 UNL     1      22.448   1.474  50.663  1.00  0.00     0.085 A 
HETATM   11  N4  UNL     1      21.632   0.773  49.857  1.00  0.00    -0.240 NA
HETATM   12  C14 UNL     1      23.168   2.540  50.207  1.00  0.00     0.018 A 
HETATM   13  C12 UNL     1      21.473   1.078  48.547  1.00  0.00     0.233 A 
HETATM   14  N5  UNL     1      22.153   2.128  48.003  1.00  0.00    -0.253 NA
HETATM   15  C13 UNL     1      22.967   2.809  48.856  1.00  0.00     0.130 A 
ENDBRANCH   3   5
BRANCH   1  16
HETATM   16  C7  UNL     1      27.116   5.023  49.100  1.00  0.00    -0.004 C 
HETATM   17  C6  UNL     1      28.170   5.196  48.542  1.00  0.00    -0.077 C 
BRANCH  17  18
HETATM   18  C5  UNL     1      29.457   5.387  47.879  1.00  0.00     0.212 C 
BRANCH  18  19
HETATM   19  N1  UNL     1      30.197   6.388  48.544  1.00  0.00    -0.403 N 
BRANCH  19  20
HETATM   20  C2  UNL     1      30.124   7.702  48.009  1.00  0.00     0.113 C 
HETATM   21  C1  UNL     1      29.601   8.674  49.047  1.00  0.00     0.026 C 
ENDBRANCH  19  20
BRANCH  19  22
HETATM   22  C3  UNL     1      31.441   6.007  49.108  1.00  0.00     0.113 C 
HETATM   23  C4  UNL     1      32.123   4.976  48.205  1.00  0.00     0.026 C 
ENDBRANCH  19  22
ENDBRANCH  18  19
ENDBRANCH  17  18
ENDBRANCH   1  16
TORSDOF 6
ENDMDL
