MODEL 1
REMARK VINA RESULT:      -8.1      0.000      0.000
REMARK  9 active torsions:
REMARK  status: ('A' for Active; 'I' for Inactive)
REMARK    1  A    between atoms: C4_4  and  O1_5 
REMARK    2  A    between atoms: O1_5  and  C5_6 
REMARK    3  A    between atoms: C5_6  and  C6_7 
REMARK    4  A    between atoms: C6_7  and  N1_8 
REMARK    5  A    between atoms: N1_8  and  C7_9 
REMARK    6  A    between atoms: C7_9  and  C8_10 
REMARK    7  A    between atoms: C14_17  and  C15_18 
REMARK    8  A    between atoms: C15_18  and  N2_20 
REMARK    9  A    between atoms: N2_20  and  C16_21 
ROOT
HETATM    1  C1  UNL     1      23.306  -1.546  55.475  1.00  0.00     0.048 C 
HETATM    2  C2  UNL     1      22.513  -0.880  54.419  1.00  0.00    -0.062 A 
HETATM    3  C3  UNL     1      23.154  -0.066  53.613  1.00  0.00     0.016 A 
HETATM    4  C4  UNL     1      22.228   0.564  52.564  1.00  0.00     0.181 A 
HETATM    5  C14 UNL     1      20.952  -0.046  52.922  1.00  0.00     0.013 A 
HETATM    6  C22 UNL     1      21.135  -0.856  53.972  1.00  0.00     0.019 A 
ENDROOT
BRANCH   4   7
HETATM    7  O1  UNL     1      22.310   1.927  52.676  1.00  0.00    -0.376 OA
BRANCH   7   8
HETATM    8  C5  UNL     1      22.676   2.622  51.560  1.00  0.00     0.199 C 
BRANCH   8   9
HETATM    9  C6  UNL     1      23.752   3.605  51.827  1.00  0.00     0.296 C 
BRANCH   9  10
HETATM   10  N1  UNL     1      24.911   3.011  52.489  1.00  0.00     0.089 N 
HETATM   11  H10 UNL     1      24.506   2.269  53.123  1.00  0.00     0.316 HD
BRANCH  10  12
HETATM   12  C7  UNL     1      25.818   2.362  51.599  1.00  0.00     0.308 C 
BRANCH  12  13
HETATM   13  C8  UNL     1      26.836   1.543  52.307  1.00  0.00    -0.030 A 
HETATM   14  C9  UNL     1      27.930   2.058  53.003  1.00  0.00     0.012 A 
HETATM   15  C10 UNL     1      28.819   1.202  53.623  1.00  0.00     0.043 A 
HETATM   16  C11 UNL     1      28.645  -0.165  53.567  1.00  0.00     0.116 A 
HETATM   17  F1  UNL     1      29.520  -1.010  54.174  1.00  0.00    -0.206 F 
HETATM   18  C12 UNL     1      27.574  -0.702  52.887  1.00  0.00     0.043 A 
HETATM   19  C13 UNL     1      26.693   0.163  52.272  1.00  0.00     0.012 A 
ENDBRANCH  12  13
ENDBRANCH  10  12
ENDBRANCH   9  10
ENDBRANCH   8   9
ENDBRANCH   7   8
ENDBRANCH   4   7
BRANCH   5  20
HETATM   20  C15 UNL     1      19.578  -0.013  52.451  1.00  0.00     0.110 C 
HETATM   21  S1  UNL     1      19.167   0.685  51.055  1.00  0.00    -0.060 SA
BRANCH  20  22
HETATM   22  N2  UNL     1      18.442  -0.561  53.097  1.00  0.00    -0.347 N 
HETATM   23  H17 UNL     1      17.906  -0.143  53.878  1.00  0.00     0.167 HD
BRANCH  22  24
HETATM   24  C16 UNL     1      17.572  -1.714  53.078  1.00  0.00     0.033 A 
HETATM   25  C17 UNL     1      16.347  -1.617  52.412  1.00  0.00     0.029 A 
HETATM   26  C18 UNL     1      15.424  -2.649  52.318  1.00  0.00     0.002 A 
HETATM   27  C19 UNL     1      15.836  -3.793  52.950  1.00  0.00     0.000 A 
HETATM   28  C20 UNL     1      17.001  -3.995  53.623  1.00  0.00     0.002 A 
HETATM   29  C21 UNL     1      17.883  -2.930  53.686  1.00  0.00     0.029 A 
ENDBRANCH  22  24
ENDBRANCH  20  22
ENDBRANCH   5  20
TORSDOF 9
ENDMDL
MODEL 2
REMARK VINA RESULT:      -7.9      4.009      7.152
REMARK  9 active torsions:
REMARK  status: ('A' for Active; 'I' for Inactive)
REMARK    1  A    between atoms: C4_4  and  O1_5 
REMARK    2  A    between atoms: O1_5  and  C5_6 
REMARK    3  A    between atoms: C5_6  and  C6_7 
REMARK    4  A    between atoms: C6_7  and  N1_8 
REMARK    5  A    between atoms: N1_8  and  C7_9 
REMARK    6  A    between atoms: C7_9  and  C8_10 
REMARK    7  A    between atoms: C14_17  and  C15_18 
REMARK    8  A    between atoms: C15_18  and  N2_20 
REMARK    9  A    between atoms: N2_20  and  C16_21 
ROOT
HETATM    1  C1  UNL     1      20.195   0.863  49.719  1.00  0.00     0.048 C 
HETATM    2  C2  UNL     1      21.231   0.795  50.772  1.00  0.00    -0.062 A 
HETATM    3  C3  UNL     1      22.175   1.706  50.741  1.00  0.00     0.016 A 
HETATM    4  C4  UNL     1      23.190   1.533  51.879  1.00  0.00     0.181 A 
HETATM    5  C14 UNL     1      22.644   0.361  52.557  1.00  0.00     0.013 A 
HETATM    6  C22 UNL     1      21.540  -0.040  51.915  1.00  0.00     0.019 A 
ENDROOT
BRANCH   4   7
HETATM    7  O1  UNL     1      24.438   1.398  51.330  1.00  0.00    -0.376 OA
BRANCH   7   8
HETATM    8  C5  UNL     1      25.365   2.345  51.654  1.00  0.00     0.199 C 
BRANCH   8   9
HETATM    9  C6  UNL     1      25.000   3.695  51.164  1.00  0.00     0.296 C 
BRANCH   9  10
HETATM   10  N1  UNL     1      26.114   4.383  50.516  1.00  0.00     0.089 N 
HETATM   11  H10 UNL     1      26.821   3.623  50.322  1.00  0.00     0.316 HD
BRANCH  10  12
HETATM   12  C7  UNL     1      25.777   4.980  49.265  1.00  0.00     0.308 C 
BRANCH  12  13
HETATM   13  C8  UNL     1      26.922   5.688  48.635  1.00  0.00    -0.030 A 
HETATM   14  C9  UNL     1      26.864   6.970  48.089  1.00  0.00     0.012 A 
HETATM   15  C10 UNL     1      27.993   7.531  47.524  1.00  0.00     0.043 A 
HETATM   16  C11 UNL     1      29.187   6.843  47.488  1.00  0.00     0.116 A 
HETATM   17  F1  UNL     1      30.299   7.391  46.930  1.00  0.00    -0.206 F 
HETATM   18  C12 UNL     1      29.274   5.574  48.019  1.00  0.00     0.043 A 
HETATM   19  C13 UNL     1      28.140   5.025  48.582  1.00  0.00     0.012 A 
ENDBRANCH  12  13
ENDBRANCH  10  12
ENDBRANCH   9  10
ENDBRANCH   8   9
ENDBRANCH   7   8
ENDBRANCH   4   7
BRANCH   5  20
HETATM   20  C15 UNL     1      22.968  -0.456  53.714  1.00  0.00     0.110 C 
HETATM   21  S1  UNL     1      21.867  -1.378  54.449  1.00  0.00    -0.060 SA
BRANCH  20  22
HETATM   22  N2  UNL     1      24.231  -0.575  54.344  1.00  0.00    -0.347 N 
HETATM   23  H17 UNL     1      24.414  -0.741  55.351  1.00  0.00     0.167 HD
BRANCH  22  24
HETATM   24  C16 UNL     1      25.648  -0.549  54.063  1.00  0.00     0.033 A 
HETATM   25  C17 UNL     1      26.489   0.159  54.926  1.00  0.00     0.029 A 
HETATM   26  C18 UNL     1      27.864   0.260  54.771  1.00  0.00     0.002 A 
HETATM   27  C19 UNL     1      28.327  -0.416  53.672  1.00  0.00     0.000 A 
HETATM   28  C20 UNL     1      27.602  -1.132  52.772  1.00  0.00     0.002 A 
HETATM   29  C21 UNL     1      26.234  -1.197  52.976  1.00  0.00     0.029 A 
ENDBRANCH  22  24
ENDBRANCH  20  22
ENDBRANCH   5  20
TORSDOF 9
ENDMDL
MODEL 3
REMARK VINA RESULT:      -7.9      2.882      4.671
REMARK  9 active torsions:
REMARK  status: ('A' for Active; 'I' for Inactive)
REMARK    1  A    between atoms: C4_4  and  O1_5 
REMARK    2  A    between atoms: O1_5  and  C5_6 
REMARK    3  A    between atoms: C5_6  and  C6_7 
REMARK    4  A    between atoms: C6_7  and  N1_8 
REMARK    5  A    between atoms: N1_8  and  C7_9 
REMARK    6  A    between atoms: C7_9  and  C8_10 
REMARK    7  A    between atoms: C14_17  and  C15_18 
REMARK    8  A    between atoms: C15_18  and  N2_20 
REMARK    9  A    between atoms: N2_20  and  C16_21 
ROOT
HETATM    1  C1  UNL     1      26.428   4.252  49.277  1.00  0.00     0.048 C 
HETATM    2  C2  UNL     1      25.050   3.911  49.695  1.00  0.00    -0.062 A 
HETATM    3  C3  UNL     1      24.398   4.808  50.396  1.00  0.00     0.016 A 
HETATM    4  C4  UNL     1      22.985   4.341  50.770  1.00  0.00     0.181 A 
HETATM    5  C14 UNL     1      22.960   3.021  50.149  1.00  0.00     0.013 A 
HETATM    6  C22 UNL     1      24.135   2.797  49.549  1.00  0.00     0.019 A 
ENDROOT
BRANCH   4   7
HETATM    7  O1  UNL     1      22.863   4.380  52.134  1.00  0.00    -0.376 OA
BRANCH   7   8
HETATM    8  C5  UNL     1      24.017   4.390  52.862  1.00  0.00     0.199 C 
BRANCH   8   9
HETATM    9  C6  UNL     1      24.324   3.071  53.464  1.00  0.00     0.296 C 
BRANCH   9  10
HETATM   10  N1  UNL     1      25.757   2.792  53.515  1.00  0.00     0.089 N 
HETATM   11  H10 UNL     1      25.883   2.196  54.378  1.00  0.00     0.316 HD
BRANCH  10  12
HETATM   12  C7  UNL     1      26.242   2.041  52.404  1.00  0.00     0.308 C 
BRANCH  12  13
HETATM   13  C8  UNL     1      27.246   1.017  52.792  1.00  0.00    -0.030 A 
HETATM   14  C9  UNL     1      27.065  -0.362  52.678  1.00  0.00     0.012 A 
HETATM   15  C10 UNL     1      28.067  -1.225  53.074  1.00  0.00     0.043 A 
HETATM   16  C11 UNL     1      29.256  -0.749  53.585  1.00  0.00     0.116 A 
HETATM   17  F1  UNL     1      30.243  -1.596  53.978  1.00  0.00    -0.206 F 
HETATM   18  C12 UNL     1      29.464   0.608  53.710  1.00  0.00     0.043 A 
HETATM   19  C13 UNL     1      28.455   1.461  53.310  1.00  0.00     0.012 A 
ENDBRANCH  12  13
ENDBRANCH  10  12
ENDBRANCH   9  10
ENDBRANCH   8   9
ENDBRANCH   7   8
ENDBRANCH   4   7
BRANCH   5  20
HETATM   20  C15 UNL     1      22.021   1.920  50.008  1.00  0.00     0.110 C 
HETATM   21  S1  UNL     1      21.534   1.387  48.565  1.00  0.00    -0.060 SA
BRANCH  20  22
HETATM   22  N2  UNL     1      21.421   1.174  51.053  1.00  0.00    -0.347 N 
HETATM   23  H17 UNL     1      20.426   0.895  51.128  1.00  0.00     0.167 HD
BRANCH  22  24
HETATM   24  C16 UNL     1      21.728   0.524  52.305  1.00  0.00     0.033 A 
HETATM   25  C17 UNL     1      23.018   0.022  52.500  1.00  0.00     0.029 A 
HETATM   26  C18 UNL     1      23.442  -0.620  53.655  1.00  0.00     0.002 A 
HETATM   27  C19 UNL     1      22.458  -0.714  54.604  1.00  0.00     0.000 A 
HETATM   28  C20 UNL     1      21.177  -0.263  54.519  1.00  0.00     0.002 A 
HETATM   29  C21 UNL     1      20.810   0.368  53.343  1.00  0.00     0.029 A 
ENDBRANCH  22  24
ENDBRANCH  20  22
ENDBRANCH   5  20
TORSDOF 9
ENDMDL
MODEL 4
REMARK VINA RESULT:      -7.8      5.451      8.334
REMARK  9 active torsions:
REMARK  status: ('A' for Active; 'I' for Inactive)
REMARK    1  A    between atoms: C4_4  and  O1_5 
REMARK    2  A    between atoms: O1_5  and  C5_6 
REMARK    3  A    between atoms: C5_6  and  C6_7 
REMARK    4  A    between atoms: C6_7  and  N1_8 
REMARK    5  A    between atoms: N1_8  and  C7_9 
REMARK    6  A    between atoms: C7_9  and  C8_10 
REMARK    7  A    between atoms: C14_17  and  C15_18 
REMARK    8  A    between atoms: C15_18  and  N2_20 
REMARK    9  A    between atoms: N2_20  and  C16_21 
ROOT
HETATM    1  C1  UNL     1      27.184   4.399  48.948  1.00  0.00     0.048 C 
HETATM    2  C2  UNL     1      26.238   3.649  49.803  1.00  0.00    -0.062 A 
HETATM    3  C3  UNL     1      24.958   3.817  49.569  1.00  0.00     0.016 A 
HETATM    4  C4  UNL     1      24.078   2.990  50.517  1.00  0.00     0.181 A 
HETATM    5  C14 UNL     1      25.096   2.324  51.323  1.00  0.00     0.013 A 
HETATM    6  C22 UNL     1      26.307   2.711  50.904  1.00  0.00     0.019 A 
ENDROOT
BRANCH   4   7
HETATM    7  O1  UNL     1      23.233   3.842  51.177  1.00  0.00    -0.376 OA
BRANCH   7   8
HETATM    8  C5  UNL     1      21.900   3.728  50.908  1.00  0.00     0.199 C 
BRANCH   8   9
HETATM    9  C6  UNL     1      21.136   4.941  51.280  1.00  0.00     0.296 C 
BRANCH   9  10
HETATM   10  N1  UNL     1      21.997   6.068  51.631  1.00  0.00     0.089 N 
HETATM   11  H10 UNL     1      22.973   5.663  51.648  1.00  0.00     0.316 HD
BRANCH  10  12
HETATM   12  C7  UNL     1      21.991   7.123  50.671  1.00  0.00     0.308 C 
BRANCH  12  13
HETATM   13  C8  UNL     1      23.299   7.288  49.985  1.00  0.00    -0.030 A 
HETATM   14  C9  UNL     1      23.470   7.362  48.602  1.00  0.00     0.012 A 
HETATM   15  C10 UNL     1      24.736   7.513  48.070  1.00  0.00     0.043 A 
HETATM   16  C11 UNL     1      25.845   7.592  48.886  1.00  0.00     0.116 A 
HETATM   17  F1  UNL     1      27.092   7.738  48.365  1.00  0.00    -0.206 F 
HETATM   18  C12 UNL     1      25.707   7.522  50.255  1.00  0.00     0.043 A 
HETATM   19  C13 UNL     1      24.437   7.372  50.775  1.00  0.00     0.012 A 
ENDBRANCH  12  13
ENDBRANCH  10  12
ENDBRANCH   9  10
ENDBRANCH   8   9
ENDBRANCH   7   8
ENDBRANCH   4   7
BRANCH   5  20
HETATM   20  C15 UNL     1      25.141   1.375  52.422  1.00  0.00     0.110 C 
HETATM   21  S1  UNL     1      23.812   0.651  52.985  1.00  0.00    -0.060 SA
BRANCH  20  22
HETATM   22  N2  UNL     1      26.290   0.949  53.134  1.00  0.00    -0.347 N 
HETATM   23  H17 UNL     1      26.713   1.402  53.965  1.00  0.00     0.167 HD
BRANCH  22  24
HETATM   24  C16 UNL     1      27.300  -0.083  53.146  1.00  0.00     0.033 A 
HETATM   25  C17 UNL     1      28.604   0.261  53.515  1.00  0.00     0.029 A 
HETATM   26  C18 UNL     1      29.663  -0.633  53.571  1.00  0.00     0.002 A 
HETATM   27  C19 UNL     1      29.302  -1.909  53.225  1.00  0.00     0.000 A 
HETATM   28  C20 UNL     1      28.071  -2.351  52.852  1.00  0.00     0.002 A 
HETATM   29  C21 UNL     1      27.052  -1.414  52.813  1.00  0.00     0.029 A 
ENDBRANCH  22  24
ENDBRANCH  20  22
ENDBRANCH   5  20
TORSDOF 9
ENDMDL
MODEL 5
REMARK VINA RESULT:      -7.7      3.649      6.401
REMARK  9 active torsions:
REMARK  status: ('A' for Active; 'I' for Inactive)
REMARK    1  A    between atoms: C4_4  and  O1_5 
REMARK    2  A    between atoms: O1_5  and  C5_6 
REMARK    3  A    between atoms: C5_6  and  C6_7 
REMARK    4  A    between atoms: C6_7  and  N1_8 
REMARK    5  A    between atoms: N1_8  and  C7_9 
REMARK    6  A    between atoms: C7_9  and  C8_10 
REMARK    7  A    between atoms: C14_17  and  C15_18 
REMARK    8  A    between atoms: C15_18  and  N2_20 
REMARK    9  A    between atoms: N2_20  and  C16_21 
ROOT
HETATM    1  C1  UNL     1      21.902   1.380  48.204  1.00  0.00     0.048 C 
HETATM    2  C2  UNL     1      21.573   1.175  49.632  1.00  0.00    -0.062 A 
HETATM    3  C3  UNL     1      20.368   1.518  50.023  1.00  0.00     0.016 A 
HETATM    4  C4  UNL     1      20.147   1.261  51.520  1.00  0.00     0.181 A 
HETATM    5  C14 UNL     1      21.443   0.708  51.898  1.00  0.00     0.013 A 
HETATM    6  C22 UNL     1      22.233   0.670  50.818  1.00  0.00     0.019 A 
ENDROOT
BRANCH   4   7
HETATM    7  O1  UNL     1      19.786   2.442  52.114  1.00  0.00    -0.376 OA
BRANCH   7   8
HETATM    8  C5  UNL     1      20.789   3.311  52.428  1.00  0.00     0.199 C 
BRANCH   8   9
HETATM    9  C6  UNL     1      20.832   4.486  51.526  1.00  0.00     0.296 C 
BRANCH   9  10
HETATM   10  N1  UNL     1      22.056   4.544  50.730  1.00  0.00     0.089 N 
HETATM   11  H10 UNL     1      22.141   5.558  50.444  1.00  0.00     0.316 HD
BRANCH  10  12
HETATM   12  C7  UNL     1      23.236   4.207  51.458  1.00  0.00     0.308 C 
BRANCH  12  13
HETATM   13  C8  UNL     1      24.474   4.341  50.646  1.00  0.00    -0.030 A 
HETATM   14  C9  UNL     1      24.993   5.548  50.177  1.00  0.00     0.012 A 
HETATM   15  C10 UNL     1      26.152   5.556  49.426  1.00  0.00     0.043 A 
HETATM   16  C11 UNL     1      26.813   4.384  49.127  1.00  0.00     0.116 A 
HETATM   17  F1  UNL     1      27.953   4.388  48.385  1.00  0.00    -0.206 F 
HETATM   18  C12 UNL     1      26.324   3.176  49.576  1.00  0.00     0.043 A 
HETATM   19  C13 UNL     1      25.166   3.181  50.326  1.00  0.00     0.012 A 
ENDBRANCH  12  13
ENDBRANCH  10  12
ENDBRANCH   9  10
ENDBRANCH   8   9
ENDBRANCH   7   8
ENDBRANCH   4   7
BRANCH   5  20
HETATM   20  C15 UNL     1      22.082   0.197  53.099  1.00  0.00     0.110 C 
HETATM   21  S1  UNL     1      21.272  -0.007  54.480  1.00  0.00    -0.060 SA
BRANCH  20  22
HETATM   22  N2  UNL     1      23.437  -0.189  53.245  1.00  0.00    -0.347 N 
HETATM   23  H17 UNL     1      23.796  -1.131  53.481  1.00  0.00     0.167 HD
BRANCH  22  24
HETATM   24  C16 UNL     1      24.781   0.336  53.175  1.00  0.00     0.033 A 
HETATM   25  C17 UNL     1      25.022   1.626  53.657  1.00  0.00     0.029 A 
HETATM   26  C18 UNL     1      26.264   2.245  53.652  1.00  0.00     0.002 A 
HETATM   27  C19 UNL     1      27.250   1.455  53.121  1.00  0.00     0.000 A 
HETATM   28  C20 UNL     1      27.127   0.194  52.626  1.00  0.00     0.002 A 
HETATM   29  C21 UNL     1      25.864  -0.373  52.656  1.00  0.00     0.029 A 
ENDBRANCH  22  24
ENDBRANCH  20  22
ENDBRANCH   5  20
TORSDOF 9
ENDMDL
MODEL 6
REMARK VINA RESULT:      -7.5      3.147      7.862
REMARK  9 active torsions:
REMARK  status: ('A' for Active; 'I' for Inactive)
REMARK    1  A    between atoms: C4_4  and  O1_5 
REMARK    2  A    between atoms: O1_5  and  C5_6 
REMARK    3  A    between atoms: C5_6  and  C6_7 
REMARK    4  A    between atoms: C6_7  and  N1_8 
REMARK    5  A    between atoms: N1_8  and  C7_9 
REMARK    6  A    between atoms: C7_9  and  C8_10 
REMARK    7  A    between atoms: C14_17  and  C15_18 
REMARK    8  A    between atoms: C15_18  and  N2_20 
REMARK    9  A    between atoms: N2_20  and  C16_21 
ROOT
HETATM    1  C1  UNL     1      21.966   4.598  47.117  1.00  0.00     0.048 C 
HETATM    2  C2  UNL     1      22.674   4.118  48.323  1.00  0.00    -0.062 A 
HETATM    3  C3  UNL     1      21.938   3.638  49.298  1.00  0.00     0.016 A 
HETATM    4  C4  UNL     1      22.782   3.173  50.492  1.00  0.00     0.181 A 
HETATM    5  C14 UNL     1      24.126   3.475  50.011  1.00  0.00     0.013 A 
HETATM    6  C22 UNL     1      24.042   4.009  48.786  1.00  0.00     0.019 A 
ENDROOT
BRANCH   4   7
HETATM    7  O1  UNL     1      22.363   3.849  51.608  1.00  0.00    -0.376 OA
BRANCH   7   8
HETATM    8  C5  UNL     1      21.019   3.901  51.835  1.00  0.00     0.199 C 
BRANCH   8   9
HETATM    9  C6  UNL     1      20.522   2.734  52.601  1.00  0.00     0.296 C 
BRANCH   9  10
HETATM   10  N1  UNL     1      19.772   1.792  51.774  1.00  0.00     0.089 N 
HETATM   11  H10 UNL     1      19.582   2.316  50.876  1.00  0.00     0.316 HD
BRANCH  10  12
HETATM   12  C7  UNL     1      20.499   0.613  51.433  1.00  0.00     0.308 C 
BRANCH  12  13
HETATM   13  C8  UNL     1      21.193   0.004  52.598  1.00  0.00    -0.030 A 
HETATM   14  C9  UNL     1      20.559  -0.673  53.640  1.00  0.00     0.012 A 
HETATM   15  C10 UNL     1      21.304  -1.197  54.678  1.00  0.00     0.043 A 
HETATM   16  C11 UNL     1      22.676  -1.063  54.705  1.00  0.00     0.116 A 
HETATM   17  F1  UNL     1      23.412  -1.576  55.727  1.00  0.00    -0.206 F 
HETATM   18  C12 UNL     1      23.330  -0.399  53.691  1.00  0.00     0.043 A 
HETATM   19  C13 UNL     1      22.575   0.119  52.659  1.00  0.00     0.012 A 
ENDBRANCH  12  13
ENDBRANCH  10  12
ENDBRANCH   9  10
ENDBRANCH   8   9
ENDBRANCH   7   8
ENDBRANCH   4   7
BRANCH   5  20
HETATM   20  C15 UNL     1      25.491   3.347  50.493  1.00  0.00     0.110 C 
HETATM   21  S1  UNL     1      26.758   3.834  49.620  1.00  0.00    -0.060 SA
BRANCH  20  22
HETATM   22  N2  UNL     1      25.908   2.812  51.737  1.00  0.00    -0.347 N 
HETATM   23  H17 UNL     1      25.625   3.132  52.681  1.00  0.00     0.167 HD
BRANCH  22  24
HETATM   24  C16 UNL     1      26.747   1.783  52.307  1.00  0.00     0.033 A 
HETATM   25  C17 UNL     1      27.818   2.166  53.119  1.00  0.00     0.029 A 
HETATM   26  C18 UNL     1      28.695   1.279  53.728  1.00  0.00     0.002 A 
HETATM   27  C19 UNL     1      28.403  -0.031  53.454  1.00  0.00     0.000 A 
HETATM   28  C20 UNL     1      27.391  -0.512  52.682  1.00  0.00     0.002 A 
HETATM   29  C21 UNL     1      26.548   0.418  52.098  1.00  0.00     0.029 A 
ENDBRANCH  22  24
ENDBRANCH  20  22
ENDBRANCH   5  20
TORSDOF 9
ENDMDL
MODEL 7
REMARK VINA RESULT:      -7.5      3.480      8.575
REMARK  9 active torsions:
REMARK  status: ('A' for Active; 'I' for Inactive)
REMARK    1  A    between atoms: C4_4  and  O1_5 
REMARK    2  A    between atoms: O1_5  and  C5_6 
REMARK    3  A    between atoms: C5_6  and  C6_7 
REMARK    4  A    between atoms: C6_7  and  N1_8 
REMARK    5  A    between atoms: N1_8  and  C7_9 
REMARK    6  A    between atoms: C7_9  and  C8_10 
REMARK    7  A    between atoms: C14_17  and  C15_18 
REMARK    8  A    between atoms: C15_18  and  N2_20 
REMARK    9  A    between atoms: N2_20  and  C16_21 
ROOT
HETATM    1  C1  UNL     1      21.167   1.029  49.204  1.00  0.00     0.048 C 
HETATM    2  C2  UNL     1      22.018   1.274  50.389  1.00  0.00    -0.062 A 
HETATM    3  C3  UNL     1      22.213   0.264  51.204  1.00  0.00     0.016 A 
HETATM    4  C4  UNL     1      23.108   0.639  52.393  1.00  0.00     0.181 A 
HETATM    5  C14 UNL     1      23.385   2.041  52.095  1.00  0.00     0.013 A 
HETATM    6  C22 UNL     1      22.759   2.379  50.962  1.00  0.00     0.019 A 
ENDROOT
BRANCH   4   7
HETATM    7  O1  UNL     1      22.423   0.381  53.550  1.00  0.00    -0.376 OA
BRANCH   7   8
HETATM    8  C5  UNL     1      22.401  -0.912  53.985  1.00  0.00     0.199 C 
BRANCH   8   9
HETATM    9  C6  UNL     1      21.093  -1.299  54.563  1.00  0.00     0.296 C 
BRANCH   9  10
HETATM   10  N1  UNL     1      20.016  -0.385  54.189  1.00  0.00     0.089 N 
HETATM   11  H10 UNL     1      20.510   0.472  53.817  1.00  0.00     0.316 HD
BRANCH  10  12
HETATM   12  C7  UNL     1      19.174  -0.877  53.148  1.00  0.00     0.308 C 
BRANCH  12  13
HETATM   13  C8  UNL     1      18.737   0.187  52.206  1.00  0.00    -0.030 A 
HETATM   14  C9  UNL     1      19.039   1.543  52.339  1.00  0.00     0.012 A 
HETATM   15  C10 UNL     1      18.577   2.448  51.404  1.00  0.00     0.043 A 
HETATM   16  C11 UNL     1      17.817   2.035  50.331  1.00  0.00     0.116 A 
HETATM   17  F1  UNL     1      17.358   2.924  49.410  1.00  0.00    -0.206 F 
HETATM   18  C12 UNL     1      17.503   0.703  50.173  1.00  0.00     0.043 A 
HETATM   19  C13 UNL     1      17.970  -0.192  51.114  1.00  0.00     0.012 A 
ENDBRANCH  12  13
ENDBRANCH  10  12
ENDBRANCH   9  10
ENDBRANCH   8   9
ENDBRANCH   7   8
ENDBRANCH   4   7
BRANCH   5  20
HETATM   20  C15 UNL     1      24.143   3.132  52.684  1.00  0.00     0.110 C 
HETATM   21  S1  UNL     1      23.578   4.643  52.728  1.00  0.00    -0.060 SA
BRANCH  20  22
HETATM   22  N2  UNL     1      25.423   3.052  53.285  1.00  0.00    -0.347 N 
HETATM   23  H17 UNL     1      26.013   3.841  53.607  1.00  0.00     0.167 HD
BRANCH  22  24
HETATM   24  C16 UNL     1      26.423   2.097  53.706  1.00  0.00     0.033 A 
HETATM   25  C17 UNL     1      27.762   2.348  53.394  1.00  0.00     0.029 A 
HETATM   26  C18 UNL     1      28.816   1.515  53.742  1.00  0.00     0.002 A 
HETATM   27  C19 UNL     1      28.411   0.405  54.435  1.00  0.00     0.000 A 
HETATM   28  C20 UNL     1      27.143   0.065  54.790  1.00  0.00     0.002 A 
HETATM   29  C21 UNL     1      26.131   0.932  54.416  1.00  0.00     0.029 A 
ENDBRANCH  22  24
ENDBRANCH  20  22
ENDBRANCH   5  20
TORSDOF 9
ENDMDL
MODEL 8
REMARK VINA RESULT:      -7.3      5.070      8.465
REMARK  9 active torsions:
REMARK  status: ('A' for Active; 'I' for Inactive)
REMARK    1  A    between atoms: C4_4  and  O1_5 
REMARK    2  A    between atoms: O1_5  and  C5_6 
REMARK    3  A    between atoms: C5_6  and  C6_7 
REMARK    4  A    between atoms: C6_7  and  N1_8 
REMARK    5  A    between atoms: N1_8  and  C7_9 
REMARK    6  A    between atoms: C7_9  and  C8_10 
REMARK    7  A    between atoms: C14_17  and  C15_18 
REMARK    8  A    between atoms: C15_18  and  N2_20 
REMARK    9  A    between atoms: N2_20  and  C16_21 
ROOT
HETATM    1  C1  UNL     1      27.650   4.591  48.700  1.00  0.00     0.048 C 
HETATM    2  C2  UNL     1      26.632   4.015  49.605  1.00  0.00    -0.062 A 
HETATM    3  C3  UNL     1      25.423   4.523  49.546  1.00  0.00     0.016 A 
HETATM    4  C4  UNL     1      24.457   3.847  50.529  1.00  0.00     0.181 A 
HETATM    5  C14 UNL     1      25.341   2.864  51.147  1.00  0.00     0.013 A 
HETATM    6  C22 UNL     1      26.563   2.977  50.613  1.00  0.00     0.019 A 
ENDROOT
BRANCH   4   7
HETATM    7  O1  UNL     1      23.935   4.807  51.353  1.00  0.00    -0.376 OA
BRANCH   7   8
HETATM    8  C5  UNL     1      24.102   6.108  50.977  1.00  0.00     0.199 C 
BRANCH   8   9
HETATM    9  C6  UNL     1      22.822   6.778  50.649  1.00  0.00     0.296 C 
BRANCH   9  10
HETATM   10  N1  UNL     1      22.507   6.729  49.223  1.00  0.00     0.089 N 
HETATM   11  H10 UNL     1      23.265   6.125  48.802  1.00  0.00     0.316 HD
BRANCH  10  12
HETATM   12  C7  UNL     1      21.256   6.109  48.927  1.00  0.00     0.308 C 
BRANCH  12  13
HETATM   13  C8  UNL     1      21.354   4.629  48.828  1.00  0.00    -0.030 A 
HETATM   14  C9  UNL     1      20.772   3.730  49.722  1.00  0.00     0.012 A 
HETATM   15  C10 UNL     1      20.930   2.371  49.535  1.00  0.00     0.043 A 
HETATM   16  C11 UNL     1      21.658   1.879  48.473  1.00  0.00     0.116 A 
HETATM   17  F1  UNL     1      21.818   0.542  48.287  1.00  0.00    -0.206 F 
HETATM   18  C12 UNL     1      22.245   2.743  47.573  1.00  0.00     0.043 A 
HETATM   19  C13 UNL     1      22.079   4.099  47.770  1.00  0.00     0.012 A 
ENDBRANCH  12  13
ENDBRANCH  10  12
ENDBRANCH   9  10
ENDBRANCH   8   9
ENDBRANCH   7   8
ENDBRANCH   4   7
BRANCH   5  20
HETATM   20  C15 UNL     1      25.245   1.821  52.155  1.00  0.00     0.110 C 
HETATM   21  S1  UNL     1      23.905   0.945  52.359  1.00  0.00    -0.060 SA
BRANCH  20  22
HETATM   22  N2  UNL     1      26.255   1.422  53.065  1.00  0.00    -0.347 N 
HETATM   23  H17 UNL     1      26.401   1.772  54.030  1.00  0.00     0.167 HD
BRANCH  22  24
HETATM   24  C16 UNL     1      27.388   0.534  53.186  1.00  0.00     0.033 A 
HETATM   25  C17 UNL     1      27.197  -0.831  52.952  1.00  0.00     0.029 A 
HETATM   26  C18 UNL     1      28.200  -1.787  53.031  1.00  0.00     0.002 A 
HETATM   27  C19 UNL     1      29.417  -1.255  53.366  1.00  0.00     0.000 A 
HETATM   28  C20 UNL     1      29.713   0.049  53.614  1.00  0.00     0.002 A 
HETATM   29  C21 UNL     1      28.674   0.958  53.521  1.00  0.00     0.029 A 
ENDBRANCH  22  24
ENDBRANCH  20  22
ENDBRANCH   5  20
TORSDOF 9
ENDMDL
MODEL 9
REMARK VINA RESULT:      -7.3      6.541      9.382
REMARK  9 active torsions:
REMARK  status: ('A' for Active; 'I' for Inactive)
REMARK    1  A    between atoms: C4_4  and  O1_5 
REMARK    2  A    between atoms: O1_5  and  C5_6 
REMARK    3  A    between atoms: C5_6  and  C6_7 
REMARK    4  A    between atoms: C6_7  and  N1_8 
REMARK    5  A    between atoms: N1_8  and  C7_9 
REMARK    6  A    between atoms: C7_9  and  C8_10 
REMARK    7  A    between atoms: C14_17  and  C15_18 
REMARK    8  A    between atoms: C15_18  and  N2_20 
REMARK    9  A    between atoms: N2_20  and  C16_21 
ROOT
HETATM    1  C1  UNL     1      28.934   5.375  48.076  1.00  0.00     0.048 C 
HETATM    2  C2  UNL     1      27.633   5.025  48.687  1.00  0.00    -0.062 A 
HETATM    3  C3  UNL     1      26.643   5.868  48.509  1.00  0.00     0.016 A 
HETATM    4  C4  UNL     1      25.349   5.398  49.188  1.00  0.00     0.181 A 
HETATM    5  C14 UNL     1      25.790   4.137  49.775  1.00  0.00     0.013 A 
HETATM    6  C22 UNL     1      27.082   3.947  49.482  1.00  0.00     0.019 A 
ENDROOT
BRANCH   4   7
HETATM    7  O1  UNL     1      24.939   6.372  50.060  1.00  0.00    -0.376 OA
BRANCH   7   8
HETATM    8  C5  UNL     1      24.748   7.623  49.550  1.00  0.00     0.199 C 
BRANCH   8   9
HETATM    9  C6  UNL     1      25.371   8.680  50.380  1.00  0.00     0.296 C 
BRANCH   9  10
HETATM   10  N1  UNL     1      26.789   8.439  50.634  1.00  0.00     0.089 N 
HETATM   11  H10 UNL     1      27.031   7.605  50.031  1.00  0.00     0.316 HD
BRANCH  10  12
HETATM   12  C7  UNL     1      27.640   9.512  50.235  1.00  0.00     0.308 C 
BRANCH  12  13
HETATM   13  C8  UNL     1      28.424   9.205  49.010  1.00  0.00    -0.030 A 
HETATM   14  C9  UNL     1      27.895   9.135  47.721  1.00  0.00     0.012 A 
HETATM   15  C10 UNL     1      28.717   8.837  46.652  1.00  0.00     0.043 A 
HETATM   16  C11 UNL     1      30.064   8.604  46.835  1.00  0.00     0.116 A 
HETATM   17  F1  UNL     1      30.875   8.308  45.785  1.00  0.00    -0.206 F 
HETATM   18  C12 UNL     1      30.615   8.666  48.096  1.00  0.00     0.043 A 
HETATM   19  C13 UNL     1      29.783   8.966  49.156  1.00  0.00     0.012 A 
ENDBRANCH  12  13
ENDBRANCH  10  12
ENDBRANCH   9  10
ENDBRANCH   8   9
ENDBRANCH   7   8
ENDBRANCH   4   7
BRANCH   5  20
HETATM   20  C15 UNL     1      25.212   3.063  50.565  1.00  0.00     0.110 C 
HETATM   21  S1  UNL     1      23.672   3.086  51.047  1.00  0.00    -0.060 SA
BRANCH  20  22
HETATM   22  N2  UNL     1      25.865   1.887  51.009  1.00  0.00    -0.347 N 
HETATM   23  H17 UNL     1      25.819   0.946  50.576  1.00  0.00     0.167 HD
BRANCH  22  24
HETATM   24  C16 UNL     1      26.748   1.400  52.043  1.00  0.00     0.033 A 
HETATM   25  C17 UNL     1      26.739   0.035  52.344  1.00  0.00     0.029 A 
HETATM   26  C18 UNL     1      27.538  -0.560  53.310  1.00  0.00     0.002 A 
HETATM   27  C19 UNL     1      28.353   0.335  53.951  1.00  0.00     0.000 A 
HETATM   28  C20 UNL     1      28.442   1.676  53.739  1.00  0.00     0.002 A 
HETATM   29  C21 UNL     1      27.621   2.214  52.764  1.00  0.00     0.029 A 
ENDBRANCH  22  24
ENDBRANCH  20  22
ENDBRANCH   5  20
TORSDOF 9
ENDMDL
