MODEL 1
REMARK VINA RESULT:      -7.1      0.000      0.000
REMARK  6 active torsions:
REMARK  status: ('A' for Active; 'I' for Inactive)
REMARK    1  A    between atoms: C2_2  and  C3_3 
REMARK    2  A    between atoms: C3_3  and  O3_20 
REMARK    3  A    between atoms: C4_4  and  C5_5 
REMARK    4  A    between atoms: C5_5  and  O1_6 
REMARK    5  A    between atoms: O1_6  and  C6_7 
REMARK    6  A    between atoms: C13_16  and  O2_17 
ROOT
HETATM    1  C6  UNL     1      26.751   1.948  51.804  1.00  0.00     0.176 C 
HETATM    2  N1  UNL     1      27.929   2.454  52.283  1.00  0.00    -0.217 NA
HETATM    3  C7  UNL     1      28.269   2.137  53.755  1.00  0.00     0.230 C 
HETATM    4  N2  UNL     1      27.804   1.140  54.556  1.00  0.00    -0.270 NA
HETATM    5  C8  UNL     1      27.152  -0.118  54.528  1.00  0.00     0.157 C 
HETATM    6  C9  UNL     1      27.470  -0.925  53.259  1.00  0.00     0.005 C 
HETATM    7  C10 UNL     1      27.093  -0.827  51.925  1.00  0.00     0.014 C 
HETATM    8  C11 UNL     1      26.358   0.494  51.983  1.00  0.00     0.019 C 
HETATM    9  C12 UNL     1      25.043   0.771  52.391  1.00  0.00     0.052 C 
HETATM   10  C13 UNL     1      24.672   0.179  53.779  1.00  0.00     0.067 C 
HETATM   11  C15 UNL     1      25.635  -0.157  54.735  1.00  0.00     0.041 C 
ENDROOT
BRANCH   1  12
HETATM   12  O1  UNL     1      25.660   2.518  51.103  1.00  0.00    -0.330 OA
BRANCH  12  13
HETATM   13  C5  UNL     1      26.160   3.030  49.819  1.00  0.00     0.207 C 
BRANCH  13  14
HETATM   14  C4  UNL     1      25.873   4.470  49.761  1.00  0.00     0.036 C 
HETATM   15  C3  UNL     1      26.643   5.353  49.177  1.00  0.00     0.065 C 
BRANCH  15  16
HETATM   16  C2  UNL     1      27.879   5.038  48.508  1.00  0.00     0.026 C 
HETATM   17  C1  UNL     1      28.677   6.011  48.131  1.00  0.00     0.014 C 
ENDBRANCH  15  16
BRANCH  15  18
HETATM   18  O3  UNL     1      26.185   6.657  49.240  1.00  0.00    -0.356 OA
HETATM   19  C16 UNL     1      25.453   7.167  50.331  1.00  0.00     0.210 C 
ENDBRANCH  15  18
ENDBRANCH  13  14
ENDBRANCH  12  13
ENDBRANCH   1  12
BRANCH  10  20
HETATM   20  O2  UNL     1      23.331   0.159  53.646  1.00  0.00    -0.356 OA
HETATM   21  C14 UNL     1      22.747   1.163  52.814  1.00  0.00     0.210 C 
ENDBRANCH  10  20
TORSDOF 6
ENDMDL
MODEL 2
REMARK VINA RESULT:      -6.7      2.397      6.844
REMARK  6 active torsions:
REMARK  status: ('A' for Active; 'I' for Inactive)
REMARK    1  A    between atoms: C2_2  and  C3_3 
REMARK    2  A    between atoms: C3_3  and  O3_20 
REMARK    3  A    between atoms: C4_4  and  C5_5 
REMARK    4  A    between atoms: C5_5  and  O1_6 
REMARK    5  A    between atoms: O1_6  and  C6_7 
REMARK    6  A    between atoms: C13_16  and  O2_17 
ROOT
HETATM    1  C6  UNL     1      24.672   3.220  51.566  1.00  0.00     0.176 C 
HETATM    2  N1  UNL     1      23.710   3.904  52.258  1.00  0.00    -0.217 NA
HETATM    3  C7  UNL     1      23.491   5.379  51.861  1.00  0.00     0.230 C 
HETATM    4  N2  UNL     1      23.811   6.022  50.705  1.00  0.00    -0.270 NA
HETATM    5  C8  UNL     1      24.149   5.798  49.347  1.00  0.00     0.157 C 
HETATM    6  C9  UNL     1      23.500   4.529  48.773  1.00  0.00     0.005 C 
HETATM    7  C10 UNL     1      23.722   3.166  48.934  1.00  0.00     0.014 C 
HETATM    8  C11 UNL     1      24.741   3.223  50.050  1.00  0.00     0.019 C 
HETATM    9  C12 UNL     1      26.124   3.456  49.990  1.00  0.00     0.052 C 
HETATM   10  C13 UNL     1      26.519   4.724  49.182  1.00  0.00     0.067 C 
HETATM   11  C15 UNL     1      25.630   5.779  48.959  1.00  0.00     0.041 C 
ENDROOT
BRANCH   1  12
HETATM   12  O1  UNL     1      25.769   2.416  51.960  1.00  0.00    -0.330 OA
BRANCH  12  13
HETATM   13  C5  UNL     1      25.446   1.807  53.259  1.00  0.00     0.207 C 
BRANCH  13  14
HETATM   14  C4  UNL     1      25.665   0.359  53.150  1.00  0.00     0.036 C 
HETATM   15  C3  UNL     1      26.555  -0.308  53.843  1.00  0.00     0.065 C 
BRANCH  15  16
HETATM   16  C2  UNL     1      27.443   0.286  54.809  1.00  0.00     0.026 C 
HETATM   17  C1  UNL     1      28.742   0.170  54.650  1.00  0.00     0.014 C 
ENDBRANCH  15  16
BRANCH  15  18
HETATM   18  O3  UNL     1      26.596  -1.665  53.584  1.00  0.00    -0.356 OA
HETATM   19  C16 UNL     1      26.972  -2.205  52.338  1.00  0.00     0.210 C 
ENDBRANCH  15  18
ENDBRANCH  13  14
ENDBRANCH  12  13
ENDBRANCH   1  12
BRANCH  10  20
HETATM   20  O2  UNL     1      27.792   4.396  48.888  1.00  0.00    -0.356 OA
HETATM   21  C14 UNL     1      28.594   5.403  48.268  1.00  0.00     0.210 C 
ENDBRANCH  10  20
TORSDOF 6
ENDMDL
MODEL 3
REMARK VINA RESULT:      -6.5      3.052      5.526
REMARK  6 active torsions:
REMARK  status: ('A' for Active; 'I' for Inactive)
REMARK    1  A    between atoms: C2_2  and  C3_3 
REMARK    2  A    between atoms: C3_3  and  O3_20 
REMARK    3  A    between atoms: C4_4  and  C5_5 
REMARK    4  A    between atoms: C5_5  and  O1_6 
REMARK    5  A    between atoms: O1_6  and  C6_7 
REMARK    6  A    between atoms: C13_16  and  O2_17 
ROOT
HETATM    1  C6  UNL     1      23.040   0.408  52.876  1.00  0.00     0.176 C 
HETATM    2  N1  UNL     1      22.445  -0.671  53.470  1.00  0.00    -0.217 NA
HETATM    3  C7  UNL     1      20.946  -0.531  53.812  1.00  0.00     0.230 C 
HETATM    4  N2  UNL     1      20.016   0.319  53.297  1.00  0.00    -0.270 NA
HETATM    5  C8  UNL     1      19.753   1.170  52.196  1.00  0.00     0.157 C 
HETATM    6  C9  UNL     1      20.415   0.684  50.897  1.00  0.00     0.005 C 
HETATM    7  C10 UNL     1      21.721   0.659  50.421  1.00  0.00     0.014 C 
HETATM    8  C11 UNL     1      22.438   1.111  51.674  1.00  0.00     0.019 C 
HETATM    9  C12 UNL     1      22.630   2.406  52.179  1.00  0.00     0.052 C 
HETATM   10  C13 UNL     1      21.328   3.248  52.280  1.00  0.00     0.067 C 
HETATM   11  C15 UNL     1      20.059   2.664  52.341  1.00  0.00     0.041 C 
ENDROOT
BRANCH   1  12
HETATM   12  O1  UNL     1      24.226   1.135  53.143  1.00  0.00    -0.330 OA
BRANCH  12  13
HETATM   13  C5  UNL     1      25.373   0.286  52.791  1.00  0.00     0.207 C 
BRANCH  13  14
HETATM   14  C4  UNL     1      26.598   1.073  52.983  1.00  0.00     0.036 C 
HETATM   15  C3  UNL     1      27.087   1.907  52.100  1.00  0.00     0.065 C 
BRANCH  15  16
HETATM   16  C2  UNL     1      26.492   2.171  50.815  1.00  0.00     0.026 C 
HETATM   17  C1  UNL     1      26.210   3.408  50.475  1.00  0.00     0.014 C 
ENDBRANCH  15  16
BRANCH  15  18
HETATM   18  O3  UNL     1      28.252   2.545  52.485  1.00  0.00    -0.356 OA
HETATM   19  C16 UNL     1      28.808   2.429  53.775  1.00  0.00     0.210 C 
ENDBRANCH  15  18
ENDBRANCH  13  14
ENDBRANCH  12  13
ENDBRANCH   1  12
BRANCH  10  20
HETATM   20  O2  UNL     1      21.873   4.479  52.282  1.00  0.00    -0.356 OA
HETATM   21  C14 UNL     1      23.274   4.567  52.550  1.00  0.00     0.210 C 
ENDBRANCH  10  20
TORSDOF 6
ENDMDL
MODEL 4
REMARK VINA RESULT:      -6.5      1.514      2.240
REMARK  6 active torsions:
REMARK  status: ('A' for Active; 'I' for Inactive)
REMARK    1  A    between atoms: C2_2  and  C3_3 
REMARK    2  A    between atoms: C3_3  and  O3_20 
REMARK    3  A    between atoms: C4_4  and  C5_5 
REMARK    4  A    between atoms: C5_5  and  O1_6 
REMARK    5  A    between atoms: O1_6  and  C6_7 
REMARK    6  A    between atoms: C13_16  and  O2_17 
ROOT
HETATM    1  C6  UNL     1      26.681   1.952  51.799  1.00  0.00     0.176 C 
HETATM    2  N1  UNL     1      27.871   2.470  52.230  1.00  0.00    -0.217 NA
HETATM    3  C7  UNL     1      28.275   2.153  53.686  1.00  0.00     0.230 C 
HETATM    4  N2  UNL     1      27.855   1.149  54.502  1.00  0.00    -0.270 NA
HETATM    5  C8  UNL     1      27.217  -0.116  54.497  1.00  0.00     0.157 C 
HETATM    6  C9  UNL     1      27.491  -0.916  53.214  1.00  0.00     0.005 C 
HETATM    7  C10 UNL     1      27.058  -0.819  51.897  1.00  0.00     0.014 C 
HETATM    8  C11 UNL     1      26.311   0.493  51.989  1.00  0.00     0.019 C 
HETATM    9  C12 UNL     1      25.012   0.754  52.452  1.00  0.00     0.052 C 
HETATM   10  C13 UNL     1      24.704   0.155  53.852  1.00  0.00     0.067 C 
HETATM   11  C15 UNL     1      25.710  -0.173  54.766  1.00  0.00     0.041 C 
ENDROOT
BRANCH   1  12
HETATM   12  O1  UNL     1      25.556   2.511  51.145  1.00  0.00    -0.330 OA
BRANCH  12  13
HETATM   13  C5  UNL     1      26.028   3.216  49.944  1.00  0.00     0.207 C 
BRANCH  13  14
HETATM   14  C4  UNL     1      25.115   4.336  49.685  1.00  0.00     0.036 C 
HETATM   15  C3  UNL     1      23.932   4.213  49.136  1.00  0.00     0.065 C 
BRANCH  15  16
HETATM   16  C2  UNL     1      23.360   2.963  48.710  1.00  0.00     0.026 C 
HETATM   17  C1  UNL     1      22.379   2.430  49.403  1.00  0.00     0.014 C 
ENDBRANCH  15  16
BRANCH  15  18
HETATM   18  O3  UNL     1      23.236   5.398  48.983  1.00  0.00    -0.356 OA
HETATM   19  C16 UNL     1      23.033   6.318  50.032  1.00  0.00     0.210 C 
ENDBRANCH  15  18
ENDBRANCH  13  14
ENDBRANCH  12  13
ENDBRANCH   1  12
BRANCH  10  20
HETATM   20  O2  UNL     1      23.360   0.120  53.774  1.00  0.00    -0.356 OA
HETATM   21  C14 UNL     1      22.741   1.003  52.837  1.00  0.00     0.210 C 
ENDBRANCH  10  20
TORSDOF 6
ENDMDL
MODEL 5
REMARK VINA RESULT:      -6.4      3.488      6.302
REMARK  6 active torsions:
REMARK  status: ('A' for Active; 'I' for Inactive)
REMARK    1  A    between atoms: C2_2  and  C3_3 
REMARK    2  A    between atoms: C3_3  and  O3_20 
REMARK    3  A    between atoms: C4_4  and  C5_5 
REMARK    4  A    between atoms: C5_5  and  O1_6 
REMARK    5  A    between atoms: O1_6  and  C6_7 
REMARK    6  A    between atoms: C13_16  and  O2_17 
ROOT
HETATM    1  C6  UNL     1      23.432   1.003  52.532  1.00  0.00     0.176 C 
HETATM    2  N1  UNL     1      23.163  -0.084  53.318  1.00  0.00    -0.217 NA
HETATM    3  C7  UNL     1      21.755  -0.152  53.945  1.00  0.00     0.230 C 
HETATM    4  N2  UNL     1      20.606   0.471  53.565  1.00  0.00    -0.270 NA
HETATM    5  C8  UNL     1      19.994   1.139  52.475  1.00  0.00     0.157 C 
HETATM    6  C9  UNL     1      20.478   0.624  51.112  1.00  0.00     0.005 C 
HETATM    7  C10 UNL     1      21.655   0.757  50.384  1.00  0.00     0.014 C 
HETATM    8  C11 UNL     1      22.499   1.458  51.426  1.00  0.00     0.019 C 
HETATM    9  C12 UNL     1      22.544   2.816  51.778  1.00  0.00     0.052 C 
HETATM   10  C13 UNL     1      21.152   3.441  52.075  1.00  0.00     0.067 C 
HETATM   11  C15 UNL     1      20.045   2.669  52.438  1.00  0.00     0.041 C 
ENDROOT
BRANCH   1  12
HETATM   12  O1  UNL     1      24.495   1.938  52.495  1.00  0.00    -0.330 OA
BRANCH  12  13
HETATM   13  C5  UNL     1      25.691   1.252  51.988  1.00  0.00     0.207 C 
BRANCH  13  14
HETATM   14  C4  UNL     1      26.576   0.977  53.127  1.00  0.00     0.036 C 
HETATM   15  C3  UNL     1      26.844  -0.221  53.582  1.00  0.00     0.065 C 
BRANCH  15  16
HETATM   16  C2  UNL     1      26.309  -1.438  53.030  1.00  0.00     0.026 C 
HETATM   17  C1  UNL     1      27.109  -2.274  52.408  1.00  0.00     0.014 C 
ENDBRANCH  15  16
BRANCH  15  18
HETATM   18  O3  UNL     1      27.703  -0.254  54.666  1.00  0.00    -0.356 OA
HETATM   19  C16 UNL     1      29.077   0.049  54.574  1.00  0.00     0.210 C 
ENDBRANCH  15  18
ENDBRANCH  13  14
ENDBRANCH  12  13
ENDBRANCH   1  12
BRANCH  10  20
HETATM   20  O2  UNL     1      21.456   4.737  51.869  1.00  0.00    -0.356 OA
HETATM   21  C14 UNL     1      22.808   5.132  52.112  1.00  0.00     0.210 C 
ENDBRANCH  10  20
TORSDOF 6
ENDMDL
MODEL 6
REMARK VINA RESULT:      -6.2      3.204      5.827
REMARK  6 active torsions:
REMARK  status: ('A' for Active; 'I' for Inactive)
REMARK    1  A    between atoms: C2_2  and  C3_3 
REMARK    2  A    between atoms: C3_3  and  O3_20 
REMARK    3  A    between atoms: C4_4  and  C5_5 
REMARK    4  A    between atoms: C5_5  and  O1_6 
REMARK    5  A    between atoms: O1_6  and  C6_7 
REMARK    6  A    between atoms: C13_16  and  O2_17 
ROOT
HETATM    1  C6  UNL     1      23.763   2.756  51.366  1.00  0.00     0.176 C 
HETATM    2  N1  UNL     1      23.698   3.145  50.056  1.00  0.00    -0.217 NA
HETATM    3  C7  UNL     1      22.773   2.320  49.136  1.00  0.00     0.230 C 
HETATM    4  N2  UNL     1      21.726   1.513  49.459  1.00  0.00    -0.270 NA
HETATM    5  C8  UNL     1      20.810   1.216  50.498  1.00  0.00     0.157 C 
HETATM    6  C9  UNL     1      20.479   2.439  51.367  1.00  0.00     0.005 C 
HETATM    7  C10 UNL     1      21.169   3.160  52.336  1.00  0.00     0.014 C 
HETATM    8  C11 UNL     1      22.523   2.499  52.201  1.00  0.00     0.019 C 
HETATM    9  C12 UNL     1      22.989   1.291  52.745  1.00  0.00     0.052 C 
HETATM   10  C13 UNL     1      22.055   0.077  52.486  1.00  0.00     0.067 C 
HETATM   11  C15 UNL     1      21.129   0.051  51.439  1.00  0.00     0.041 C 
ENDROOT
BRANCH   1  12
HETATM   12  O1  UNL     1      24.837   2.488  52.249  1.00  0.00    -0.330 OA
BRANCH  12  13
HETATM   13  C5  UNL     1      26.068   2.381  51.453  1.00  0.00     0.207 C 
BRANCH  13  14
HETATM   14  C4  UNL     1      27.179   2.093  52.369  1.00  0.00     0.036 C 
HETATM   15  C3  UNL     1      27.525   0.890  52.755  1.00  0.00     0.065 C 
BRANCH  15  16
HETATM   16  C2  UNL     1      26.865  -0.319  52.336  1.00  0.00     0.026 C 
HETATM   17  C1  UNL     1      25.955  -0.862  53.112  1.00  0.00     0.014 C 
ENDBRANCH  15  16
BRANCH  15  18
HETATM   18  O3  UNL     1      28.602   0.845  53.623  1.00  0.00    -0.356 OA
HETATM   19  C16 UNL     1      29.448  -0.276  53.748  1.00  0.00     0.210 C 
ENDBRANCH  15  18
ENDBRANCH  13  14
ENDBRANCH  12  13
ENDBRANCH   1  12
BRANCH  10  20
HETATM   20  O2  UNL     1      22.467  -0.722  53.489  1.00  0.00    -0.356 OA
HETATM   21  C14 UNL     1      21.554  -0.933  54.567  1.00  0.00     0.210 C 
ENDBRANCH  10  20
TORSDOF 6
ENDMDL
MODEL 7
REMARK VINA RESULT:      -6.1      2.672      6.021
REMARK  6 active torsions:
REMARK  status: ('A' for Active; 'I' for Inactive)
REMARK    1  A    between atoms: C2_2  and  C3_3 
REMARK    2  A    between atoms: C3_3  and  O3_20 
REMARK    3  A    between atoms: C4_4  and  C5_5 
REMARK    4  A    between atoms: C5_5  and  O1_6 
REMARK    5  A    between atoms: O1_6  and  C6_7 
REMARK    6  A    between atoms: C13_16  and  O2_17 
ROOT
HETATM    1  C6  UNL     1      25.485   2.917  51.229  1.00  0.00     0.176 C 
HETATM    2  N1  UNL     1      25.759   3.849  50.265  1.00  0.00    -0.217 NA
HETATM    3  C7  UNL     1      24.591   4.249  49.339  1.00  0.00     0.230 C 
HETATM    4  N2  UNL     1      23.250   4.131  49.536  1.00  0.00    -0.270 NA
HETATM    5  C8  UNL     1      22.270   3.939  50.542  1.00  0.00     0.157 C 
HETATM    6  C9  UNL     1      22.685   4.531  51.898  1.00  0.00     0.005 C 
HETATM    7  C10 UNL     1      23.600   4.167  52.879  1.00  0.00     0.014 C 
HETATM    8  C11 UNL     1      24.286   3.030  52.152  1.00  0.00     0.019 C 
HETATM    9  C12 UNL     1      23.889   1.692  52.004  1.00  0.00     0.052 C 
HETATM   10  C13 UNL     1      22.432   1.516  51.493  1.00  0.00     0.067 C 
HETATM   11  C15 UNL     1      21.755   2.519  50.794  1.00  0.00     0.041 C 
ENDROOT
BRANCH   1  12
HETATM   12  O1  UNL     1      26.113   1.711  51.625  1.00  0.00    -0.330 OA
BRANCH  12  13
HETATM   13  C5  UNL     1      27.280   2.053  52.451  1.00  0.00     0.207 C 
BRANCH  13  14
HETATM   14  C4  UNL     1      27.939   0.802  52.849  1.00  0.00     0.036 C 
HETATM   15  C3  UNL     1      27.578   0.072  53.874  1.00  0.00     0.065 C 
BRANCH  15  16
HETATM   16  C2  UNL     1      26.486   0.392  54.756  1.00  0.00     0.026 C 
HETATM   17  C1  UNL     1      25.625  -0.543  55.086  1.00  0.00     0.014 C 
ENDBRANCH  15  16
BRANCH  15  18
HETATM   18  O3  UNL     1      28.335  -1.068  54.071  1.00  0.00    -0.356 OA
HETATM   19  C16 UNL     1      29.659  -1.209  53.605  1.00  0.00     0.210 C 
ENDBRANCH  15  18
ENDBRANCH  13  14
ENDBRANCH  12  13
ENDBRANCH   1  12
BRANCH  10  20
HETATM   20  O2  UNL     1      22.207   0.262  51.932  1.00  0.00    -0.356 OA
HETATM   21  C14 UNL     1      22.426   0.012  53.321  1.00  0.00     0.210 C 
ENDBRANCH  10  20
TORSDOF 6
ENDMDL
MODEL 8
REMARK VINA RESULT:      -6.1      3.130      6.492
REMARK  6 active torsions:
REMARK  status: ('A' for Active; 'I' for Inactive)
REMARK    1  A    between atoms: C2_2  and  C3_3 
REMARK    2  A    between atoms: C3_3  and  O3_20 
REMARK    3  A    between atoms: C4_4  and  C5_5 
REMARK    4  A    between atoms: C5_5  and  O1_6 
REMARK    5  A    between atoms: O1_6  and  C6_7 
REMARK    6  A    between atoms: C13_16  and  O2_17 
ROOT
HETATM    1  C6  UNL     1      23.691   2.236  52.095  1.00  0.00     0.176 C 
HETATM    2  N1  UNL     1      24.629   2.227  51.099  1.00  0.00    -0.217 NA
HETATM    3  C7  UNL     1      24.272   2.991  49.807  1.00  0.00     0.230 C 
HETATM    4  N2  UNL     1      23.361   3.984  49.611  1.00  0.00    -0.270 NA
HETATM    5  C8  UNL     1      22.585   4.952  50.294  1.00  0.00     0.157 C 
HETATM    6  C9  UNL     1      23.264   5.466  51.574  1.00  0.00     0.005 C 
HETATM    7  C10 UNL     1      23.495   4.928  52.834  1.00  0.00     0.014 C 
HETATM    8  C11 UNL     1      23.028   3.512  52.577  1.00  0.00     0.019 C 
HETATM    9  C12 UNL     1      21.727   2.985  52.574  1.00  0.00     0.052 C 
HETATM   10  C13 UNL     1      20.723   3.778  51.693  1.00  0.00     0.067 C 
HETATM   11  C15 UNL     1      21.135   4.607  50.645  1.00  0.00     0.041 C 
ENDROOT
BRANCH   1  12
HETATM   12  O1  UNL     1      23.098   1.219  52.883  1.00  0.00    -0.330 OA
BRANCH  12  13
HETATM   13  C5  UNL     1      23.924   0.009  52.766  1.00  0.00     0.207 C 
BRANCH  13  14
HETATM   14  C4  UNL     1      24.922   0.033  53.844  1.00  0.00     0.036 C 
HETATM   15  C3  UNL     1      26.159  -0.375  53.715  1.00  0.00     0.065 C 
BRANCH  15  16
HETATM   16  C2  UNL     1      26.716  -0.905  52.497  1.00  0.00     0.026 C 
HETATM   17  C1  UNL     1      26.934  -2.197  52.394  1.00  0.00     0.014 C 
ENDBRANCH  15  16
BRANCH  15  18
HETATM   18  O3  UNL     1      26.931  -0.265  54.857  1.00  0.00    -0.356 OA
HETATM   19  C16 UNL     1      28.283   0.133  54.842  1.00  0.00     0.210 C 
ENDBRANCH  15  18
ENDBRANCH  13  14
ENDBRANCH  12  13
ENDBRANCH   1  12
BRANCH  10  20
HETATM   20  O2  UNL     1      19.575   3.380  52.274  1.00  0.00    -0.356 OA
HETATM   21  C14 UNL     1      18.380   3.499  51.498  1.00  0.00     0.210 C 
ENDBRANCH  10  20
TORSDOF 6
ENDMDL
MODEL 9
REMARK VINA RESULT:      -6.0      3.097      6.715
REMARK  6 active torsions:
REMARK  status: ('A' for Active; 'I' for Inactive)
REMARK    1  A    between atoms: C2_2  and  C3_3 
REMARK    2  A    between atoms: C3_3  and  O3_20 
REMARK    3  A    between atoms: C4_4  and  C5_5 
REMARK    4  A    between atoms: C5_5  and  O1_6 
REMARK    5  A    between atoms: O1_6  and  C6_7 
REMARK    6  A    between atoms: C13_16  and  O2_17 
ROOT
HETATM    1  C6  UNL     1      23.562   3.482  51.266  1.00  0.00     0.176 C 
HETATM    2  N1  UNL     1      22.332   3.802  51.773  1.00  0.00    -0.217 NA
HETATM    3  C7  UNL     1      21.641   5.047  51.177  1.00  0.00     0.230 C 
HETATM    4  N2  UNL     1      21.853   5.668  49.985  1.00  0.00    -0.270 NA
HETATM    5  C8  UNL     1      22.429   5.482  48.704  1.00  0.00     0.157 C 
HETATM    6  C9  UNL     1      22.376   4.020  48.234  1.00  0.00     0.005 C 
HETATM    7  C10 UNL     1      23.060   2.861  48.583  1.00  0.00     0.014 C 
HETATM    8  C11 UNL     1      23.828   3.390  49.775  1.00  0.00     0.019 C 
HETATM    9  C12 UNL     1      25.022   4.126  49.817  1.00  0.00     0.052 C 
HETATM   10  C13 UNL     1      25.027   5.380  48.899  1.00  0.00     0.067 C 
HETATM   11  C15 UNL     1      23.851   5.997  48.463  1.00  0.00     0.041 C 
ENDROOT
BRANCH   1  12
HETATM   12  O1  UNL     1      24.814   3.190  51.859  1.00  0.00    -0.330 OA
BRANCH  12  13
HETATM   13  C5  UNL     1      24.591   2.227  52.947  1.00  0.00     0.207 C 
BRANCH  13  14
HETATM   14  C4  UNL     1      25.829   2.131  53.731  1.00  0.00     0.036 C 
HETATM   15  C3  UNL     1      26.828   1.336  53.440  1.00  0.00     0.065 C 
BRANCH  15  16
HETATM   16  C2  UNL     1      26.853   0.444  52.309  1.00  0.00     0.026 C 
HETATM   17  C1  UNL     1      26.680  -0.845  52.498  1.00  0.00     0.014 C 
ENDBRANCH  15  16
BRANCH  15  18
HETATM   18  O3  UNL     1      27.898   1.403  54.312  1.00  0.00    -0.356 OA
HETATM   19  C16 UNL     1      29.077   2.126  54.038  1.00  0.00     0.210 C 
ENDBRANCH  15  18
ENDBRANCH  13  14
ENDBRANCH  12  13
ENDBRANCH   1  12
BRANCH  10  20
HETATM   20  O2  UNL     1      26.359   5.539  48.769  1.00  0.00    -0.356 OA
HETATM   21  C14 UNL     1      27.176   4.395  49.023  1.00  0.00     0.210 C 
ENDBRANCH  10  20
TORSDOF 6
ENDMDL
