MODEL 1
REMARK VINA RESULT:      -8.3      0.000      0.000
REMARK  3 active torsions:
REMARK  status: ('A' for Active; 'I' for Inactive)
REMARK    1  A    between atoms: C2_2  and  S1_3 
REMARK    2  A    between atoms: C2_2  and  C3_5 
REMARK    3  A    between atoms: S1_3  and  N1_4 
ROOT
HETATM    1  C3  UNL     1      26.085   0.386  53.334  1.00  0.00     0.055 C 
HETATM    2  C4  UNL     1      24.961  -0.573  53.445  1.00  0.00    -0.020 C 
HETATM    3  C5  UNL     1      23.658  -0.695  53.381  1.00  0.00    -0.024 C 
HETATM    4  C6  UNL     1      22.308  -0.248  53.201  1.00  0.00     0.020 C 
HETATM    5  C7  UNL     1      21.383   0.713  52.934  1.00  0.00    -0.000 C 
HETATM    6  C8  UNL     1      20.837   2.067  52.595  1.00  0.00    -0.014 C 
HETATM    7  C9  UNL     1      21.945   2.823  52.401  1.00  0.00     0.044 C 
HETATM    8  C10 UNL     1      22.157   4.258  52.064  1.00  0.00    -0.020 C 
HETATM    9  C11 UNL     1      23.490   4.472  51.915  1.00  0.00     0.009 C 
HETATM   10  C12 UNL     1      24.482   3.425  52.048  1.00  0.00    -0.019 A 
HETATM   11  C13 UNL     1      24.874   2.349  52.776  1.00  0.00     0.020 A 
HETATM   12  C14 UNL     1      25.896   1.514  52.445  1.00  0.00    -0.048 A 
HETATM   13  C15 UNL     1      26.656   1.667  51.341  1.00  0.00     0.009 A 
HETATM   14  C16 UNL     1      26.364   2.729  50.512  1.00  0.00     0.020 A 
HETATM   15  C17 UNL     1      25.295   3.567  50.889  1.00  0.00     0.021 A 
HETATM   16 BR1  UNL     1      25.118   4.965  49.546  1.00  0.00    -0.050 Br
ENDROOT
BRANCH   1  17
HETATM   17  C2  UNL     1      27.384  -0.338  53.186  1.00  0.00     0.071 C 
HETATM   18  C1  UNL     1      28.313  -0.253  54.349  1.00  0.00     0.024 C 
BRANCH  17  19
HETATM   19  S1  UNL     1      27.083  -2.030  52.644  1.00  0.00    -0.082 SA
BRANCH  19  20
HETATM   20  N1  UNL     1      28.461  -3.028  53.129  1.00  0.00    -0.277 NA
HETATM   21  H5  UNL     1      28.858  -2.720  54.051  1.00  0.00     0.131 HD
HETATM   22  H6  UNL     1      28.103  -4.011  53.182  1.00  0.00     0.131 HD
ENDBRANCH  19  20
ENDBRANCH  17  19
ENDBRANCH   1  17
TORSDOF 3
ENDMDL
MODEL 2
REMARK VINA RESULT:      -8.1      2.772      4.380
REMARK  3 active torsions:
REMARK  status: ('A' for Active; 'I' for Inactive)
REMARK    1  A    between atoms: C2_2  and  S1_3 
REMARK    2  A    between atoms: C2_2  and  C3_5 
REMARK    3  A    between atoms: S1_3  and  N1_4 
ROOT
HETATM    1  C3  UNL     1      24.684   0.266  52.861  1.00  0.00     0.055 C 
HETATM    2  C4  UNL     1      25.039   1.680  53.123  1.00  0.00    -0.020 C 
HETATM    3  C5  UNL     1      24.611   2.915  53.046  1.00  0.00    -0.024 C 
HETATM    4  C6  UNL     1      23.677   3.961  52.746  1.00  0.00     0.020 C 
HETATM    5  C7  UNL     1      22.472   4.409  52.303  1.00  0.00    -0.000 C 
HETATM    6  C8  UNL     1      21.074   4.350  51.763  1.00  0.00    -0.014 C 
HETATM    7  C9  UNL     1      20.817   3.022  51.679  1.00  0.00     0.044 C 
HETATM    8  C10 UNL     1      19.642   2.237  51.207  1.00  0.00    -0.020 C 
HETATM    9  C11 UNL     1      19.897   0.919  51.414  1.00  0.00     0.009 C 
HETATM   10  C12 UNL     1      21.116   0.431  52.025  1.00  0.00    -0.019 A 
HETATM   11  C13 UNL     1      22.466   0.558  52.070  1.00  0.00     0.020 A 
HETATM   12  C14 UNL     1      23.281  -0.083  52.952  1.00  0.00    -0.048 A 
HETATM   13  C15 UNL     1      22.833  -0.938  53.895  1.00  0.00     0.009 A 
HETATM   14  C16 UNL     1      21.474  -1.161  53.956  1.00  0.00     0.020 A 
HETATM   15  C17 UNL     1      20.666  -0.474  53.027  1.00  0.00     0.021 A 
HETATM   16 BR1  UNL     1      18.813  -0.979  53.346  1.00  0.00    -0.050 Br
ENDROOT
BRANCH   1  17
HETATM   17  C2  UNL     1      25.621  -0.655  53.574  1.00  0.00     0.071 C 
HETATM   18  C1  UNL     1      26.572  -1.413  52.711  1.00  0.00     0.024 C 
BRANCH  17  19
HETATM   19  S1  UNL     1      26.434   0.223  54.921  1.00  0.00    -0.082 SA
BRANCH  19  20
HETATM   20  N1  UNL     1      28.151  -0.206  54.915  1.00  0.00    -0.277 NA
HETATM   21  H5  UNL     1      28.308  -1.186  55.259  1.00  0.00     0.131 HD
HETATM   22  H6  UNL     1      28.474  -0.098  53.924  1.00  0.00     0.131 HD
ENDBRANCH  19  20
ENDBRANCH  17  19
ENDBRANCH   1  17
TORSDOF 3
ENDMDL
MODEL 3
REMARK VINA RESULT:      -7.9      1.308      1.514
REMARK  3 active torsions:
REMARK  status: ('A' for Active; 'I' for Inactive)
REMARK    1  A    between atoms: C2_2  and  S1_3 
REMARK    2  A    between atoms: C2_2  and  C3_5 
REMARK    3  A    between atoms: S1_3  and  N1_4 
ROOT
HETATM    1  C3  UNL     1      26.557   1.393  53.680  1.00  0.00     0.055 C 
HETATM    2  C4  UNL     1      25.930   0.113  54.086  1.00  0.00    -0.020 C 
HETATM    3  C5  UNL     1      24.794  -0.532  54.177  1.00  0.00    -0.024 C 
HETATM    4  C6  UNL     1      23.378  -0.714  54.049  1.00  0.00     0.020 C 
HETATM    5  C7  UNL     1      22.136  -0.288  53.695  1.00  0.00    -0.000 C 
HETATM    6  C8  UNL     1      21.075   0.624  53.156  1.00  0.00    -0.014 C 
HETATM    7  C9  UNL     1      21.770   1.699  52.710  1.00  0.00     0.044 C 
HETATM    8  C10 UNL     1      21.366   2.988  52.082  1.00  0.00    -0.020 C 
HETATM    9  C11 UNL     1      22.491   3.680  51.763  1.00  0.00     0.009 C 
HETATM   10  C12 UNL     1      23.828   3.175  51.996  1.00  0.00    -0.019 A 
HETATM   11  C13 UNL     1      24.637   2.533  52.876  1.00  0.00     0.020 A 
HETATM   12  C14 UNL     1      25.910   2.127  52.613  1.00  0.00    -0.048 A 
HETATM   13  C15 UNL     1      26.526   2.328  51.430  1.00  0.00     0.009 A 
HETATM   14  C16 UNL     1      25.813   2.977  50.444  1.00  0.00     0.020 A 
HETATM   15  C17 UNL     1      24.497   3.375  50.756  1.00  0.00     0.021 A 
HETATM   16 BR1  UNL     1      23.744   4.256  49.193  1.00  0.00    -0.050 Br
ENDROOT
BRANCH   1  17
HETATM   17  C2  UNL     1      28.037   1.237  53.547  1.00  0.00     0.071 C 
HETATM   18  C1  UNL     1      28.841   2.482  53.718  1.00  0.00     0.024 C 
BRANCH  17  19
HETATM   19  S1  UNL     1      28.606  -0.120  54.586  1.00  0.00    -0.082 SA
BRANCH  19  20
HETATM   20  N1  UNL     1      28.996  -1.498  53.547  1.00  0.00    -0.277 NA
HETATM   21  H5  UNL     1      29.986  -1.456  53.201  1.00  0.00     0.131 HD
HETATM   22  H6  UNL     1      28.835  -2.355  54.128  1.00  0.00     0.131 HD
ENDBRANCH  19  20
ENDBRANCH  17  19
ENDBRANCH   1  17
TORSDOF 3
ENDMDL
MODEL 4
REMARK VINA RESULT:      -7.7      3.508      5.378
REMARK  3 active torsions:
REMARK  status: ('A' for Active; 'I' for Inactive)
REMARK    1  A    between atoms: C2_2  and  S1_3 
REMARK    2  A    between atoms: C2_2  and  C3_5 
REMARK    3  A    between atoms: S1_3  and  N1_4 
ROOT
HETATM    1  C3  UNL     1      25.219   3.612  50.559  1.00  0.00     0.055 C 
HETATM    2  C4  UNL     1      26.421   2.786  50.820  1.00  0.00    -0.020 C 
HETATM    3  C5  UNL     1      26.872   1.741  51.468  1.00  0.00    -0.024 C 
HETATM    4  C6  UNL     1      26.791   0.606  52.340  1.00  0.00     0.020 C 
HETATM    5  C7  UNL     1      26.106  -0.240  53.155  1.00  0.00    -0.000 C 
HETATM    6  C8  UNL     1      24.941  -0.828  53.894  1.00  0.00    -0.014 C 
HETATM    7  C9  UNL     1      23.889  -0.075  53.489  1.00  0.00     0.044 C 
HETATM    8  C10 UNL     1      22.440  -0.076  53.832  1.00  0.00    -0.020 C 
HETATM    9  C11 UNL     1      21.818   0.860  53.068  1.00  0.00     0.009 C 
HETATM   10  C12 UNL     1      22.507   1.669  52.084  1.00  0.00    -0.019 A 
HETATM   11  C13 UNL     1      23.623   2.397  51.826  1.00  0.00     0.020 A 
HETATM   12  C14 UNL     1      23.938   2.940  50.618  1.00  0.00    -0.048 A 
HETATM   13  C15 UNL     1      23.161   2.821  49.522  1.00  0.00     0.009 A 
HETATM   14  C16 UNL     1      21.989   2.105  49.649  1.00  0.00     0.020 A 
HETATM   15  C17 UNL     1      21.703   1.556  50.916  1.00  0.00     0.021 A 
HETATM   16 BR1  UNL     1      20.006   0.611  50.797  1.00  0.00    -0.050 Br
ENDROOT
BRANCH   1  17
HETATM   17  C2  UNL     1      25.429   4.489  49.367  1.00  0.00     0.071 C 
HETATM   18  C1  UNL     1      24.783   5.832  49.423  1.00  0.00     0.024 C 
BRANCH  17  19
HETATM   19  S1  UNL     1      27.185   4.565  48.966  1.00  0.00    -0.082 SA
BRANCH  19  20
HETATM   20  N1  UNL     1      27.708   6.254  49.053  1.00  0.00    -0.277 NA
HETATM   21  H5  UNL     1      27.887   6.654  48.100  1.00  0.00     0.131 HD
HETATM   22  H6  UNL     1      26.938   6.770  49.542  1.00  0.00     0.131 HD
ENDBRANCH  19  20
ENDBRANCH  17  19
ENDBRANCH   1  17
TORSDOF 3
ENDMDL
MODEL 5
REMARK VINA RESULT:      -7.6      3.107      5.229
REMARK  3 active torsions:
REMARK  status: ('A' for Active; 'I' for Inactive)
REMARK    1  A    between atoms: C2_2  and  S1_3 
REMARK    2  A    between atoms: C2_2  and  C3_5 
REMARK    3  A    between atoms: S1_3  and  N1_4 
ROOT
HETATM    1  C3  UNL     1      21.562   0.426  52.026  1.00  0.00     0.055 C 
HETATM    2  C4  UNL     1      22.356  -0.439  52.930  1.00  0.00    -0.020 C 
HETATM    3  C5  UNL     1      23.570  -0.729  53.327  1.00  0.00    -0.024 C 
HETATM    4  C6  UNL     1      24.998  -0.614  53.365  1.00  0.00     0.020 C 
HETATM    5  C7  UNL     1      26.171  -0.050  52.971  1.00  0.00    -0.000 C 
HETATM    6  C8  UNL     1      27.100   0.873  52.241  1.00  0.00    -0.014 C 
HETATM    7  C9  UNL     1      26.266   1.687  51.548  1.00  0.00     0.044 C 
HETATM    8  C10 UNL     1      26.492   2.812  50.598  1.00  0.00    -0.020 C 
HETATM    9  C11 UNL     1      25.284   3.329  50.251  1.00  0.00     0.009 C 
HETATM   10  C12 UNL     1      24.028   2.838  50.779  1.00  0.00    -0.019 A 
HETATM   11  C13 UNL     1      23.310   1.730  51.092  1.00  0.00     0.020 A 
HETATM   12  C14 UNL     1      22.107   1.734  51.728  1.00  0.00    -0.048 A 
HETATM   13  C15 UNL     1      21.475   2.860  52.120  1.00  0.00     0.009 A 
HETATM   14  C16 UNL     1      22.098   4.062  51.857  1.00  0.00     0.020 A 
HETATM   15  C17 UNL     1      23.344   4.012  51.201  1.00  0.00     0.021 A 
HETATM   16 BR1  UNL     1      23.977   5.837  50.964  1.00  0.00    -0.050 Br
ENDROOT
BRANCH   1  17
HETATM   17  C2  UNL     1      20.117   0.405  52.410  1.00  0.00     0.071 C 
HETATM   18  C1  UNL     1      19.147   0.251  51.288  1.00  0.00     0.024 C 
BRANCH  17  19
HETATM   19  S1  UNL     1      19.855  -0.783  53.739  1.00  0.00    -0.082 SA
BRANCH  19  20
HETATM   20  N1  UNL     1      18.128  -1.161  53.821  1.00  0.00    -0.277 NA
HETATM   21  H5  UNL     1      17.951  -2.058  54.336  1.00  0.00     0.131 HD
HETATM   22  H6  UNL     1      17.676  -0.350  54.308  1.00  0.00     0.131 HD
ENDBRANCH  19  20
ENDBRANCH  17  19
ENDBRANCH   1  17
TORSDOF 3
ENDMDL
MODEL 6
REMARK VINA RESULT:      -7.3      3.865      5.336
REMARK  3 active torsions:
REMARK  status: ('A' for Active; 'I' for Inactive)
REMARK    1  A    between atoms: C2_2  and  S1_3 
REMARK    2  A    between atoms: C2_2  and  C3_5 
REMARK    3  A    between atoms: S1_3  and  N1_4 
ROOT
HETATM    1  C3  UNL     1      23.998   3.550  50.855  1.00  0.00     0.055 C 
HETATM    2  C4  UNL     1      22.626   4.046  51.117  1.00  0.00    -0.020 C 
HETATM    3  C5  UNL     1      21.472   3.744  51.658  1.00  0.00    -0.024 C 
HETATM    4  C6  UNL     1      20.530   2.923  52.360  1.00  0.00     0.020 C 
HETATM    5  C7  UNL     1      20.179   1.783  53.015  1.00  0.00    -0.000 C 
HETATM    6  C8  UNL     1      20.327   0.419  53.618  1.00  0.00    -0.014 C 
HETATM    7  C9  UNL     1      21.635   0.122  53.428  1.00  0.00     0.044 C 
HETATM    8  C10 UNL     1      22.471  -1.069  53.749  1.00  0.00    -0.020 C 
HETATM    9  C11 UNL     1      23.755  -0.799  53.397  1.00  0.00     0.009 C 
HETATM   10  C12 UNL     1      24.176   0.468  52.836  1.00  0.00    -0.019 A 
HETATM   11  C13 UNL     1      23.872   1.448  51.949  1.00  0.00     0.020 A 
HETATM   12  C14 UNL     1      24.551   2.621  51.818  1.00  0.00    -0.048 A 
HETATM   13  C15 UNL     1      25.628   2.945  52.563  1.00  0.00     0.009 A 
HETATM   14  C16 UNL     1      26.048   2.029  53.505  1.00  0.00     0.020 A 
HETATM   15  C17 UNL     1      25.313   0.831  53.610  1.00  0.00     0.021 A 
HETATM   16 BR1  UNL     1      26.127  -0.257  55.005  1.00  0.00    -0.050 Br
ENDROOT
BRANCH   1  17
HETATM   17  C2  UNL     1      24.899   4.675  50.458  1.00  0.00     0.071 C 
HETATM   18  C1  UNL     1      25.659   4.483  49.189  1.00  0.00     0.024 C 
BRANCH  17  19
HETATM   19  S1  UNL     1      23.994   6.232  50.512  1.00  0.00    -0.082 SA
BRANCH  19  20
HETATM   20  N1  UNL     1      24.424   7.080  52.005  1.00  0.00    -0.277 NA
HETATM   21  H5  UNL     1      25.460   7.066  52.174  1.00  0.00     0.131 HD
HETATM   22  H6  UNL     1      24.073   8.061  51.893  1.00  0.00     0.131 HD
ENDBRANCH  19  20
ENDBRANCH  17  19
ENDBRANCH   1  17
TORSDOF 3
ENDMDL
MODEL 7
REMARK VINA RESULT:      -7.3      3.617      5.395
REMARK  3 active torsions:
REMARK  status: ('A' for Active; 'I' for Inactive)
REMARK    1  A    between atoms: C2_2  and  S1_3 
REMARK    2  A    between atoms: C2_2  and  C3_5 
REMARK    3  A    between atoms: S1_3  and  N1_4 
ROOT
HETATM    1  C3  UNL     1      21.870   0.945  52.989  1.00  0.00     0.055 C 
HETATM    2  C4  UNL     1      21.339   1.332  51.661  1.00  0.00    -0.020 C 
HETATM    3  C5  UNL     1      21.643   1.896  50.518  1.00  0.00    -0.024 C 
HETATM    4  C6  UNL     1      22.493   2.542  49.562  1.00  0.00     0.020 C 
HETATM    5  C7  UNL     1      23.692   3.046  49.163  1.00  0.00    -0.000 C 
HETATM    6  C8  UNL     1      25.145   3.410  49.232  1.00  0.00    -0.014 C 
HETATM    7  C9  UNL     1      25.548   2.906  50.424  1.00  0.00     0.044 C 
HETATM    8  C10 UNL     1      26.847   2.916  51.151  1.00  0.00    -0.020 C 
HETATM    9  C11 UNL     1      26.707   2.188  52.289  1.00  0.00     0.009 C 
HETATM   10  C12 UNL     1      25.478   1.516  52.657  1.00  0.00    -0.019 A 
HETATM   11  C13 UNL     1      24.127   1.625  52.724  1.00  0.00     0.020 A 
HETATM   12  C14 UNL     1      23.278   0.615  53.058  1.00  0.00    -0.048 A 
HETATM   13  C15 UNL     1      23.690  -0.630  53.374  1.00  0.00     0.009 A 
HETATM   14  C16 UNL     1      25.047  -0.876  53.350  1.00  0.00     0.020 A 
HETATM   15  C17 UNL     1      25.890   0.197  52.994  1.00  0.00     0.021 A 
HETATM   16 BR1  UNL     1      27.729  -0.437  53.045  1.00  0.00    -0.050 Br
ENDROOT
BRANCH   1  17
HETATM   17  C2  UNL     1      20.951  -0.023  53.663  1.00  0.00     0.071 C 
HETATM   18  C1  UNL     1      20.763   0.172  55.129  1.00  0.00     0.024 C 
BRANCH  17  19
HETATM   19  S1  UNL     1      19.396  -0.122  52.757  1.00  0.00    -0.082 SA
BRANCH  19  20
HETATM   20  N1  UNL     1      18.253  -1.081  53.709  1.00  0.00    -0.277 NA
HETATM   21  H5  UNL     1      18.719  -1.538  54.531  1.00  0.00     0.131 HD
HETATM   22  H6  UNL     1      17.506  -0.416  54.021  1.00  0.00     0.131 HD
ENDBRANCH  19  20
ENDBRANCH  17  19
ENDBRANCH   1  17
TORSDOF 3
ENDMDL
MODEL 8
REMARK VINA RESULT:      -7.0      3.967      5.512
REMARK  3 active torsions:
REMARK  status: ('A' for Active; 'I' for Inactive)
REMARK    1  A    between atoms: C2_2  and  S1_3 
REMARK    2  A    between atoms: C2_2  and  C3_5 
REMARK    3  A    between atoms: S1_3  and  N1_4 
ROOT
HETATM    1  C3  UNL     1      22.156   1.391  50.452  1.00  0.00     0.055 C 
HETATM    2  C4  UNL     1      20.973   1.131  51.305  1.00  0.00    -0.020 C 
HETATM    3  C5  UNL     1      20.573   0.605  52.436  1.00  0.00    -0.024 C 
HETATM    4  C6  UNL     1      20.724  -0.068  53.693  1.00  0.00     0.020 C 
HETATM    5  C7  UNL     1      21.476  -0.665  54.657  1.00  0.00    -0.000 C 
HETATM    6  C8  UNL     1      22.702  -1.173  55.356  1.00  0.00    -0.014 C 
HETATM    7  C9  UNL     1      23.719  -0.777  54.552  1.00  0.00     0.044 C 
HETATM    8  C10 UNL     1      25.196  -0.955  54.611  1.00  0.00    -0.020 C 
HETATM    9  C11 UNL     1      25.751  -0.281  53.570  1.00  0.00     0.009 C 
HETATM   10  C12 UNL     1      24.976   0.487  52.616  1.00  0.00    -0.019 A 
HETATM   11  C13 UNL     1      23.854   0.507  51.854  1.00  0.00     0.020 A 
HETATM   12  C14 UNL     1      23.422   1.576  51.130  1.00  0.00    -0.048 A 
HETATM   13  C15 UNL     1      24.076   2.755  51.080  1.00  0.00     0.009 A 
HETATM   14  C16 UNL     1      25.240   2.868  51.811  1.00  0.00     0.020 A 
HETATM   15  C17 UNL     1      25.648   1.739  52.550  1.00  0.00     0.021 A 
HETATM   16 BR1  UNL     1      27.304   2.185  53.470  1.00  0.00    -0.050 Br
ENDROOT
BRANCH   1  17
HETATM   17  C2  UNL     1      21.837   2.405  49.401  1.00  0.00     0.071 C 
HETATM   18  C1  UNL     1      22.218   2.040  48.006  1.00  0.00     0.024 C 
BRANCH  17  19
HETATM   19  S1  UNL     1      20.117   2.922  49.552  1.00  0.00    -0.082 SA
BRANCH  19  20
HETATM   20  N1  UNL     1      19.228   2.333  48.140  1.00  0.00    -0.277 NA
HETATM   21  H5  UNL     1      19.566   2.782  47.253  1.00  0.00     0.131 HD
HETATM   22  H6  UNL     1      19.373   1.295  48.117  1.00  0.00     0.131 HD
ENDBRANCH  19  20
ENDBRANCH  17  19
ENDBRANCH   1  17
TORSDOF 3
ENDMDL
MODEL 9
REMARK VINA RESULT:      -7.0      4.626      6.886
REMARK  3 active torsions:
REMARK  status: ('A' for Active; 'I' for Inactive)
REMARK    1  A    between atoms: C2_2  and  S1_3 
REMARK    2  A    between atoms: C2_2  and  C3_5 
REMARK    3  A    between atoms: S1_3  and  N1_4 
ROOT
HETATM    1  C3  UNL     1      18.618   0.098  51.731  1.00  0.00     0.055 C 
HETATM    2  C4  UNL     1      18.839  -0.844  52.852  1.00  0.00    -0.020 C 
HETATM    3  C5  UNL     1      19.741  -1.334  53.667  1.00  0.00    -0.024 C 
HETATM    4  C6  UNL     1      21.049  -1.490  54.231  1.00  0.00     0.020 C 
HETATM    5  C7  UNL     1      22.373  -1.185  54.305  1.00  0.00    -0.000 C 
HETATM    6  C8  UNL     1      23.667  -0.502  53.981  1.00  0.00    -0.014 C 
HETATM    7  C9  UNL     1      23.324   0.411  53.039  1.00  0.00     0.044 C 
HETATM    8  C10 UNL     1      24.099   1.411  52.255  1.00  0.00    -0.020 C 
HETATM    9  C11 UNL     1      23.230   2.125  51.493  1.00  0.00     0.009 C 
HETATM   10  C12 UNL     1      21.797   1.915  51.513  1.00  0.00    -0.019 A 
HETATM   11  C13 UNL     1      20.809   0.986  51.525  1.00  0.00     0.020 A 
HETATM   12  C14 UNL     1      19.484   1.257  51.671  1.00  0.00    -0.048 A 
HETATM   13  C15 UNL     1      18.991   2.505  51.816  1.00  0.00     0.009 A 
HETATM   14  C16 UNL     1      19.893   3.548  51.817  1.00  0.00     0.020 A 
HETATM   15  C17 UNL     1      21.256   3.222  51.667  1.00  0.00     0.021 A 
HETATM   16 BR1  UNL     1      22.282   4.875  51.704  1.00  0.00    -0.050 Br
ENDROOT
BRANCH   1  17
HETATM   17  C2  UNL     1      17.161   0.376  51.553  1.00  0.00     0.071 C 
HETATM   18  C1  UNL     1      16.659   0.355  50.149  1.00  0.00     0.024 C 
BRANCH  17  19
HETATM   19  S1  UNL     1      16.199  -0.670  52.663  1.00  0.00    -0.082 SA
BRANCH  19  20
HETATM   20  N1  UNL     1      14.852   0.282  53.304  1.00  0.00    -0.277 NA
HETATM   21  H5  UNL     1      14.811   0.239  54.352  1.00  0.00     0.131 HD
HETATM   22  H6  UNL     1      15.006   1.263  52.972  1.00  0.00     0.131 HD
ENDBRANCH  19  20
ENDBRANCH  17  19
ENDBRANCH   1  17
TORSDOF 3
ENDMDL
