MODEL 1
REMARK VINA RESULT:      -8.7      0.000      0.000
REMARK  5 active torsions:
REMARK  status: ('A' for Active; 'I' for Inactive)
REMARK    1  A    between atoms: C1_2  and  C2_3 
REMARK       I    between atoms: C1_2  and  N2_15 
REMARK    2  A    between atoms: C2_3  and  C3_4 
REMARK    3  A    between atoms: C3_4  and  C4_5 
REMARK    4  A    between atoms: N2_15  and  C12_16 
REMARK    5  A    between atoms: C12_16  and  C13_17 
ROOT
HETATM    1  C2  UNL     1      24.560   2.859  52.619  1.00  0.00     0.103 C 
ENDROOT
BRANCH   1   2
HETATM    2  C1  UNL     1      25.054   2.941  51.220  1.00  0.00     0.217 C 
HETATM    3  O1  UNL     1      24.059   2.544  50.566  1.00  0.00    -0.274 OA
HETATM    4  N2  UNL     1      26.363   3.388  50.945  1.00  0.00    -0.357 N 
HETATM    5  H12 UNL     1      26.942   3.642  51.754  1.00  0.00     0.162 HD
BRANCH   4   6
HETATM    6  C12 UNL     1      26.696   3.421  49.529  1.00  0.00     0.161 C 
BRANCH   6   7
HETATM    7  C13 UNL     1      26.797   4.807  49.005  1.00  0.00    -0.041 A 
HETATM    8  C14 UNL     1      28.080   5.065  48.545  1.00  0.00     0.009 A 
HETATM    9  C15 UNL     1      28.417   6.307  48.005  1.00  0.00     0.001 A 
HETATM   10  C16 UNL     1      27.444   7.296  47.930  1.00  0.00     0.000 A 
HETATM   11  C17 UNL     1      26.163   7.017  48.396  1.00  0.00     0.001 A 
HETATM   12  C18 UNL     1      25.827   5.782  48.933  1.00  0.00     0.009 A 
ENDBRANCH   6   7
ENDBRANCH   4   6
ENDBRANCH   1   2
BRANCH   1  13
HETATM   13  C3  UNL     1      25.376   1.854  53.389  1.00  0.00     0.021 C 
BRANCH  13  14
HETATM   14  C4  UNL     1      25.145   0.444  52.947  1.00  0.00     0.054 C 
HETATM   15  C5  UNL     1      23.856  -0.096  53.484  1.00  0.00    -0.025 A 
HETATM   16  C6  UNL     1      22.609   0.113  52.928  1.00  0.00     0.010 A 
HETATM   17  C10 UNL     1      24.104  -0.835  54.624  1.00  0.00     0.035 A 
HETATM   18  C7  UNL     1      21.548  -0.477  53.587  1.00  0.00     0.001 A 
HETATM   19  C8  UNL     1      21.728  -1.237  54.746  1.00  0.00     0.002 A 
HETATM   20  C9  UNL     1      23.011  -1.414  55.263  1.00  0.00     0.029 A 
HETATM   21  N1  UNL     1      25.532  -0.780  54.829  1.00  0.00    -0.375 N 
HETATM   22  C11 UNL     1      26.133  -0.532  53.512  1.00  0.00     0.162 C 
HETATM   23  H10 UNL     1      25.949  -0.908  55.781  1.00  0.00     0.161 HD
HETATM   24 BR1  UNL     1      27.919   0.156  53.659  1.00  0.00    -0.068 Br
ENDBRANCH  13  14
ENDBRANCH   1  13
TORSDOF 5
ENDMDL
MODEL 2
REMARK VINA RESULT:      -8.4      1.978      3.600
REMARK  5 active torsions:
REMARK  status: ('A' for Active; 'I' for Inactive)
REMARK    1  A    between atoms: C1_2  and  C2_3 
REMARK       I    between atoms: C1_2  and  N2_15 
REMARK    2  A    between atoms: C2_3  and  C3_4 
REMARK    3  A    between atoms: C3_4  and  C4_5 
REMARK    4  A    between atoms: N2_15  and  C12_16 
REMARK    5  A    between atoms: C12_16  and  C13_17 
ROOT
HETATM    1  C2  UNL     1      24.997   2.731  52.462  1.00  0.00     0.103 C 
ENDROOT
BRANCH   1   2
HETATM    2  C1  UNL     1      24.842   3.322  51.108  1.00  0.00     0.217 C 
HETATM    3  O1  UNL     1      23.918   2.625  50.621  1.00  0.00    -0.274 OA
HETATM    4  N2  UNL     1      25.651   4.401  50.697  1.00  0.00    -0.357 N 
HETATM    5  H12 UNL     1      26.343   4.741  51.374  1.00  0.00     0.162 HD
BRANCH   4   6
HETATM    6  C12 UNL     1      25.375   4.874  49.349  1.00  0.00     0.161 C 
BRANCH   6   7
HETATM    7  C13 UNL     1      26.526   5.605  48.760  1.00  0.00    -0.041 A 
HETATM    8  C14 UNL     1      27.661   4.806  48.751  1.00  0.00     0.009 A 
HETATM    9  C15 UNL     1      28.872   5.278  48.244  1.00  0.00     0.001 A 
HETATM   10  C16 UNL     1      28.934   6.572  47.740  1.00  0.00     0.000 A 
HETATM   11  C17 UNL     1      27.785   7.356  47.757  1.00  0.00     0.001 A 
HETATM   12  C18 UNL     1      26.580   6.888  48.262  1.00  0.00     0.009 A 
ENDBRANCH   6   7
ENDBRANCH   4   6
ENDBRANCH   1   2
BRANCH   1  13
HETATM   13  C3  UNL     1      25.611   1.360  52.352  1.00  0.00     0.021 C 
BRANCH  13  14
HETATM   14  C4  UNL     1      26.067   0.811  53.666  1.00  0.00     0.054 C 
HETATM   15  C5  UNL     1      27.499   0.377  53.613  1.00  0.00    -0.025 A 
HETATM   16  C6  UNL     1      28.592   1.209  53.763  1.00  0.00     0.010 A 
HETATM   17  C10 UNL     1      27.562  -0.984  53.388  1.00  0.00     0.035 A 
HETATM   18  C7  UNL     1      29.830   0.601  53.676  1.00  0.00     0.001 A 
HETATM   19  C8  UNL     1      29.964  -0.771  53.450  1.00  0.00     0.002 A 
HETATM   20  C9  UNL     1      28.825  -1.563  53.305  1.00  0.00     0.029 A 
HETATM   21  N1  UNL     1      26.193  -1.434  53.297  1.00  0.00    -0.375 N 
HETATM   22  C11 UNL     1      25.385  -0.467  54.052  1.00  0.00     0.162 C 
HETATM   23  H10 UNL     1      25.941  -2.301  52.766  1.00  0.00     0.161 HD
HETATM   24 BR1  UNL     1      23.531  -0.546  53.562  1.00  0.00    -0.068 Br
ENDBRANCH  13  14
ENDBRANCH   1  13
TORSDOF 5
ENDMDL
MODEL 3
REMARK VINA RESULT:      -8.4      2.680      4.521
REMARK  5 active torsions:
REMARK  status: ('A' for Active; 'I' for Inactive)
REMARK    1  A    between atoms: C1_2  and  C2_3 
REMARK       I    between atoms: C1_2  and  N2_15 
REMARK    2  A    between atoms: C2_3  and  C3_4 
REMARK    3  A    between atoms: C3_4  and  C4_5 
REMARK    4  A    between atoms: N2_15  and  C12_16 
REMARK    5  A    between atoms: C12_16  and  C13_17 
ROOT
HETATM    1  C2  UNL     1      26.879   2.499  51.697  1.00  0.00     0.103 C 
ENDROOT
BRANCH   1   2
HETATM    2  C1  UNL     1      25.558   2.975  51.211  1.00  0.00     0.217 C 
HETATM    3  O1  UNL     1      25.706   2.929  49.964  1.00  0.00    -0.274 OA
HETATM    4  N2  UNL     1      24.543   3.333  52.120  1.00  0.00    -0.357 N 
HETATM    5  H12 UNL     1      24.769   3.252  53.118  1.00  0.00     0.162 HD
BRANCH   4   6
HETATM    6  C12 UNL     1      23.306   3.771  51.491  1.00  0.00     0.161 C 
BRANCH   6   7
HETATM    7  C13 UNL     1      22.370   2.645  51.243  1.00  0.00    -0.041 A 
HETATM    8  C14 UNL     1      21.416   2.570  52.248  1.00  0.00     0.009 A 
HETATM    9  C15 UNL     1      20.426   1.587  52.230  1.00  0.00     0.001 A 
HETATM   10  C16 UNL     1      20.401   0.672  51.185  1.00  0.00     0.000 A 
HETATM   11  C17 UNL     1      21.365   0.765  50.186  1.00  0.00     0.001 A 
HETATM   12  C18 UNL     1      22.351   1.742  50.203  1.00  0.00     0.009 A 
ENDBRANCH   6   7
ENDBRANCH   4   6
ENDBRANCH   1   2
BRANCH   1  13
HETATM   13  C3  UNL     1      26.712   1.798  53.019  1.00  0.00     0.021 C 
BRANCH  13  14
HETATM   14  C4  UNL     1      26.549   0.317  52.884  1.00  0.00     0.054 C 
HETATM   15  C5  UNL     1      25.273  -0.154  53.512  1.00  0.00    -0.025 A 
HETATM   16  C6  UNL     1      24.029  -0.123  52.912  1.00  0.00     0.010 A 
HETATM   17  C10 UNL     1      25.529  -0.623  54.785  1.00  0.00     0.035 A 
HETATM   18  C7  UNL     1      22.981  -0.606  53.671  1.00  0.00     0.001 A 
HETATM   19  C8  UNL     1      23.171  -1.094  54.967  1.00  0.00     0.002 A 
HETATM   20  C9  UNL     1      24.450  -1.101  55.522  1.00  0.00     0.029 A 
HETATM   21  N1  UNL     1      26.950  -0.462  54.987  1.00  0.00    -0.375 N 
HETATM   22  C11 UNL     1      27.565  -0.472  53.653  1.00  0.00     0.162 C 
HETATM   23  H10 UNL     1      27.354  -0.367  55.949  1.00  0.00     0.161 HD
HETATM   24 BR1  UNL     1      29.318   0.310  53.668  1.00  0.00    -0.068 Br
ENDBRANCH  13  14
ENDBRANCH   1  13
TORSDOF 5
ENDMDL
MODEL 4
REMARK VINA RESULT:      -8.2      1.414      1.805
REMARK  5 active torsions:
REMARK  status: ('A' for Active; 'I' for Inactive)
REMARK    1  A    between atoms: C1_2  and  C2_3 
REMARK       I    between atoms: C1_2  and  N2_15 
REMARK    2  A    between atoms: C2_3  and  C3_4 
REMARK    3  A    between atoms: C3_4  and  C4_5 
REMARK    4  A    between atoms: N2_15  and  C12_16 
REMARK    5  A    between atoms: C12_16  and  C13_17 
ROOT
HETATM    1  C2  UNL     1      23.438   4.311  52.735  1.00  0.00     0.103 C 
ENDROOT
BRANCH   1   2
HETATM    2  C1  UNL     1      23.567   4.624  51.288  1.00  0.00     0.217 C 
HETATM    3  O1  UNL     1      22.397   4.435  50.873  1.00  0.00    -0.274 OA
HETATM    4  N2  UNL     1      24.807   5.017  50.745  1.00  0.00    -0.357 N 
HETATM    5  H12 UNL     1      25.599   5.067  51.397  1.00  0.00     0.162 HD
BRANCH   4   6
HETATM    6  C12 UNL     1      24.772   5.295  49.318  1.00  0.00     0.161 C 
BRANCH   6   7
HETATM    7  C13 UNL     1      26.075   5.794  48.808  1.00  0.00    -0.041 A 
HETATM    8  C14 UNL     1      27.047   4.808  48.899  1.00  0.00     0.009 A 
HETATM    9  C15 UNL     1      28.356   5.044  48.478  1.00  0.00     0.001 A 
HETATM   10  C16 UNL     1      28.684   6.291  47.961  1.00  0.00     0.000 A 
HETATM   11  C17 UNL     1      27.695   7.266  47.877  1.00  0.00     0.001 A 
HETATM   12  C18 UNL     1      26.393   7.032  48.295  1.00  0.00     0.009 A 
ENDBRANCH   6   7
ENDBRANCH   4   6
ENDBRANCH   1   2
BRANCH   1  13
HETATM   13  C3  UNL     1      24.284   3.113  53.075  1.00  0.00     0.021 C 
BRANCH  13  14
HETATM   14  C4  UNL     1      23.916   1.891  52.295  1.00  0.00     0.054 C 
HETATM   15  C5  UNL     1      23.017   0.987  53.082  1.00  0.00    -0.025 A 
HETATM   16  C6  UNL     1      21.648   1.129  53.201  1.00  0.00     0.010 A 
HETATM   17  C10 UNL     1      23.767  -0.010  53.674  1.00  0.00     0.035 A 
HETATM   18  C7  UNL     1      21.009   0.183  53.979  1.00  0.00     0.001 A 
HETATM   19  C8  UNL     1      21.708  -0.852  54.606  1.00  0.00     0.002 A 
HETATM   20  C9  UNL     1      23.091  -0.945  54.452  1.00  0.00     0.029 A 
HETATM   21  N1  UNL     1      25.135   0.237  53.281  1.00  0.00    -0.375 N 
HETATM   22  C11 UNL     1      25.077   0.984  52.017  1.00  0.00     0.162 C 
HETATM   23  H10 UNL     1      25.936  -0.101  53.864  1.00  0.00     0.161 HD
HETATM   24 BR1  UNL     1      26.722   1.904  51.655  1.00  0.00    -0.068 Br
ENDBRANCH  13  14
ENDBRANCH   1  13
TORSDOF 5
ENDMDL
MODEL 5
REMARK VINA RESULT:      -8.2      3.756      7.544
REMARK  5 active torsions:
REMARK  status: ('A' for Active; 'I' for Inactive)
REMARK    1  A    between atoms: C1_2  and  C2_3 
REMARK       I    between atoms: C1_2  and  N2_15 
REMARK    2  A    between atoms: C2_3  and  C3_4 
REMARK    3  A    between atoms: C3_4  and  C4_5 
REMARK    4  A    between atoms: N2_15  and  C12_16 
REMARK    5  A    between atoms: C12_16  and  C13_17 
ROOT
HETATM    1  C2  UNL     1      24.137  -0.692  54.131  1.00  0.00     0.103 C 
ENDROOT
BRANCH   1   2
HETATM    2  C1  UNL     1      22.674  -0.859  54.328  1.00  0.00     0.217 C 
HETATM    3  O1  UNL     1      22.628  -1.592  55.347  1.00  0.00    -0.274 OA
HETATM    4  N2  UNL     1      21.755  -0.244  53.453  1.00  0.00    -0.357 N 
HETATM    5  H12 UNL     1      22.152   0.309  52.685  1.00  0.00     0.162 HD
BRANCH   4   6
HETATM    6  C12 UNL     1      20.360  -0.493  53.782  1.00  0.00     0.161 C 
BRANCH   6   7
HETATM    7  C13 UNL     1      19.457  -0.255  52.627  1.00  0.00    -0.041 A 
HETATM    8  C14 UNL     1      18.219  -0.844  52.842  1.00  0.00     0.009 A 
HETATM    9  C15 UNL     1      17.202  -0.753  51.891  1.00  0.00     0.001 A 
HETATM   10  C16 UNL     1      17.441  -0.060  50.711  1.00  0.00     0.000 A 
HETATM   11  C17 UNL     1      18.688   0.525  50.515  1.00  0.00     0.001 A 
HETATM   12  C18 UNL     1      19.701   0.435  51.460  1.00  0.00     0.009 A 
ENDBRANCH   6   7
ENDBRANCH   4   6
ENDBRANCH   1   2
BRANCH   1  13
HETATM   13  C3  UNL     1      24.414   0.629  53.464  1.00  0.00     0.021 C 
BRANCH  13  14
HETATM   14  C4  UNL     1      25.522   0.562  52.461  1.00  0.00     0.054 C 
HETATM   15  C5  UNL     1      26.863   0.697  53.115  1.00  0.00    -0.025 A 
HETATM   16  C6  UNL     1      27.564  -0.329  53.719  1.00  0.00     0.010 A 
HETATM   17  C10 UNL     1      27.293   2.006  53.024  1.00  0.00     0.035 A 
HETATM   18  C7  UNL     1      28.786   0.014  54.265  1.00  0.00     0.001 A 
HETATM   19  C8  UNL     1      29.279   1.320  54.208  1.00  0.00     0.002 A 
HETATM   20  C9  UNL     1      28.528   2.316  53.585  1.00  0.00     0.029 A 
HETATM   21  N1  UNL     1      26.251   2.717  52.321  1.00  0.00    -0.375 N 
HETATM   22  C11 UNL     1      25.541   1.720  51.509  1.00  0.00     0.162 C 
HETATM   23  H10 UNL     1      26.120   3.749  52.443  1.00  0.00     0.161 HD
HETATM   24 BR1  UNL     1      23.799   2.333  50.986  1.00  0.00    -0.068 Br
ENDBRANCH  13  14
ENDBRANCH   1  13
TORSDOF 5
ENDMDL
MODEL 6
REMARK VINA RESULT:      -7.8      3.422      5.142
REMARK  5 active torsions:
REMARK  status: ('A' for Active; 'I' for Inactive)
REMARK    1  A    between atoms: C1_2  and  C2_3 
REMARK       I    between atoms: C1_2  and  N2_15 
REMARK    2  A    between atoms: C2_3  and  C3_4 
REMARK    3  A    between atoms: C3_4  and  C4_5 
REMARK    4  A    between atoms: N2_15  and  C12_16 
REMARK    5  A    between atoms: C12_16  and  C13_17 
ROOT
HETATM    1  C2  UNL     1      22.952   3.700  50.412  1.00  0.00     0.103 C 
ENDROOT
BRANCH   1   2
HETATM    2  C1  UNL     1      24.384   3.326  50.284  1.00  0.00     0.217 C 
HETATM    3  O1  UNL     1      24.511   3.191  49.042  1.00  0.00    -0.274 OA
HETATM    4  N2  UNL     1      25.202   3.214  51.427  1.00  0.00    -0.357 N 
HETATM    5  H12 UNL     1      24.756   3.397  52.333  1.00  0.00     0.162 HD
BRANCH   4   6
HETATM    6  C12 UNL     1      26.581   2.848  51.139  1.00  0.00     0.161 C 
BRANCH   6   7
HETATM    7  C13 UNL     1      27.101   1.823  52.080  1.00  0.00    -0.041 A 
HETATM    8  C14 UNL     1      26.577   0.574  51.782  1.00  0.00     0.009 A 
HETATM    9  C15 UNL     1      26.922  -0.551  52.534  1.00  0.00     0.001 A 
HETATM   10  C16 UNL     1      27.806  -0.408  53.596  1.00  0.00     0.000 A 
HETATM   11  C17 UNL     1      28.321   0.853  53.877  1.00  0.00     0.001 A 
HETATM   12  C18 UNL     1      27.979   1.972  53.131  1.00  0.00     0.009 A 
ENDBRANCH   6   7
ENDBRANCH   4   6
ENDBRANCH   1   2
BRANCH   1  13
HETATM   13  C3  UNL     1      22.146   2.496  50.822  1.00  0.00     0.021 C 
BRANCH  13  14
HETATM   14  C4  UNL     1      21.799   2.487  52.277  1.00  0.00     0.054 C 
HETATM   15  C5  UNL     1      22.104   1.162  52.906  1.00  0.00    -0.025 A 
HETATM   16  C6  UNL     1      23.344   0.762  53.363  1.00  0.00     0.010 A 
HETATM   17  C10 UNL     1      20.954   0.399  52.957  1.00  0.00     0.035 A 
HETATM   18  C7  UNL     1      23.405  -0.506  53.909  1.00  0.00     0.001 A 
HETATM   19  C8  UNL     1      22.280  -1.330  53.991  1.00  0.00     0.002 A 
HETATM   20  C9  UNL     1      21.052  -0.873  53.513  1.00  0.00     0.029 A 
HETATM   21  N1  UNL     1      19.913   1.212  52.373  1.00  0.00    -0.375 N 
HETATM   22  C11 UNL     1      20.329   2.610  52.545  1.00  0.00     0.162 C 
HETATM   23  H10 UNL     1      19.066   0.777  51.937  1.00  0.00     0.161 HD
HETATM   24 BR1  UNL     1      19.408   3.784  51.338  1.00  0.00    -0.068 Br
ENDBRANCH  13  14
ENDBRANCH   1  13
TORSDOF 5
ENDMDL
MODEL 7
REMARK VINA RESULT:      -7.8      3.457      5.576
REMARK  5 active torsions:
REMARK  status: ('A' for Active; 'I' for Inactive)
REMARK    1  A    between atoms: C1_2  and  C2_3 
REMARK       I    between atoms: C1_2  and  N2_15 
REMARK    2  A    between atoms: C2_3  and  C3_4 
REMARK    3  A    between atoms: C3_4  and  C4_5 
REMARK    4  A    between atoms: N2_15  and  C12_16 
REMARK    5  A    between atoms: C12_16  and  C13_17 
ROOT
HETATM    1  C2  UNL     1      24.348   2.106  51.473  1.00  0.00     0.103 C 
ENDROOT
BRANCH   1   2
HETATM    2  C1  UNL     1      25.755   2.167  51.946  1.00  0.00     0.217 C 
HETATM    3  O1  UNL     1      26.347   2.650  50.949  1.00  0.00    -0.274 OA
HETATM    4  N2  UNL     1      26.098   1.731  53.242  1.00  0.00    -0.357 N 
HETATM    5  H12 UNL     1      25.333   1.371  53.824  1.00  0.00     0.162 HD
BRANCH   4   6
HETATM    6  C12 UNL     1      27.512   1.861  53.560  1.00  0.00     0.161 C 
BRANCH   6   7
HETATM    7  C13 UNL     1      28.228   0.561  53.490  1.00  0.00    -0.041 A 
HETATM    8  C14 UNL     1      27.366  -0.452  53.093  1.00  0.00     0.009 A 
HETATM    9  C15 UNL     1      27.813  -1.767  52.956  1.00  0.00     0.001 A 
HETATM   10  C16 UNL     1      29.146  -2.058  53.223  1.00  0.00     0.000 A 
HETATM   11  C17 UNL     1      29.994  -1.028  53.618  1.00  0.00     0.001 A 
HETATM   12  C18 UNL     1      29.550   0.280  53.755  1.00  0.00     0.009 A 
ENDBRANCH   6   7
ENDBRANCH   4   6
ENDBRANCH   1   2
BRANCH   1  13
HETATM   13  C3  UNL     1      23.485   1.459  52.524  1.00  0.00     0.021 C 
BRANCH  13  14
HETATM   14  C4  UNL     1      22.863   0.177  52.069  1.00  0.00     0.054 C 
HETATM   15  C5  UNL     1      21.500   0.403  51.491  1.00  0.00    -0.025 A 
HETATM   16  C6  UNL     1      21.238   0.804  50.195  1.00  0.00     0.010 A 
HETATM   17  C10 UNL     1      20.542   0.151  52.454  1.00  0.00     0.035 A 
HETATM   18  C7  UNL     1      19.904   0.955  49.869  1.00  0.00     0.001 A 
HETATM   19  C8  UNL     1      18.886   0.718  50.795  1.00  0.00     0.002 A 
HETATM   20  C9  UNL     1      19.209   0.315  52.090  1.00  0.00     0.029 A 
HETATM   21  N1  UNL     1      21.266  -0.234  53.642  1.00  0.00    -0.375 N 
HETATM   22  C11 UNL     1      22.556  -0.772  53.188  1.00  0.00     0.162 C 
HETATM   23  H10 UNL     1      20.851  -0.108  54.595  1.00  0.00     0.161 HD
HETATM   24 BR1  UNL     1      23.863  -0.777  54.594  1.00  0.00    -0.068 Br
ENDBRANCH  13  14
ENDBRANCH   1  13
TORSDOF 5
ENDMDL
MODEL 8
REMARK VINA RESULT:      -7.7      3.850      6.461
REMARK  5 active torsions:
REMARK  status: ('A' for Active; 'I' for Inactive)
REMARK    1  A    between atoms: C1_2  and  C2_3 
REMARK       I    between atoms: C1_2  and  N2_15 
REMARK    2  A    between atoms: C2_3  and  C3_4 
REMARK    3  A    between atoms: C3_4  and  C4_5 
REMARK    4  A    between atoms: N2_15  and  C12_16 
REMARK    5  A    between atoms: C12_16  and  C13_17 
ROOT
HETATM    1  C2  UNL     1      24.545   2.616  52.776  1.00  0.00     0.103 C 
ENDROOT
BRANCH   1   2
HETATM    2  C1  UNL     1      23.390   2.615  51.841  1.00  0.00     0.217 C 
HETATM    3  O1  UNL     1      22.884   3.745  52.047  1.00  0.00    -0.274 OA
HETATM    4  N2  UNL     1      23.130   1.497  51.022  1.00  0.00    -0.357 N 
HETATM    5  H12 UNL     1      23.770   0.700  51.113  1.00  0.00     0.162 HD
BRANCH   4   6
HETATM    6  C12 UNL     1      21.970   1.650  50.156  1.00  0.00     0.161 C 
BRANCH   6   7
HETATM    7  C13 UNL     1      20.751   1.026  50.731  1.00  0.00    -0.041 A 
HETATM    8  C14 UNL     1      19.672   1.177  49.872  1.00  0.00     0.009 A 
HETATM    9  C15 UNL     1      18.413   0.670  50.199  1.00  0.00     0.001 A 
HETATM   10  C16 UNL     1      18.248   0.003  51.406  1.00  0.00     0.000 A 
HETATM   11  C17 UNL     1      19.342  -0.139  52.253  1.00  0.00     0.001 A 
HETATM   12  C18 UNL     1      20.594   0.366  51.929  1.00  0.00     0.009 A 
ENDBRANCH   6   7
ENDBRANCH   4   6
ENDBRANCH   1   2
BRANCH   1  13
HETATM   13  C3  UNL     1      25.327   1.339  52.622  1.00  0.00     0.021 C 
BRANCH  13  14
HETATM   14  C4  UNL     1      25.913   0.848  53.908  1.00  0.00     0.054 C 
HETATM   15  C5  UNL     1      27.374   0.549  53.767  1.00  0.00    -0.025 A 
HETATM   16  C6  UNL     1      28.390   1.481  53.846  1.00  0.00     0.010 A 
HETATM   17  C10 UNL     1      27.551  -0.802  53.544  1.00  0.00     0.035 A 
HETATM   18  C7  UNL     1      29.672   0.991  53.685  1.00  0.00     0.001 A 
HETATM   19  C8  UNL     1      29.921  -0.364  53.456  1.00  0.00     0.002 A 
HETATM   20  C9  UNL     1      28.855  -1.261  53.386  1.00  0.00     0.029 A 
HETATM   21  N1  UNL     1      26.227  -1.379  53.540  1.00  0.00    -0.375 N 
HETATM   22  C11 UNL     1      25.379  -0.485  54.340  1.00  0.00     0.162 C 
HETATM   23  H10 UNL     1      26.025  -2.271  53.029  1.00  0.00     0.161 HD
HETATM   24 BR1  UNL     1      23.515  -0.742  53.966  1.00  0.00    -0.068 Br
ENDBRANCH  13  14
ENDBRANCH   1  13
TORSDOF 5
ENDMDL
MODEL 9
REMARK VINA RESULT:      -7.4      3.629      5.812
REMARK  5 active torsions:
REMARK  status: ('A' for Active; 'I' for Inactive)
REMARK    1  A    between atoms: C1_2  and  C2_3 
REMARK       I    between atoms: C1_2  and  N2_15 
REMARK    2  A    between atoms: C2_3  and  C3_4 
REMARK    3  A    between atoms: C3_4  and  C4_5 
REMARK    4  A    between atoms: N2_15  and  C12_16 
REMARK    5  A    between atoms: C12_16  and  C13_17 
ROOT
HETATM    1  C2  UNL     1      23.694   0.457  53.521  1.00  0.00     0.103 C 
ENDROOT
BRANCH   1   2
HETATM    2  C1  UNL     1      22.625   0.056  52.570  1.00  0.00     0.217 C 
HETATM    3  O1  UNL     1      22.444  -1.149  52.872  1.00  0.00    -0.274 OA
HETATM    4  N2  UNL     1      22.100   0.982  51.646  1.00  0.00    -0.357 N 
HETATM    5  H12 UNL     1      22.497   1.929  51.667  1.00  0.00     0.162 HD
BRANCH   4   6
HETATM    6  C12 UNL     1      21.056   0.442  50.789  1.00  0.00     0.161 C 
BRANCH   6   7
HETATM    7  C13 UNL     1      20.718   1.356  49.667  1.00  0.00    -0.041 A 
HETATM    8  C14 UNL     1      21.776   1.448  48.775  1.00  0.00     0.009 A 
HETATM    9  C15 UNL     1      21.692   2.252  47.637  1.00  0.00     0.001 A 
HETATM   10  C16 UNL     1      20.525   2.968  47.402  1.00  0.00     0.000 A 
HETATM   11  C17 UNL     1      19.475   2.861  48.308  1.00  0.00     0.001 A 
HETATM   12  C18 UNL     1      19.558   2.063  49.440  1.00  0.00     0.009 A 
ENDBRANCH   6   7
ENDBRANCH   4   6
ENDBRANCH   1   2
BRANCH   1  13
HETATM   13  C3  UNL     1      24.496   1.590  52.938  1.00  0.00     0.021 C 
BRANCH  13  14
HETATM   14  C4  UNL     1      25.682   1.129  52.151  1.00  0.00     0.054 C 
HETATM   15  C5  UNL     1      26.896   0.991  53.017  1.00  0.00    -0.025 A 
HETATM   16  C6  UNL     1      27.195  -0.103  53.806  1.00  0.00     0.010 A 
HETATM   17  C10 UNL     1      27.672   2.129  52.910  1.00  0.00     0.035 A 
HETATM   18  C7  UNL     1      28.368  -0.022  54.530  1.00  0.00     0.001 A 
HETATM   19  C8  UNL     1      29.199   1.099  54.468  1.00  0.00     0.002 A 
HETATM   20  C9  UNL     1      28.847   2.176  53.655  1.00  0.00     0.029 A 
HETATM   21  N1  UNL     1      26.978   2.996  51.988  1.00  0.00    -0.375 N 
HETATM   22  C11 UNL     1      26.155   2.127  51.137  1.00  0.00     0.162 C 
HETATM   23  H10 UNL     1      27.114   4.034  52.012  1.00  0.00     0.161 HD
HETATM   24 BR1  UNL     1      24.742   3.100  50.276  1.00  0.00    -0.068 Br
ENDBRANCH  13  14
ENDBRANCH   1  13
TORSDOF 5
ENDMDL
