MODEL 1
REMARK VINA RESULT:      -9.1      0.000      0.000
REMARK  4 active torsions:
REMARK  status: ('A' for Active; 'I' for Inactive)
REMARK    1  A    between atoms: C3_5  and  N3_6 
REMARK    2  A    between atoms: N3_6  and  C4_7 
REMARK    3  A    between atoms: N5_15  and  C10_16 
REMARK    4  A    between atoms: C13_19  and  N6_20 
ROOT
HETATM    1  C1  UNL     1      24.461   4.610  50.060  1.00  0.00     0.158 C 
HETATM    2  N1  UNL     1      24.519   3.914  51.299  1.00  0.00    -0.330 N 
HETATM    3  C2  UNL     1      23.866   4.030  52.557  1.00  0.00     0.209 A 
HETATM    4  N2  UNL     1      24.208   3.171  53.443  1.00  0.00    -0.229 NA
HETATM    5  C3  UNL     1      25.184   2.285  52.909  1.00  0.00     0.260 A 
HETATM    6  N4  UNL     1      26.423   2.141  53.611  1.00  0.00    -0.202 NA
HETATM    7  N5  UNL     1      27.375   1.428  52.915  1.00  0.00    -0.224 NA
HETATM    8  C15 UNL     1      26.941   0.984  51.604  1.00  0.00     0.259 C 
HETATM    9  N7  UNL     1      26.280   2.094  50.910  1.00  0.00    -0.255 NA
HETATM   10  C16 UNL     1      25.379   2.804  51.532  1.00  0.00     0.172 A 
HETATM   11  H10 UNL     1      26.273   1.853  54.602  1.00  0.00     0.146 HD
ENDROOT
BRANCH   5  12
HETATM   12  N3  UNL     1      24.536   0.972  52.873  1.00  0.00    -0.342 N 
HETATM   13  H5  UNL     1      24.962   0.381  52.093  1.00  0.00     0.164 HD
BRANCH  12  14
HETATM   14  C4  UNL     1      23.553   0.170  53.509  1.00  0.00     0.032 A 
HETATM   15  C5  UNL     1      23.804  -0.712  54.568  1.00  0.00     0.029 A 
HETATM   16  C6  UNL     1      22.756  -1.424  55.084  1.00  0.00     0.004 A 
HETATM   17  C7  UNL     1      21.475  -1.313  54.613  1.00  0.00     0.024 A 
HETATM   18  C8  UNL     1      21.203  -0.452  53.572  1.00  0.00     0.036 A 
HETATM   19 CL1  UNL     1      19.532  -0.413  53.078  1.00  0.00    -0.084 Cl
HETATM   20  C9  UNL     1      22.258   0.267  53.050  1.00  0.00     0.053 A 
ENDBRANCH  12  14
ENDBRANCH   5  12
BRANCH   7  21
HETATM   21  C10 UNL     1      27.947   0.328  53.598  1.00  0.00     0.078 C 
HETATM   22  C11 UNL     1      29.456   0.371  53.674  1.00  0.00     0.023 C 
HETATM   23  C12 UNL     1      29.752  -1.114  53.924  1.00  0.00     0.037 C 
HETATM   24  C13 UNL     1      28.900  -1.797  52.897  1.00  0.00     0.219 C 
HETATM   25  C14 UNL     1      27.646  -0.962  52.854  1.00  0.00     0.056 C 
BRANCH  24  26
HETATM   26  N6  UNL     1      28.613  -3.146  53.305  1.00  0.00     0.083 N 
HETATM   27  H17 UNL     1      29.152  -3.407  54.152  1.00  0.00     0.313 HD
HETATM   28  H18 UNL     1      28.790  -3.808  52.501  1.00  0.00     0.313 HD
ENDBRANCH  24  26
ENDBRANCH   7  21
TORSDOF 4
ENDMDL
MODEL 2
REMARK VINA RESULT:      -8.7      2.782      6.092
REMARK  4 active torsions:
REMARK  status: ('A' for Active; 'I' for Inactive)
REMARK    1  A    between atoms: C3_5  and  N3_6 
REMARK    2  A    between atoms: N3_6  and  C4_7 
REMARK    3  A    between atoms: N5_15  and  C10_16 
REMARK    4  A    between atoms: C13_19  and  N6_20 
ROOT
HETATM    1  C1  UNL     1      30.165  -0.138  53.768  1.00  0.00     0.158 C 
HETATM    2  N1  UNL     1      28.988   0.654  53.669  1.00  0.00    -0.330 N 
HETATM    3  C2  UNL     1      28.673   2.028  53.862  1.00  0.00     0.209 A 
HETATM    4  N2  UNL     1      27.451   2.353  53.655  1.00  0.00    -0.229 NA
HETATM    5  C3  UNL     1      26.705   1.208  53.262  1.00  0.00     0.260 A 
HETATM    6  N4  UNL     1      25.532   0.875  54.012  1.00  0.00    -0.202 NA
HETATM    7  N5  UNL     1      24.997  -0.353  53.689  1.00  0.00    -0.224 NA
HETATM    8  C15 UNL     1      25.737  -1.072  52.670  1.00  0.00     0.259 C 
HETATM    9  N7  UNL     1      27.170  -1.014  52.980  1.00  0.00    -0.255 NA
HETATM   10  C16 UNL     1      27.719   0.126  53.301  1.00  0.00     0.172 A 
HETATM   11  H10 UNL     1      24.858   1.670  54.047  1.00  0.00     0.146 HD
ENDROOT
BRANCH   5  12
HETATM   12  N3  UNL     1      26.291   1.471  51.882  1.00  0.00    -0.342 N 
HETATM   13  H5  UNL     1      26.325   0.566  51.316  1.00  0.00     0.164 HD
BRANCH  12  14
HETATM   14  C4  UNL     1      25.837   2.489  51.003  1.00  0.00     0.032 A 
HETATM   15  C5  UNL     1      24.493   2.827  50.800  1.00  0.00     0.029 A 
HETATM   16  C6  UNL     1      24.202   3.833  49.920  1.00  0.00     0.004 A 
HETATM   17  C7  UNL     1      25.164   4.524  49.230  1.00  0.00     0.024 A 
HETATM   18  C8  UNL     1      26.493   4.209  49.414  1.00  0.00     0.036 A 
HETATM   19 CL1  UNL     1      27.604   5.168  48.474  1.00  0.00    -0.084 Cl
HETATM   20  C9  UNL     1      26.789   3.195  50.301  1.00  0.00     0.053 A 
ENDBRANCH  12  14
ENDBRANCH   5  12
BRANCH   7  21
HETATM   21  C10 UNL     1      23.625  -0.358  53.338  1.00  0.00     0.078 C 
HETATM   22  C11 UNL     1      22.999   1.017  53.298  1.00  0.00     0.023 C 
HETATM   23  C12 UNL     1      21.520   0.642  53.458  1.00  0.00     0.037 C 
HETATM   24  C13 UNL     1      21.549  -0.324  54.605  1.00  0.00     0.219 C 
HETATM   25  C14 UNL     1      22.820  -1.104  54.389  1.00  0.00     0.056 C 
BRANCH  24  26
HETATM   26  N6  UNL     1      20.397  -1.185  54.561  1.00  0.00     0.083 N 
HETATM   27  H17 UNL     1      20.674  -2.185  54.572  1.00  0.00     0.313 HD
HETATM   28  H18 UNL     1      19.804  -0.945  53.720  1.00  0.00     0.313 HD
ENDBRANCH  24  26
ENDBRANCH   7  21
TORSDOF 4
ENDMDL
MODEL 3
REMARK VINA RESULT:      -8.1      1.994      2.646
REMARK  4 active torsions:
REMARK  status: ('A' for Active; 'I' for Inactive)
REMARK    1  A    between atoms: C3_5  and  N3_6 
REMARK    2  A    between atoms: N3_6  and  C4_7 
REMARK    3  A    between atoms: N5_15  and  C10_16 
REMARK    4  A    between atoms: C13_19  and  N6_20 
ROOT
HETATM    1  C1  UNL     1      24.370   5.987  48.741  1.00  0.00     0.158 C 
HETATM    2  N1  UNL     1      24.162   5.210  49.914  1.00  0.00    -0.330 N 
HETATM    3  C2  UNL     1      23.269   5.265  51.020  1.00  0.00     0.209 A 
HETATM    4  N2  UNL     1      23.408   4.339  51.894  1.00  0.00    -0.229 NA
HETATM    5  C3  UNL     1      24.456   3.460  51.506  1.00  0.00     0.260 A 
HETATM    6  N4  UNL     1      25.524   3.231  52.432  1.00  0.00    -0.202 NA
HETATM    7  N5  UNL     1      26.585   2.535  51.894  1.00  0.00    -0.224 NA
HETATM    8  C15 UNL     1      26.419   2.191  50.495  1.00  0.00     0.259 C 
HETATM    9  N7  UNL     1      25.933   3.365  49.761  1.00  0.00    -0.255 NA
HETATM   10  C16 UNL     1      24.936   4.060  50.237  1.00  0.00     0.172 A 
HETATM   11  H10 UNL     1      25.171   2.884  53.350  1.00  0.00     0.146 HD
ENDROOT
BRANCH   5  12
HETATM   12  N3  UNL     1      23.806   2.173  51.249  1.00  0.00    -0.342 N 
HETATM   13  H5  UNL     1      24.337   1.647  50.486  1.00  0.00     0.164 HD
BRANCH  12  14
HETATM   14  C4  UNL     1      22.730   1.339  51.652  1.00  0.00     0.032 A 
HETATM   15  C5  UNL     1      21.590   1.078  50.881  1.00  0.00     0.029 A 
HETATM   16  C6  UNL     1      20.630   0.253  51.399  1.00  0.00     0.004 A 
HETATM   17  C7  UNL     1      20.734  -0.330  52.634  1.00  0.00     0.024 A 
HETATM   18  C8  UNL     1      21.847  -0.088  53.411  1.00  0.00     0.036 A 
HETATM   19 CL1  UNL     1      21.844  -0.894  54.956  1.00  0.00    -0.084 Cl
HETATM   20  C9  UNL     1      22.816   0.745  52.891  1.00  0.00     0.053 A 
ENDBRANCH  12  14
ENDBRANCH   5  12
BRANCH   7  21
HETATM   21  C10 UNL     1      26.986   1.376  52.600  1.00  0.00     0.078 C 
HETATM   22  C11 UNL     1      26.548   0.083  51.951  1.00  0.00     0.023 C 
HETATM   23  C12 UNL     1      26.618  -0.859  53.161  1.00  0.00     0.037 C 
HETATM   24  C13 UNL     1      25.911  -0.078  54.227  1.00  0.00     0.219 C 
HETATM   25  C14 UNL     1      26.331   1.346  53.971  1.00  0.00     0.056 C 
BRANCH  24  26
HETATM   26  N6  UNL     1      26.332  -0.518  55.530  1.00  0.00     0.083 N 
HETATM   27  H17 UNL     1      26.002  -1.482  55.727  1.00  0.00     0.313 HD
HETATM   28  H18 UNL     1      26.007   0.171  56.262  1.00  0.00     0.313 HD
ENDBRANCH  24  26
ENDBRANCH   7  21
TORSDOF 4
ENDMDL
MODEL 4
REMARK VINA RESULT:      -8.1      2.672      5.475
REMARK  4 active torsions:
REMARK  status: ('A' for Active; 'I' for Inactive)
REMARK    1  A    between atoms: C3_5  and  N3_6 
REMARK    2  A    between atoms: N3_6  and  C4_7 
REMARK    3  A    between atoms: N5_15  and  C10_16 
REMARK    4  A    between atoms: C13_19  and  N6_20 
ROOT
HETATM    1  C1  UNL     1      25.486   7.068  49.813  1.00  0.00     0.158 C 
HETATM    2  N1  UNL     1      25.707   5.664  49.845  1.00  0.00    -0.330 N 
HETATM    3  C2  UNL     1      26.646   4.772  49.255  1.00  0.00     0.209 A 
HETATM    4  N2  UNL     1      26.502   3.535  49.554  1.00  0.00    -0.229 NA
HETATM    5  C3  UNL     1      25.403   3.375  50.442  1.00  0.00     0.260 A 
HETATM    6  N4  UNL     1      24.365   2.461  50.074  1.00  0.00    -0.202 NA
HETATM    7  N5  UNL     1      23.254   2.526  50.887  1.00  0.00    -0.224 NA
HETATM    8  C15 UNL     1      23.349   3.519  51.940  1.00  0.00     0.259 C 
HETATM    9  N7  UNL     1      23.855   4.777  51.377  1.00  0.00    -0.255 NA
HETATM   10  C16 UNL     1      24.898   4.762  50.593  1.00  0.00     0.172 A 
HETATM   11  H10 UNL     1      24.739   1.505  49.891  1.00  0.00     0.146 HD
ENDROOT
BRANCH   5  12
HETATM   12  N3  UNL     1      25.987   2.904  51.700  1.00  0.00    -0.342 N 
HETATM   13  H5  UNL     1      25.684   3.543  52.500  1.00  0.00     0.164 HD
BRANCH  12  14
HETATM   14  C4  UNL     1      26.801   1.890  52.268  1.00  0.00     0.032 A 
HETATM   15  C5  UNL     1      27.932   2.124  53.061  1.00  0.00     0.029 A 
HETATM   16  C6  UNL     1      28.623   1.046  53.542  1.00  0.00     0.004 A 
HETATM   17  C7  UNL     1      28.260  -0.249  53.285  1.00  0.00     0.024 A 
HETATM   18  C8  UNL     1      27.151  -0.504  52.507  1.00  0.00     0.036 A 
HETATM   19 CL1  UNL     1      26.807  -2.196  52.264  1.00  0.00    -0.084 Cl
HETATM   20  C9  UNL     1      26.452   0.580  52.020  1.00  0.00     0.053 A 
ENDBRANCH  12  14
ENDBRANCH   5  12
BRANCH   7  21
HETATM   21  C10 UNL     1      22.833   1.301  51.459  1.00  0.00     0.078 C 
HETATM   22  C11 UNL     1      21.430   0.895  51.070  1.00  0.00     0.023 C 
HETATM   23  C12 UNL     1      21.104  -0.069  52.219  1.00  0.00     0.037 C 
HETATM   24  C13 UNL     1      21.537   0.704  53.428  1.00  0.00     0.219 C 
HETATM   25  C14 UNL     1      22.780   1.423  52.973  1.00  0.00     0.056 C 
BRANCH  24  26
HETATM   26  N6  UNL     1      21.823  -0.192  54.516  1.00  0.00     0.083 N 
HETATM   27  H17 UNL     1      21.086  -0.146  55.246  1.00  0.00     0.313 HD
HETATM   28  H18 UNL     1      22.783   0.015  54.907  1.00  0.00     0.313 HD
ENDBRANCH  24  26
ENDBRANCH   7  21
TORSDOF 4
ENDMDL
MODEL 5
REMARK VINA RESULT:      -8.1      1.389      4.805
REMARK  4 active torsions:
REMARK  status: ('A' for Active; 'I' for Inactive)
REMARK    1  A    between atoms: C3_5  and  N3_6 
REMARK    2  A    between atoms: N3_6  and  C4_7 
REMARK    3  A    between atoms: N5_15  and  C10_16 
REMARK    4  A    between atoms: C13_19  and  N6_20 
ROOT
HETATM    1  C1  UNL     1      29.941  -1.344  53.853  1.00  0.00     0.158 C 
HETATM    2  N1  UNL     1      28.632  -1.224  53.310  1.00  0.00    -0.330 N 
HETATM    3  C2  UNL     1      27.705  -2.110  52.694  1.00  0.00     0.209 A 
HETATM    4  N2  UNL     1      26.589  -1.590  52.341  1.00  0.00    -0.229 NA
HETATM    5  C3  UNL     1      26.568  -0.209  52.680  1.00  0.00     0.260 A 
HETATM    6  N4  UNL     1      26.289   0.738  51.645  1.00  0.00    -0.202 NA
HETATM    7  N5  UNL     1      26.491   2.048  52.021  1.00  0.00    -0.224 NA
HETATM    8  C15 UNL     1      26.964   2.206  53.383  1.00  0.00     0.259 C 
HETATM    9  N7  UNL     1      28.050   1.250  53.633  1.00  0.00    -0.255 NA
HETATM   10  C16 UNL     1      27.906   0.001  53.284  1.00  0.00     0.172 A 
HETATM   11  H10 UNL     1      25.383   0.536  51.171  1.00  0.00     0.146 HD
ENDROOT
BRANCH   5  12
HETATM   12  N3  UNL     1      25.522  -0.078  53.698  1.00  0.00    -0.342 N 
HETATM   13  H5  UNL     1      25.842   0.600  54.459  1.00  0.00     0.164 HD
BRANCH  12  14
HETATM   14  C4  UNL     1      24.215  -0.504  54.049  1.00  0.00     0.032 A 
HETATM   15  C5  UNL     1      23.896  -1.239  55.198  1.00  0.00     0.029 A 
HETATM   16  C6  UNL     1      22.588  -1.582  55.408  1.00  0.00     0.004 A 
HETATM   17  C7  UNL     1      21.579  -1.239  54.549  1.00  0.00     0.024 A 
HETATM   18  C8  UNL     1      21.869  -0.517  53.411  1.00  0.00     0.036 A 
HETATM   19 CL1  UNL     1      20.489  -0.152  52.410  1.00  0.00    -0.084 Cl
HETATM   20  C9  UNL     1      23.186  -0.170  53.196  1.00  0.00     0.053 A 
ENDBRANCH  12  14
ENDBRANCH   5  12
BRANCH   7  21
HETATM   21  C10 UNL     1      25.400   2.926  51.818  1.00  0.00     0.078 C 
HETATM   22  C11 UNL     1      24.523   3.105  53.036  1.00  0.00     0.023 C 
HETATM   23  C12 UNL     1      23.232   3.592  52.366  1.00  0.00     0.037 C 
HETATM   24  C13 UNL     1      23.057   2.616  51.241  1.00  0.00     0.219 C 
HETATM   25  C14 UNL     1      24.463   2.359  50.764  1.00  0.00     0.056 C 
BRANCH  24  26
HETATM   26  N6  UNL     1      22.252   3.195  50.199  1.00  0.00     0.083 N 
HETATM   27  H17 UNL     1      22.701   4.044  49.804  1.00  0.00     0.313 HD
HETATM   28  H18 UNL     1      21.282   3.393  50.565  1.00  0.00     0.313 HD
ENDBRANCH  24  26
ENDBRANCH   7  21
TORSDOF 4
ENDMDL
MODEL 6
REMARK VINA RESULT:      -7.8      3.154      6.003
REMARK  4 active torsions:
REMARK  status: ('A' for Active; 'I' for Inactive)
REMARK    1  A    between atoms: C3_5  and  N3_6 
REMARK    2  A    between atoms: N3_6  and  C4_7 
REMARK    3  A    between atoms: N5_15  and  C10_16 
REMARK    4  A    between atoms: C13_19  and  N6_20 
ROOT
HETATM    1  C1  UNL     1      21.124   0.599  50.455  1.00  0.00     0.158 C 
HETATM    2  N1  UNL     1      22.124   1.308  51.176  1.00  0.00    -0.330 N 
HETATM    3  C2  UNL     1      22.492   1.430  52.544  1.00  0.00     0.209 A 
HETATM    4  N2  UNL     1      23.496   2.189  52.786  1.00  0.00    -0.229 NA
HETATM    5  C3  UNL     1      24.002   2.724  51.569  1.00  0.00     0.260 A 
HETATM    6  N4  UNL     1      24.120   4.145  51.453  1.00  0.00    -0.202 NA
HETATM    7  N5  UNL     1      24.423   4.575  50.179  1.00  0.00    -0.224 NA
HETATM    8  C15 UNL     1      24.542   3.505  49.207  1.00  0.00     0.259 C 
HETATM    9  N7  UNL     1      23.414   2.580  49.363  1.00  0.00    -0.255 NA
HETATM   10  C16 UNL     1      23.084   2.154  50.552  1.00  0.00     0.172 A 
HETATM   11  H10 UNL     1      24.702   4.548  52.219  1.00  0.00     0.146 HD
ENDROOT
BRANCH   5  12
HETATM   12  N3  UNL     1      25.343   2.152  51.425  1.00  0.00    -0.342 N 
HETATM   13  H5  UNL     1      25.749   2.419  50.474  1.00  0.00     0.164 HD
BRANCH  12  14
HETATM   14  C4  UNL     1      26.330   1.381  52.092  1.00  0.00     0.032 A 
HETATM   15  C5  UNL     1      26.399  -0.018  52.071  1.00  0.00     0.029 A 
HETATM   16  C6  UNL     1      27.409  -0.630  52.762  1.00  0.00     0.004 A 
HETATM   17  C7  UNL     1      28.354   0.062  53.472  1.00  0.00     0.024 A 
HETATM   18  C8  UNL     1      28.306   1.440  53.508  1.00  0.00     0.036 A 
HETATM   19 CL1  UNL     1      29.569   2.187  54.448  1.00  0.00    -0.084 Cl
HETATM   20  C9  UNL     1      27.289   2.059  52.812  1.00  0.00     0.053 A 
ENDBRANCH  12  14
ENDBRANCH   5  12
BRANCH   7  21
HETATM   21  C10 UNL     1      25.553   5.419  50.062  1.00  0.00     0.078 C 
HETATM   22  C11 UNL     1      25.357   6.577  49.112  1.00  0.00     0.023 C 
HETATM   23  C12 UNL     1      26.821   6.912  48.794  1.00  0.00     0.037 C 
HETATM   24  C13 UNL     1      27.408   5.565  48.496  1.00  0.00     0.219 C 
HETATM   25  C14 UNL     1      26.722   4.647  49.474  1.00  0.00     0.056 C 
BRANCH  24  26
HETATM   26  N6  UNL     1      28.830   5.583  48.709  1.00  0.00     0.083 N 
HETATM   27  H17 UNL     1      29.340   5.219  47.881  1.00  0.00     0.313 HD
HETATM   28  H18 UNL     1      29.067   5.048  49.588  1.00  0.00     0.313 HD
ENDBRANCH  24  26
ENDBRANCH   7  21
TORSDOF 4
ENDMDL
MODEL 7
REMARK VINA RESULT:      -7.8      3.476      5.741
REMARK  4 active torsions:
REMARK  status: ('A' for Active; 'I' for Inactive)
REMARK    1  A    between atoms: C3_5  and  N3_6 
REMARK    2  A    between atoms: N3_6  and  C4_7 
REMARK    3  A    between atoms: N5_15  and  C10_16 
REMARK    4  A    between atoms: C13_19  and  N6_20 
ROOT
HETATM    1  C1  UNL     1      20.743   3.579  52.289  1.00  0.00     0.158 C 
HETATM    2  N1  UNL     1      21.884   3.271  51.499  1.00  0.00    -0.330 N 
HETATM    3  C2  UNL     1      22.155   3.166  50.106  1.00  0.00     0.209 A 
HETATM    4  N2  UNL     1      23.360   2.863  49.795  1.00  0.00    -0.229 NA
HETATM    5  C3  UNL     1      24.142   2.715  50.972  1.00  0.00     0.260 A 
HETATM    6  N4  UNL     1      24.853   1.487  51.161  1.00  0.00    -0.202 NA
HETATM    7  N5  UNL     1      25.412   1.357  52.414  1.00  0.00    -0.224 NA
HETATM    8  C15 UNL     1      25.153   2.478  53.297  1.00  0.00     0.259 C 
HETATM    9  N7  UNL     1      23.733   2.838  53.220  1.00  0.00    -0.255 NA
HETATM   10  C16 UNL     1      23.158   2.963  52.054  1.00  0.00     0.172 A 
HETATM   11  H10 UNL     1      25.485   1.280  50.358  1.00  0.00     0.146 HD
ENDROOT
BRANCH   5  12
HETATM   12  N3  UNL     1      25.128   3.798  50.920  1.00  0.00    -0.342 N 
HETATM   13  H5  UNL     1      25.384   4.100  51.911  1.00  0.00     0.164 HD
BRANCH  12  14
HETATM   14  C4  UNL     1      25.897   4.595  50.033  1.00  0.00     0.032 A 
HETATM   15  C5  UNL     1      27.039   4.156  49.351  1.00  0.00     0.029 A 
HETATM   16  C6  UNL     1      27.683   5.038  48.526  1.00  0.00     0.004 A 
HETATM   17  C7  UNL     1      27.262   6.327  48.337  1.00  0.00     0.024 A 
HETATM   18  C8  UNL     1      26.140   6.782  48.998  1.00  0.00     0.036 A 
HETATM   19 CL1  UNL     1      25.721   8.440  48.663  1.00  0.00    -0.084 Cl
HETATM   20  C9  UNL     1      25.490   5.895  49.831  1.00  0.00     0.053 A 
ENDBRANCH  12  14
ENDBRANCH   5  12
BRANCH   7  21
HETATM   21  C10 UNL     1      26.798   1.067  52.447  1.00  0.00     0.078 C 
HETATM   22  C11 UNL     1      27.123  -0.314  52.965  1.00  0.00     0.023 C 
HETATM   23  C12 UNL     1      28.581  -0.103  53.391  1.00  0.00     0.037 C 
HETATM   24  C13 UNL     1      28.515   1.179  54.166  1.00  0.00     0.219 C 
HETATM   25  C14 UNL     1      27.504   2.004  53.412  1.00  0.00     0.056 C 
BRANCH  24  26
HETATM   26  N6  UNL     1      29.803   1.820  54.179  1.00  0.00     0.083 N 
HETATM   27  H17 UNL     1      30.407   1.468  53.413  1.00  0.00     0.313 HD
HETATM   28  H18 UNL     1      30.252   1.699  55.127  1.00  0.00     0.313 HD
ENDBRANCH  24  26
ENDBRANCH   7  21
TORSDOF 4
ENDMDL
MODEL 8
REMARK VINA RESULT:      -7.4      7.507      9.293
REMARK  4 active torsions:
REMARK  status: ('A' for Active; 'I' for Inactive)
REMARK    1  A    between atoms: C3_5  and  N3_6 
REMARK    2  A    between atoms: N3_6  and  C4_7 
REMARK    3  A    between atoms: N5_15  and  C10_16 
REMARK    4  A    between atoms: C13_19  and  N6_20 
ROOT
HETATM    1  C1  UNL     1      31.019  11.362  46.835  1.00  0.00     0.158 C 
HETATM    2  N1  UNL     1      30.727  10.252  47.674  1.00  0.00    -0.330 N 
HETATM    3  C2  UNL     1      30.067  10.071  48.921  1.00  0.00     0.209 A 
HETATM    4  N2  UNL     1      30.006   8.864  49.348  1.00  0.00    -0.229 NA
HETATM    5  C3  UNL     1      30.631   7.989  48.419  1.00  0.00     0.260 A 
HETATM    6  N4  UNL     1      31.677   7.134  48.894  1.00  0.00    -0.202 NA
HETATM    7  N5  UNL     1      32.355   6.477  47.890  1.00  0.00    -0.224 NA
HETATM    8  C15 UNL     1      31.890   6.797  46.554  1.00  0.00     0.259 C 
HETATM    9  N7  UNL     1      31.732   8.250  46.430  1.00  0.00    -0.255 NA
HETATM   10  C16 UNL     1      31.105   8.915  47.361  1.00  0.00     0.172 A 
HETATM   11  H10 UNL     1      31.358   6.542  49.691  1.00  0.00     0.146 HD
ENDROOT
BRANCH   5  12
HETATM   12  N3  UNL     1      29.556   7.136  47.907  1.00  0.00    -0.342 N 
HETATM   13  H5  UNL     1      29.857   6.690  46.985  1.00  0.00     0.164 HD
BRANCH  12  14
HETATM   14  C4  UNL     1      28.251   6.656  48.191  1.00  0.00     0.032 A 
HETATM   15  C5  UNL     1      27.079   7.415  48.080  1.00  0.00     0.029 A 
HETATM   16  C6  UNL     1      25.887   6.818  48.387  1.00  0.00     0.004 A 
HETATM   17  C7  UNL     1      25.787   5.515  48.796  1.00  0.00     0.024 A 
HETATM   18  C8  UNL     1      26.927   4.748  48.913  1.00  0.00     0.036 A 
HETATM   19 CL1  UNL     1      26.651   3.111  49.442  1.00  0.00    -0.084 Cl
HETATM   20  C9  UNL     1      28.130   5.347  48.604  1.00  0.00     0.053 A 
ENDBRANCH  12  14
ENDBRANCH   5  12
BRANCH   7  21
HETATM   21  C10 UNL     1      32.435   5.069  48.016  1.00  0.00     0.078 C 
HETATM   22  C11 UNL     1      33.831   4.517  47.839  1.00  0.00     0.023 C 
HETATM   23  C12 UNL     1      33.498   3.064  47.476  1.00  0.00     0.037 C 
HETATM   24  C13 UNL     1      32.431   3.221  46.435  1.00  0.00     0.219 C 
HETATM   25  C14 UNL     1      31.627   4.400  46.917  1.00  0.00     0.056 C 
BRANCH  24  26
HETATM   26  N6  UNL     1      31.623   2.033  46.366  1.00  0.00     0.083 N 
HETATM   27  H17 UNL     1      30.616   2.268  46.277  1.00  0.00     0.313 HD
HETATM   28  H18 UNL     1      31.816   1.421  47.205  1.00  0.00     0.313 HD
ENDBRANCH  24  26
ENDBRANCH   7  21
TORSDOF 4
ENDMDL
MODEL 9
REMARK VINA RESULT:      -7.2      1.481      5.311
REMARK  4 active torsions:
REMARK  status: ('A' for Active; 'I' for Inactive)
REMARK    1  A    between atoms: C3_5  and  N3_6 
REMARK    2  A    between atoms: N3_6  and  C4_7 
REMARK    3  A    between atoms: N5_15  and  C10_16 
REMARK    4  A    between atoms: C13_19  and  N6_20 
ROOT
HETATM    1  C1  UNL     1      28.663   0.034  54.954  1.00  0.00     0.158 C 
HETATM    2  N1  UNL     1      27.660  -0.059  53.950  1.00  0.00    -0.330 N 
HETATM    3  C2  UNL     1      27.231  -1.061  53.036  1.00  0.00     0.209 A 
HETATM    4  N2  UNL     1      26.251  -0.739  52.276  1.00  0.00    -0.229 NA
HETATM    5  C3  UNL     1      25.828   0.587  52.567  1.00  0.00     0.260 A 
HETATM    6  N4  UNL     1      25.778   1.532  51.493  1.00  0.00    -0.202 NA
HETATM    7  N5  UNL     1      25.557   2.828  51.904  1.00  0.00    -0.224 NA
HETATM    8  C15 UNL     1      25.439   2.981  53.341  1.00  0.00     0.259 C 
HETATM    9  N7  UNL     1      26.517   2.233  53.999  1.00  0.00    -0.255 NA
HETATM   10  C16 UNL     1      26.769   1.006  53.635  1.00  0.00     0.172 A 
HETATM   11  H10 UNL     1      25.177   1.194  50.710  1.00  0.00     0.146 HD
ENDROOT
BRANCH   5  12
HETATM   12  N3  UNL     1      24.472   0.451  53.105  1.00  0.00    -0.342 N 
HETATM   13  H5  UNL     1      24.503   0.480  54.172  1.00  0.00     0.164 HD
BRANCH  12  14
HETATM   14  C4  UNL     1      23.109   0.312  52.736  1.00  0.00     0.032 A 
HETATM   15  C5  UNL     1      22.504   0.964  51.654  1.00  0.00     0.029 A 
HETATM   16  C6  UNL     1      21.177   0.735  51.416  1.00  0.00     0.004 A 
HETATM   17  C7  UNL     1      20.414  -0.103  52.185  1.00  0.00     0.024 A 
HETATM   18  C8  UNL     1      20.988  -0.756  53.255  1.00  0.00     0.036 A 
HETATM   19 CL1  UNL     1      19.900  -1.790  54.143  1.00  0.00    -0.084 Cl
HETATM   20  C9  UNL     1      22.326  -0.527  53.498  1.00  0.00     0.053 A 
ENDBRANCH  12  14
ENDBRANCH   5  12
BRANCH   7  21
HETATM   21  C10 UNL     1      24.471   3.496  51.288  1.00  0.00     0.078 C 
HETATM   22  C11 UNL     1      24.871   4.373  50.124  1.00  0.00     0.023 C 
HETATM   23  C12 UNL     1      23.663   5.317  50.074  1.00  0.00     0.037 C 
HETATM   24  C13 UNL     1      23.495   5.713  51.510  1.00  0.00     0.219 C 
HETATM   25  C14 UNL     1      23.822   4.455  52.273  1.00  0.00     0.056 C 
BRANCH  24  26
HETATM   26  N6  UNL     1      22.142   6.134  51.757  1.00  0.00     0.083 N 
HETATM   27  H17 UNL     1      21.828   5.855  52.706  1.00  0.00     0.313 HD
HETATM   28  H18 UNL     1      21.507   5.756  51.002  1.00  0.00     0.313 HD
ENDBRANCH  24  26
ENDBRANCH   7  21
TORSDOF 4
ENDMDL
