MODEL 1
REMARK VINA RESULT:      -9.4      0.000      0.000
REMARK  3 active torsions:
REMARK  status: ('A' for Active; 'I' for Inactive)
REMARK    1  A    between atoms: N1_1  and  C1_2 
REMARK    2  A    between atoms: C6_8  and  C7_9 
REMARK    3  A    between atoms: C7_9  and  C8_10 
ROOT
HETATM    1  C1  UNL     1      26.151   6.341  48.597  1.00  0.00     0.039 C 
HETATM    2  C2  UNL     1      25.740   5.439  49.490  1.00  0.00     0.031 C 
HETATM    3  C3  UNL     1      25.058   4.645  50.476  1.00  0.00     0.077 A 
HETATM    4  N2  UNL     1      23.992   4.788  51.318  1.00  0.00    -0.260 NA
HETATM    5  C4  UNL     1      23.778   3.790  52.243  1.00  0.00     0.118 A 
HETATM    6  C5  UNL     1      24.699   2.767  52.176  1.00  0.00     0.027 A 
HETATM    7  C6  UNL     1      25.779   2.578  51.351  1.00  0.00    -0.041 A 
HETATM    8  C18 UNL     1      25.966   3.621  50.413  1.00  0.00     0.012 A 
HETATM    9  C19 UNL     1      26.624   4.245  49.279  1.00  0.00     0.201 C 
HETATM   10  O1  UNL     1      27.967   4.598  49.311  1.00  0.00    -0.348 OA
HETATM   11  C20 UNL     1      28.455   5.526  48.337  1.00  0.00     0.138 C 
HETATM   12  C21 UNL     1      27.501   6.416  47.989  1.00  0.00     0.053 C 
ENDROOT
BRANCH   7  13
HETATM   13  C7  UNL     1      26.769   1.549  51.241  1.00  0.00     0.078 C 
BRANCH  13  14
HETATM   14  C8  UNL     1      26.990   0.600  52.398  1.00  0.00    -0.041 C 
HETATM   15  C9  UNL     1      27.587   0.579  53.641  1.00  0.00    -0.048 C 
HETATM   16  C10 UNL     1      26.802   0.255  54.900  1.00  0.00     0.004 C 
HETATM   17  C17 UNL     1      29.028   0.596  54.135  1.00  0.00     0.066 C 
HETATM   18  C11 UNL     1      25.491  -0.032  54.668  1.00  0.00    -0.021 C 
HETATM   19  C12 UNL     1      25.450  -1.134  53.596  1.00  0.00     0.066 C 
HETATM   20  C13 UNL     1      26.748  -0.817  52.834  1.00  0.00    -0.048 C 
HETATM   21  C14 UNL     1      27.543  -1.950  52.753  1.00  0.00     0.007 C 
HETATM   22  C15 UNL     1      29.011  -1.750  53.084  1.00  0.00    -0.003 C 
HETATM   23  C16 UNL     1      29.693  -0.697  53.629  1.00  0.00    -0.022 C 
ENDBRANCH  13  14
ENDBRANCH   7  13
BRANCH   1  24
HETATM   24  N1  UNL     1      25.218   7.425  48.384  1.00  0.00    -0.398 N 
HETATM   25  H1  UNL     1      24.196   7.523  48.549  1.00  0.00     0.156 HD
HETATM   26  H2  UNL     1      25.614   8.300  47.987  1.00  0.00     0.156 HD
ENDBRANCH   1  24
TORSDOF 3
ENDMDL
MODEL 2
REMARK VINA RESULT:      -9.3      1.480      2.416
REMARK  3 active torsions:
REMARK  status: ('A' for Active; 'I' for Inactive)
REMARK    1  A    between atoms: N1_1  and  C1_2 
REMARK    2  A    between atoms: C6_8  and  C7_9 
REMARK    3  A    between atoms: C7_9  and  C8_10 
ROOT
HETATM    1  C1  UNL     1      28.655   7.276  47.564  1.00  0.00     0.039 C 
HETATM    2  C2  UNL     1      27.675   6.592  48.156  1.00  0.00     0.031 C 
HETATM    3  C3  UNL     1      26.452   6.095  48.725  1.00  0.00     0.077 A 
HETATM    4  N2  UNL     1      25.223   6.591  49.055  1.00  0.00    -0.260 NA
HETATM    5  C4  UNL     1      24.372   5.763  49.752  1.00  0.00     0.118 A 
HETATM    6  C5  UNL     1      24.906   4.521  50.022  1.00  0.00     0.027 A 
HETATM    7  C6  UNL     1      26.127   3.978  49.712  1.00  0.00    -0.041 A 
HETATM    8  C18 UNL     1      26.973   4.856  48.993  1.00  0.00     0.012 A 
HETATM    9  C19 UNL     1      28.188   5.186  48.269  1.00  0.00     0.201 C 
HETATM   10  O1  UNL     1      29.437   5.152  48.876  1.00  0.00    -0.348 OA
HETATM   11  C20 UNL     1      30.525   5.833  48.243  1.00  0.00     0.138 C 
HETATM   12  C21 UNL     1      30.096   6.926  47.577  1.00  0.00     0.053 C 
ENDROOT
BRANCH   7  13
HETATM   13  C7  UNL     1      26.737   2.708  49.970  1.00  0.00     0.078 C 
BRANCH  13  14
HETATM   14  C8  UNL     1      26.545   2.048  51.318  1.00  0.00    -0.041 C 
HETATM   15  C9  UNL     1      26.850   2.262  52.645  1.00  0.00    -0.048 C 
HETATM   16  C10 UNL     1      25.772   2.343  53.711  1.00  0.00     0.004 C 
HETATM   17  C17 UNL     1      28.135   2.234  53.464  1.00  0.00     0.066 C 
HETATM   18  C11 UNL     1      24.512   2.159  53.229  1.00  0.00    -0.021 C 
HETATM   19  C12 UNL     1      24.517   0.842  52.434  1.00  0.00     0.066 C 
HETATM   20  C13 UNL     1      25.982   0.816  51.966  1.00  0.00    -0.048 C 
HETATM   21  C14 UNL     1      26.576  -0.385  52.322  1.00  0.00     0.007 C 
HETATM   22  C15 UNL     1      27.951  -0.279  52.955  1.00  0.00    -0.003 C 
HETATM   23  C16 UNL     1      28.668   0.790  53.418  1.00  0.00    -0.022 C 
ENDBRANCH  13  14
ENDBRANCH   7  13
BRANCH   1  24
HETATM   24  N1  UNL     1      28.244   8.559  47.039  1.00  0.00    -0.398 N 
HETATM   25  H1  UNL     1      28.539   9.112  46.209  1.00  0.00     0.156 HD
HETATM   26  H2  UNL     1      27.506   9.058  47.573  1.00  0.00     0.156 HD
ENDBRANCH   1  24
TORSDOF 3
ENDMDL
MODEL 3
REMARK VINA RESULT:      -9.2      1.899      3.461
REMARK  3 active torsions:
REMARK  status: ('A' for Active; 'I' for Inactive)
REMARK    1  A    between atoms: N1_1  and  C1_2 
REMARK    2  A    between atoms: C6_8  and  C7_9 
REMARK    3  A    between atoms: C7_9  and  C8_10 
ROOT
HETATM    1  C1  UNL     1      22.677   5.936  51.134  1.00  0.00     0.039 C 
HETATM    2  C2  UNL     1      23.860   5.613  50.607  1.00  0.00     0.031 C 
HETATM    3  C3  UNL     1      25.162   5.563  50.000  1.00  0.00     0.077 A 
HETATM    4  N2  UNL     1      25.983   6.410  49.310  1.00  0.00    -0.260 NA
HETATM    5  C4  UNL     1      27.123   5.873  48.754  1.00  0.00     0.118 A 
HETATM    6  C5  UNL     1      27.268   4.522  48.984  1.00  0.00     0.027 A 
HETATM    7  C6  UNL     1      26.477   3.633  49.668  1.00  0.00    -0.041 A 
HETATM    8  C18 UNL     1      25.317   4.220  50.228  1.00  0.00     0.012 A 
HETATM    9  C19 UNL     1      24.106   4.194  51.029  1.00  0.00     0.201 C 
HETATM   10  O1  UNL     1      23.029   3.378  50.708  1.00  0.00    -0.348 OA
HETATM   11  C20 UNL     1      21.755   3.663  51.292  1.00  0.00     0.138 C 
HETATM   12  C21 UNL     1      21.597   4.988  51.498  1.00  0.00     0.053 C 
ENDROOT
BRANCH   7  13
HETATM   13  C7  UNL     1      26.570   2.229  49.932  1.00  0.00     0.078 C 
BRANCH  13  14
HETATM   14  C8  UNL     1      26.540   1.735  51.361  1.00  0.00    -0.041 C 
HETATM   15  C9  UNL     1      26.912   2.147  52.623  1.00  0.00    -0.048 C 
HETATM   16  C10 UNL     1      25.906   2.264  53.756  1.00  0.00     0.004 C 
HETATM   17  C17 UNL     1      28.246   2.347  53.332  1.00  0.00     0.066 C 
HETATM   18  C11 UNL     1      24.642   1.900  53.404  1.00  0.00    -0.021 C 
HETATM   19  C12 UNL     1      24.730   0.497  52.778  1.00  0.00     0.066 C 
HETATM   20  C13 UNL     1      26.155   0.549  52.200  1.00  0.00    -0.048 C 
HETATM   21  C14 UNL     1      26.893  -0.534  52.650  1.00  0.00     0.007 C 
HETATM   22  C15 UNL     1      28.290  -0.217  53.151  1.00  0.00    -0.003 C 
HETATM   23  C16 UNL     1      28.921   0.966  53.420  1.00  0.00    -0.022 C 
ENDBRANCH  13  14
ENDBRANCH   7  13
BRANCH   1  24
HETATM   24  N1  UNL     1      22.408   7.356  51.153  1.00  0.00    -0.398 N 
HETATM   25  H1  UNL     1      21.780   7.965  50.591  1.00  0.00     0.156 HD
HETATM   26  H2  UNL     1      22.930   7.912  51.858  1.00  0.00     0.156 HD
ENDBRANCH   1  24
TORSDOF 3
ENDMDL
MODEL 4
REMARK VINA RESULT:      -9.0      3.322      4.932
REMARK  3 active torsions:
REMARK  status: ('A' for Active; 'I' for Inactive)
REMARK    1  A    between atoms: N1_1  and  C1_2 
REMARK    2  A    between atoms: C6_8  and  C7_9 
REMARK    3  A    between atoms: C7_9  and  C8_10 
ROOT
HETATM    1  C1  UNL     1      21.913   2.602  51.850  1.00  0.00     0.039 C 
HETATM    2  C2  UNL     1      22.116   1.507  52.585  1.00  0.00     0.031 C 
HETATM    3  C3  UNL     1      22.059   0.250  53.280  1.00  0.00     0.077 A 
HETATM    4  N2  UNL     1      21.113  -0.684  53.591  1.00  0.00    -0.260 NA
HETATM    5  C4  UNL     1      21.482  -1.700  54.445  1.00  0.00     0.118 A 
HETATM    6  C5  UNL     1      22.790  -1.616  54.871  1.00  0.00     0.027 A 
HETATM    7  C6  UNL     1      23.774  -0.703  54.587  1.00  0.00    -0.041 A 
HETATM    8  C18 UNL     1      23.360   0.323  53.705  1.00  0.00     0.012 A 
HETATM    9  C19 UNL     1      23.586   1.498  52.882  1.00  0.00     0.201 C 
HETATM   10  O1  UNL     1      24.000   2.708  53.426  1.00  0.00    -0.348 OA
HETATM   11  C20 UNL     1      23.845   3.897  52.647  1.00  0.00     0.138 C 
HETATM   12  C21 UNL     1      22.760   3.819  51.845  1.00  0.00     0.053 C 
ENDROOT
BRANCH   7  13
HETATM   13  C7  UNL     1      25.138  -0.560  55.003  1.00  0.00     0.078 C 
BRANCH  13  14
HETATM   14  C8  UNL     1      26.226  -0.439  53.959  1.00  0.00    -0.041 C 
HETATM   15  C9  UNL     1      26.570  -0.968  52.734  1.00  0.00    -0.048 C 
HETATM   16  C10 UNL     1      26.759  -0.092  51.508  1.00  0.00     0.004 C 
HETATM   17  C17 UNL     1      27.069  -2.328  52.259  1.00  0.00     0.066 C 
HETATM   18  C11 UNL     1      26.585   1.236  51.753  1.00  0.00    -0.021 C 
HETATM   19  C12 UNL     1      27.494   1.602  52.939  1.00  0.00     0.066 C 
HETATM   20  C13 UNL     1      27.529   0.254  53.678  1.00  0.00    -0.048 C 
HETATM   21  C14 UNL     1      28.841  -0.139  53.892  1.00  0.00     0.007 C 
HETATM   22  C15 UNL     1      29.159  -1.585  53.560  1.00  0.00    -0.003 C 
HETATM   23  C16 UNL     1      28.445  -2.556  52.912  1.00  0.00    -0.022 C 
ENDBRANCH  13  14
ENDBRANCH   7  13
BRANCH   1  24
HETATM   24  N1  UNL     1      20.644   2.622  51.159  1.00  0.00    -0.398 N 
HETATM   25  H1  UNL     1      20.381   2.534  50.157  1.00  0.00     0.156 HD
HETATM   26  H2  UNL     1      19.800   2.748  51.753  1.00  0.00     0.156 HD
ENDBRANCH   1  24
TORSDOF 3
ENDMDL
MODEL 5
REMARK VINA RESULT:      -8.9      3.500      7.166
REMARK  3 active torsions:
REMARK  status: ('A' for Active; 'I' for Inactive)
REMARK    1  A    between atoms: N1_1  and  C1_2 
REMARK    2  A    between atoms: C6_8  and  C7_9 
REMARK    3  A    between atoms: C7_9  and  C8_10 
ROOT
HETATM    1  C1  UNL     1      24.763  -0.973  55.433  1.00  0.00     0.039 C 
HETATM    2  C2  UNL     1      25.597  -0.183  54.756  1.00  0.00     0.031 C 
HETATM    3  C3  UNL     1      26.671   0.639  54.268  1.00  0.00     0.077 A 
HETATM    4  N2  UNL     1      27.791   1.234  54.776  1.00  0.00    -0.260 NA
HETATM    5  C4  UNL     1      28.478   2.098  53.951  1.00  0.00     0.118 A 
HETATM    6  C5  UNL     1      27.915   2.235  52.701  1.00  0.00     0.027 A 
HETATM    7  C6  UNL     1      26.799   1.661  52.147  1.00  0.00    -0.041 A 
HETATM    8  C18 UNL     1      26.120   0.778  53.021  1.00  0.00     0.012 A 
HETATM    9  C19 UNL     1      25.091  -0.193  53.343  1.00  0.00     0.201 C 
HETATM   10  O1  UNL     1      23.739   0.122  53.288  1.00  0.00    -0.348 OA
HETATM   11  C20 UNL     1      22.808  -0.730  53.962  1.00  0.00     0.138 C 
HETATM   12  C21 UNL     1      23.359  -1.279  55.067  1.00  0.00     0.053 C 
ENDROOT
BRANCH   7  13
HETATM   13  C7  UNL     1      26.164   1.770  50.867  1.00  0.00     0.078 C 
BRANCH  13  14
HETATM   14  C8  UNL     1      24.860   2.528  50.744  1.00  0.00    -0.041 C 
HETATM   15  C9  UNL     1      23.512   2.342  50.965  1.00  0.00    -0.048 C 
HETATM   16  C10 UNL     1      22.723   3.237  51.905  1.00  0.00     0.004 C 
HETATM   17  C17 UNL     1      22.424   1.514  50.292  1.00  0.00     0.066 C 
HETATM   18  C11 UNL     1      23.467   4.231  52.465  1.00  0.00    -0.021 C 
HETATM   19  C12 UNL     1      24.166   4.978  51.316  1.00  0.00     0.066 C 
HETATM   20  C13 UNL     1      24.288   3.840  50.289  1.00  0.00    -0.048 C 
HETATM   21  C14 UNL     1      23.741   4.231  49.077  1.00  0.00     0.007 C 
HETATM   22  C15 UNL     1      22.821   3.223  48.413  1.00  0.00    -0.003 C 
HETATM   23  C16 UNL     1      22.267   2.054  48.859  1.00  0.00    -0.022 C 
ENDBRANCH  13  14
ENDBRANCH   7  13
BRANCH   1  24
HETATM   24  N1  UNL     1      25.262  -1.386  56.725  1.00  0.00    -0.398 N 
HETATM   25  H1  UNL     1      26.183  -1.281  57.195  1.00  0.00     0.156 HD
HETATM   26  H2  UNL     1      24.591  -1.895  57.335  1.00  0.00     0.156 HD
ENDBRANCH   1  24
TORSDOF 3
ENDMDL
MODEL 6
REMARK VINA RESULT:      -8.8      3.303      7.061
REMARK  3 active torsions:
REMARK  status: ('A' for Active; 'I' for Inactive)
REMARK    1  A    between atoms: N1_1  and  C1_2 
REMARK    2  A    between atoms: C6_8  and  C7_9 
REMARK    3  A    between atoms: C7_9  and  C8_10 
ROOT
HETATM    1  C1  UNL     1      24.669  -0.942  55.111  1.00  0.00     0.039 C 
HETATM    2  C2  UNL     1      25.534  -0.129  54.504  1.00  0.00     0.031 C 
HETATM    3  C3  UNL     1      26.630   0.710  54.098  1.00  0.00     0.077 A 
HETATM    4  N2  UNL     1      27.722   1.287  54.682  1.00  0.00    -0.260 NA
HETATM    5  C4  UNL     1      28.447   2.179  53.923  1.00  0.00     0.118 A 
HETATM    6  C5  UNL     1      27.945   2.361  52.652  1.00  0.00     0.027 A 
HETATM    7  C6  UNL     1      26.859   1.806  52.023  1.00  0.00    -0.041 A 
HETATM    8  C18 UNL     1      26.140   0.893  52.831  1.00  0.00     0.012 A 
HETATM    9  C19 UNL     1      25.098  -0.090  53.068  1.00  0.00     0.201 C 
HETATM   10  O1  UNL     1      23.750   0.227  52.959  1.00  0.00    -0.348 OA
HETATM   11  C20 UNL     1      22.789  -0.649  53.555  1.00  0.00     0.138 C 
HETATM   12  C21 UNL     1      23.286  -1.236  54.665  1.00  0.00     0.053 C 
ENDROOT
BRANCH   7  13
HETATM   13  C7  UNL     1      26.288   1.960  50.719  1.00  0.00     0.078 C 
BRANCH  13  14
HETATM   14  C8  UNL     1      25.014   2.760  50.553  1.00  0.00    -0.041 C 
HETATM   15  C9  UNL     1      24.560   3.889  49.905  1.00  0.00    -0.048 C 
HETATM   16  C10 UNL     1      23.406   3.837  48.919  1.00  0.00     0.004 C 
HETATM   17  C17 UNL     1      24.792   5.386  50.076  1.00  0.00     0.066 C 
HETATM   18  C11 UNL     1      22.869   2.594  48.773  1.00  0.00    -0.021 C 
HETATM   19  C12 UNL     1      22.522   2.081  50.181  1.00  0.00     0.066 C 
HETATM   20  C13 UNL     1      23.584   2.824  51.008  1.00  0.00    -0.048 C 
HETATM   21  C14 UNL     1      22.981   3.526  52.040  1.00  0.00     0.007 C 
HETATM   22  C15 UNL     1      23.450   4.957  52.227  1.00  0.00    -0.003 C 
HETATM   23  C16 UNL     1      24.235   5.773  51.459  1.00  0.00    -0.022 C 
ENDBRANCH  13  14
ENDBRANCH   7  13
BRANCH   1  24
HETATM   24  N1  UNL     1      25.105  -1.401  56.411  1.00  0.00    -0.398 N 
HETATM   25  H1  UNL     1      25.143  -0.948  57.346  1.00  0.00     0.156 HD
HETATM   26  H2  UNL     1      25.458  -2.377  56.459  1.00  0.00     0.156 HD
ENDBRANCH   1  24
TORSDOF 3
ENDMDL
MODEL 7
REMARK VINA RESULT:      -8.7      3.269      4.926
REMARK  3 active torsions:
REMARK  status: ('A' for Active; 'I' for Inactive)
REMARK    1  A    between atoms: N1_1  and  C1_2 
REMARK    2  A    between atoms: C6_8  and  C7_9 
REMARK    3  A    between atoms: C7_9  and  C8_10 
ROOT
HETATM    1  C1  UNL     1      21.984   2.304  51.577  1.00  0.00     0.039 C 
HETATM    2  C2  UNL     1      22.159   1.268  52.399  1.00  0.00     0.031 C 
HETATM    3  C3  UNL     1      22.078   0.066  53.183  1.00  0.00     0.077 A 
HETATM    4  N2  UNL     1      21.123  -0.850  53.523  1.00  0.00    -0.260 NA
HETATM    5  C4  UNL     1      21.460  -1.796  54.465  1.00  0.00     0.118 A 
HETATM    6  C5  UNL     1      22.749  -1.673  54.937  1.00  0.00     0.027 A 
HETATM    7  C6  UNL     1      23.741  -0.777  54.627  1.00  0.00    -0.041 A 
HETATM    8  C18 UNL     1      23.360   0.178  53.655  1.00  0.00     0.012 A 
HETATM    9  C19 UNL     1      23.616   1.290  52.757  1.00  0.00     0.201 C 
HETATM   10  O1  UNL     1      24.002   2.539  53.225  1.00  0.00    -0.348 OA
HETATM   11  C20 UNL     1      23.876   3.667  52.354  1.00  0.00     0.138 C 
HETATM   12  C21 UNL     1      22.826   3.523  51.517  1.00  0.00     0.053 C 
ENDROOT
BRANCH   7  13
HETATM   13  C7  UNL     1      25.085  -0.594  55.087  1.00  0.00     0.078 C 
BRANCH  13  14
HETATM   14  C8  UNL     1      26.209  -0.485  54.079  1.00  0.00    -0.041 C 
HETATM   15  C9  UNL     1      27.552  -0.177  54.033  1.00  0.00    -0.048 C 
HETATM   16  C10 UNL     1      28.580  -1.156  53.493  1.00  0.00     0.004 C 
HETATM   17  C17 UNL     1      28.361   1.103  54.208  1.00  0.00     0.066 C 
HETATM   18  C11 UNL     1      28.040  -2.324  53.047  1.00  0.00    -0.021 C 
HETATM   19  C12 UNL     1      26.928  -1.959  52.049  1.00  0.00     0.066 C 
HETATM   20  C13 UNL     1      26.500  -0.592  52.610  1.00  0.00    -0.048 C 
HETATM   21  C14 UNL     1      26.541   0.368  51.611  1.00  0.00     0.007 C 
HETATM   22  C15 UNL     1      27.208   1.679  51.983  1.00  0.00    -0.003 C 
HETATM   23  C16 UNL     1      27.950   2.055  53.069  1.00  0.00    -0.022 C 
ENDBRANCH  13  14
ENDBRANCH   7  13
BRANCH   1  24
HETATM   24  N1  UNL     1      20.744   2.265  50.835  1.00  0.00    -0.398 N 
HETATM   25  H1  UNL     1      19.790   1.924  51.069  1.00  0.00     0.156 HD
HETATM   26  H2  UNL     1      20.774   2.646  49.869  1.00  0.00     0.156 HD
ENDBRANCH   1  24
TORSDOF 3
ENDMDL
MODEL 8
REMARK VINA RESULT:      -8.4      3.554      6.932
REMARK  3 active torsions:
REMARK  status: ('A' for Active; 'I' for Inactive)
REMARK    1  A    between atoms: N1_1  and  C1_2 
REMARK    2  A    between atoms: C6_8  and  C7_9 
REMARK    3  A    between atoms: C7_9  and  C8_10 
ROOT
HETATM    1  C1  UNL     1      26.334   0.121  54.217  1.00  0.00     0.039 C 
HETATM    2  C2  UNL     1      25.034  -0.132  54.055  1.00  0.00     0.031 C 
HETATM    3  C3  UNL     1      23.650  -0.507  54.162  1.00  0.00     0.077 A 
HETATM    4  N2  UNL     1      22.870  -1.238  55.012  1.00  0.00    -0.260 NA
HETATM    5  C4  UNL     1      21.568  -1.477  54.630  1.00  0.00     0.118 A 
HETATM    6  C5  UNL     1      21.240  -0.927  53.409  1.00  0.00     0.027 A 
HETATM    7  C6  UNL     1      21.984  -0.187  52.524  1.00  0.00    -0.041 A 
HETATM    8  C18 UNL     1      23.313   0.042  52.952  1.00  0.00     0.012 A 
HETATM    9  C19 UNL     1      24.633   0.634  52.828  1.00  0.00     0.201 C 
HETATM   10  O1  UNL     1      25.471   0.346  51.757  1.00  0.00    -0.348 OA
HETATM   11  C20 UNL     1      26.864   0.650  51.876  1.00  0.00     0.138 C 
HETATM   12  C21 UNL     1      27.285   0.522  53.153  1.00  0.00     0.053 C 
ENDROOT
BRANCH   7  13
HETATM   13  C7  UNL     1      21.703   0.400  51.248  1.00  0.00     0.078 C 
BRANCH  13  14
HETATM   14  C8  UNL     1      21.951   1.878  51.037  1.00  0.00    -0.041 C 
HETATM   15  C9  UNL     1      22.295   2.751  50.027  1.00  0.00    -0.048 C 
HETATM   16  C10 UNL     1      21.407   3.922  49.644  1.00  0.00     0.004 C 
HETATM   17  C17 UNL     1      23.567   3.015  49.231  1.00  0.00     0.066 C 
HETATM   18  C11 UNL     1      20.282   4.026  50.404  1.00  0.00    -0.021 C 
HETATM   19  C12 UNL     1      20.727   4.025  51.877  1.00  0.00     0.066 C 
HETATM   20  C13 UNL     1      22.013   3.188  51.769  1.00  0.00    -0.048 C 
HETATM   21  C14 UNL     1      23.077   3.874  52.332  1.00  0.00     0.007 C 
HETATM   22  C15 UNL     1      24.356   3.893  51.515  1.00  0.00    -0.003 C 
HETATM   23  C16 UNL     1      24.628   3.515  50.229  1.00  0.00    -0.022 C 
ENDBRANCH  13  14
ENDBRANCH   7  13
BRANCH   1  24
HETATM   24  N1  UNL     1      26.842  -0.225  55.525  1.00  0.00    -0.398 N 
HETATM   25  H1  UNL     1      26.388  -0.341  56.453  1.00  0.00     0.156 HD
HETATM   26  H2  UNL     1      27.864  -0.401  55.589  1.00  0.00     0.156 HD
ENDBRANCH   1  24
TORSDOF 3
ENDMDL
MODEL 9
REMARK VINA RESULT:      -8.3      2.427      7.272
REMARK  3 active torsions:
REMARK  status: ('A' for Active; 'I' for Inactive)
REMARK    1  A    between atoms: N1_1  and  C1_2 
REMARK    2  A    between atoms: C6_8  and  C7_9 
REMARK    3  A    between atoms: C7_9  and  C8_10 
ROOT
HETATM    1  C1  UNL     1      26.576   0.368  54.214  1.00  0.00     0.039 C 
HETATM    2  C2  UNL     1      25.873   0.952  53.241  1.00  0.00     0.031 C 
HETATM    3  C3  UNL     1      24.888   1.420  52.304  1.00  0.00     0.077 A 
HETATM    4  N2  UNL     1      23.623   1.076  51.921  1.00  0.00    -0.260 NA
HETATM    5  C4  UNL     1      23.093   1.727  50.829  1.00  0.00     0.118 A 
HETATM    6  C5  UNL     1      23.945   2.654  50.270  1.00  0.00     0.027 A 
HETATM    7  C6  UNL     1      25.218   3.035  50.618  1.00  0.00    -0.041 A 
HETATM    8  C18 UNL     1      25.728   2.348  51.745  1.00  0.00     0.012 A 
HETATM    9  C19 UNL     1      26.727   2.091  52.766  1.00  0.00     0.201 C 
HETATM   10  O1  UNL     1      28.010   1.662  52.448  1.00  0.00    -0.348 OA
HETATM   11  C20 UNL     1      28.812   1.076  53.478  1.00  0.00     0.138 C 
HETATM   12  C21 UNL     1      28.049   0.412  54.373  1.00  0.00     0.053 C 
ENDROOT
BRANCH   7  13
HETATM   13  C7  UNL     1      26.149   3.978  50.075  1.00  0.00     0.078 C 
BRANCH  13  14
HETATM   14  C8  UNL     1      25.683   5.379  49.743  1.00  0.00    -0.041 C 
HETATM   15  C9  UNL     1      25.316   6.543  50.382  1.00  0.00    -0.048 C 
HETATM   16  C10 UNL     1      26.033   7.857  50.128  1.00  0.00     0.004 C 
HETATM   17  C17 UNL     1      24.117   6.968  51.222  1.00  0.00     0.066 C 
HETATM   18  C11 UNL     1      27.030   7.765  49.204  1.00  0.00    -0.021 C 
HETATM   19  C12 UNL     1      26.426   7.120  47.945  1.00  0.00     0.066 C 
HETATM   20  C13 UNL     1      25.319   6.265  48.586  1.00  0.00    -0.048 C 
HETATM   21  C14 UNL     1      24.097   6.545  47.994  1.00  0.00     0.007 C 
HETATM   22  C15 UNL     1      22.936   6.755  48.948  1.00  0.00    -0.003 C 
HETATM   23  C16 UNL     1      22.880   6.903  50.307  1.00  0.00    -0.022 C 
ENDBRANCH  13  14
ENDBRANCH   7  13
BRANCH   1  24
HETATM   24  N1  UNL     1      25.801  -0.524  55.046  1.00  0.00    -0.398 N 
HETATM   25  H1  UNL     1      24.780  -0.625  55.217  1.00  0.00     0.156 HD
HETATM   26  H2  UNL     1      26.339  -1.219  55.599  1.00  0.00     0.156 HD
ENDBRANCH   1  24
TORSDOF 3
ENDMDL
