MODEL 1
REMARK VINA RESULT:      -8.7      0.000      0.000
REMARK  6 active torsions:
REMARK  status: ('A' for Active; 'I' for Inactive)
REMARK    1  A    between atoms: C2_3  and  C3_4 
REMARK    2  A    between atoms: C2_3  and  C14_19 
REMARK    3  A    between atoms: C6_8  and  N3_9 
REMARK    4  A    between atoms: N3_9  and  C7_10 
REMARK    5  A    between atoms: C7_10  and  C8_11 
REMARK    6  A    between atoms: C8_11  and  C9_12 
ROOT
HETATM    1  N1  UNL     1      21.949  -1.350  53.833  1.00  0.00    -0.196 NA
HETATM    2  C1  UNL     1      22.421  -0.343  53.476  1.00  0.00     0.077 C 
HETATM    3  C2  UNL     1      23.020   0.908  53.027  1.00  0.00     0.204 C 
ENDROOT
BRANCH   3   4
HETATM    4  C3  UNL     1      22.658   1.228  51.599  1.00  0.00     0.079 A 
HETATM    5  C4  UNL     1      21.522   0.550  51.146  1.00  0.00     0.049 A 
HETATM    6  C5  UNL     1      21.170   0.826  49.844  1.00  0.00     0.138 A 
HETATM    7  N2  UNL     1      21.868   1.670  49.101  1.00  0.00    -0.075 NA
HETATM    8  C6  UNL     1      22.953   2.319  49.532  1.00  0.00     0.722 A 
HETATM    9  N5  UNL     1      23.336   2.077  50.807  1.00  0.00    -0.066 NA
BRANCH   8  10
HETATM   10  N3  UNL     1      23.867   3.269  48.977  1.00  0.00    -0.222 N 
HETATM   11  H4  UNL     1      23.815   3.450  47.969  1.00  0.00     0.177 HD
BRANCH  10  12
HETATM   12  C7  UNL     1      24.779   3.871  49.917  1.00  0.00     0.142 C 
BRANCH  12  13
HETATM   13  C8  UNL     1      26.240   3.592  49.551  1.00  0.00     0.060 C 
BRANCH  13  14
HETATM   14  C9  UNL     1      26.898   4.827  49.066  1.00  0.00    -0.039 A 
HETATM   15  C10 UNL     1      28.126   4.974  48.471  1.00  0.00     0.010 A 
HETATM   16  C11 UNL     1      28.655   6.168  48.048  1.00  0.00     0.020 A 
HETATM   17  C12 UNL     1      27.894   7.297  48.238  1.00  0.00     0.116 A 
HETATM   18  N4  UNL     1      26.691   7.196  48.814  1.00  0.00    -0.273 NA
HETATM   19  C13 UNL     1      26.172   6.017  49.231  1.00  0.00     0.123 A 
ENDBRANCH  13  14
ENDBRANCH  12  13
ENDBRANCH  10  12
ENDBRANCH   8  10
ENDBRANCH   3   4
BRANCH   3  20
HETATM   20  C14 UNL     1      24.516   0.682  53.131  1.00  0.00     0.100 A 
HETATM   21  N6  UNL     1      25.217  -0.452  52.978  1.00  0.00    -0.243 NA
HETATM   22  C15 UNL     1      26.528  -0.305  53.144  1.00  0.00     0.074 A 
HETATM   23  C16 UNL     1      27.366  -1.418  53.010  1.00  0.00     0.033 A 
HETATM   24  C20 UNL     1      27.221   0.932  53.463  1.00  0.00     0.035 A 
HETATM   25  C17 UNL     1      28.727  -1.266  53.184  1.00  0.00     0.002 A 
HETATM   26  C18 UNL     1      29.348  -0.083  53.484  1.00  0.00     0.002 A 
HETATM   27  C19 UNL     1      28.523   1.010  53.615  1.00  0.00     0.021 A 
HETATM   28  S1  UNL     1      25.735   2.016  53.525  1.00  0.00    -0.071 SA
ENDBRANCH   3  20
TORSDOF 6
ENDMDL
MODEL 2
REMARK VINA RESULT:      -8.5      1.350      1.942
REMARK  6 active torsions:
REMARK  status: ('A' for Active; 'I' for Inactive)
REMARK    1  A    between atoms: C2_3  and  C3_4 
REMARK    2  A    between atoms: C2_3  and  C14_19 
REMARK    3  A    between atoms: C6_8  and  N3_9 
REMARK    4  A    between atoms: N3_9  and  C7_10 
REMARK    5  A    between atoms: C7_10  and  C8_11 
REMARK    6  A    between atoms: C8_11  and  C9_12 
ROOT
HETATM    1  N1  UNL     1      22.159  -0.347  52.937  1.00  0.00    -0.196 NA
HETATM    2  C1  UNL     1      22.976   0.487  52.944  1.00  0.00     0.077 C 
HETATM    3  C2  UNL     1      24.005   1.521  52.948  1.00  0.00     0.204 C 
ENDROOT
BRANCH   3   4
HETATM    4  C3  UNL     1      24.004   2.325  51.673  1.00  0.00     0.079 A 
HETATM    5  C4  UNL     1      23.023   1.923  50.760  1.00  0.00     0.049 A 
HETATM    6  C5  UNL     1      23.002   2.644  49.588  1.00  0.00     0.138 A 
HETATM    7  N2  UNL     1      23.852   3.633  49.365  1.00  0.00    -0.075 NA
HETATM    8  C6  UNL     1      24.788   4.018  50.236  1.00  0.00     0.722 A 
HETATM    9  N5  UNL     1      24.847   3.337  51.404  1.00  0.00    -0.066 NA
BRANCH   8  10
HETATM   10  N3  UNL     1      25.801   5.029  50.271  1.00  0.00    -0.222 N 
HETATM   11  H4  UNL     1      26.089   5.384  51.189  1.00  0.00     0.177 HD
BRANCH  10  12
HETATM   12  C7  UNL     1      26.307   5.442  48.987  1.00  0.00     0.142 C 
BRANCH  12  13
HETATM   13  C8  UNL     1      27.642   4.767  48.657  1.00  0.00     0.060 C 
BRANCH  13  14
HETATM   14  C9  UNL     1      28.656   5.778  48.284  1.00  0.00    -0.039 A 
HETATM   15  C10 UNL     1      29.982   5.599  47.976  1.00  0.00     0.010 A 
HETATM   16  C11 UNL     1      30.852   6.605  47.635  1.00  0.00     0.020 A 
HETATM   17  C12 UNL     1      30.352   7.885  47.601  1.00  0.00     0.116 A 
HETATM   18  N4  UNL     1      29.065   8.102  47.895  1.00  0.00    -0.273 NA
HETATM   19  C13 UNL     1      28.210   7.108  48.231  1.00  0.00     0.123 A 
ENDBRANCH  13  14
ENDBRANCH  12  13
ENDBRANCH  10  12
ENDBRANCH   8  10
ENDBRANCH   3   4
BRANCH   3  20
HETATM   20  C14 UNL     1      25.315   0.766  53.069  1.00  0.00     0.100 A 
HETATM   21  N6  UNL     1      25.602  -0.498  52.721  1.00  0.00    -0.243 NA
HETATM   22  C15 UNL     1      26.857  -0.856  52.969  1.00  0.00     0.074 A 
HETATM   23  C16 UNL     1      27.279  -2.152  52.651  1.00  0.00     0.033 A 
HETATM   24  C20 UNL     1      27.890  -0.020  53.561  1.00  0.00     0.035 A 
HETATM   25  C17 UNL     1      28.582  -2.524  52.909  1.00  0.00     0.002 A 
HETATM   26  C18 UNL     1      29.530  -1.710  53.468  1.00  0.00     0.002 A 
HETATM   27  C19 UNL     1      29.115  -0.436  53.781  1.00  0.00     0.021 A 
HETATM   28  S1  UNL     1      26.862   1.491  53.775  1.00  0.00    -0.071 SA
ENDBRANCH   3  20
TORSDOF 6
ENDMDL
MODEL 3
REMARK VINA RESULT:      -8.4      3.708      8.301
REMARK  6 active torsions:
REMARK  status: ('A' for Active; 'I' for Inactive)
REMARK    1  A    between atoms: C2_3  and  C3_4 
REMARK    2  A    between atoms: C2_3  and  C14_19 
REMARK    3  A    between atoms: C6_8  and  N3_9 
REMARK    4  A    between atoms: N3_9  and  C7_10 
REMARK    5  A    between atoms: C7_10  and  C8_11 
REMARK    6  A    between atoms: C8_11  and  C9_12 
ROOT
HETATM    1  N1  UNL     1      23.862   3.397  52.749  1.00  0.00    -0.196 NA
HETATM    2  C1  UNL     1      23.907   2.239  52.606  1.00  0.00     0.077 C 
HETATM    3  C2  UNL     1      23.973   0.793  52.435  1.00  0.00     0.204 C 
ENDROOT
BRANCH   3   4
HETATM    4  C3  UNL     1      23.048   0.069  53.381  1.00  0.00     0.079 A 
HETATM    5  C4  UNL     1      23.717  -0.729  54.314  1.00  0.00     0.049 A 
HETATM    6  C5  UNL     1      22.893  -1.400  55.190  1.00  0.00     0.138 A 
HETATM    7  N2  UNL     1      21.576  -1.282  55.132  1.00  0.00    -0.075 NA
HETATM    8  C6  UNL     1      20.936  -0.520  54.242  1.00  0.00     0.722 A 
HETATM    9  N5  UNL     1      21.706   0.158  53.360  1.00  0.00    -0.066 NA
BRANCH   8  10
HETATM   10  N3  UNL     1      19.570  -0.200  53.961  1.00  0.00    -0.222 N 
HETATM   11  H4  UNL     1      19.108   0.490  54.561  1.00  0.00     0.177 HD
BRANCH  10  12
HETATM   12  C7  UNL     1      18.987  -0.902  52.845  1.00  0.00     0.142 C 
BRANCH  12  13
HETATM   13  C8  UNL     1      17.457  -0.865  52.886  1.00  0.00     0.060 C 
BRANCH  13  14
HETATM   14  C9  UNL     1      16.908  -2.237  52.980  1.00  0.00    -0.039 A 
HETATM   15  C10 UNL     1      17.456  -3.348  53.572  1.00  0.00     0.010 A 
HETATM   16  C11 UNL     1      16.865  -4.587  53.613  1.00  0.00     0.020 A 
HETATM   17  C12 UNL     1      15.634  -4.719  53.015  1.00  0.00     0.116 A 
HETATM   18  N4  UNL     1      15.067  -3.660  52.427  1.00  0.00    -0.273 NA
HETATM   19  C13 UNL     1      15.651  -2.439  52.388  1.00  0.00     0.123 A 
ENDBRANCH  13  14
ENDBRANCH  12  13
ENDBRANCH  10  12
ENDBRANCH   8  10
ENDBRANCH   3   4
BRANCH   3  20
HETATM   20  C14 UNL     1      25.409   0.428  52.755  1.00  0.00     0.100 A 
HETATM   21  N6  UNL     1      26.043  -0.746  52.599  1.00  0.00    -0.243 NA
HETATM   22  C15 UNL     1      27.313  -0.731  52.987  1.00  0.00     0.074 A 
HETATM   23  C16 UNL     1      28.080  -1.896  52.876  1.00  0.00     0.033 A 
HETATM   24  C20 UNL     1      28.031   0.407  53.540  1.00  0.00     0.035 A 
HETATM   25  C17 UNL     1      29.399  -1.882  53.279  1.00  0.00     0.002 A 
HETATM   26  C18 UNL     1      30.045  -0.790  53.796  1.00  0.00     0.002 A 
HETATM   27  C19 UNL     1      29.291   0.355  53.905  1.00  0.00     0.021 A 
HETATM   28  S1  UNL     1      26.638   1.607  53.474  1.00  0.00    -0.071 SA
ENDBRANCH   3  20
TORSDOF 6
ENDMDL
MODEL 4
REMARK VINA RESULT:      -8.2      2.138      6.430
REMARK  6 active torsions:
REMARK  status: ('A' for Active; 'I' for Inactive)
REMARK    1  A    between atoms: C2_3  and  C3_4 
REMARK    2  A    between atoms: C2_3  and  C14_19 
REMARK    3  A    between atoms: C6_8  and  N3_9 
REMARK    4  A    between atoms: N3_9  and  C7_10 
REMARK    5  A    between atoms: C7_10  and  C8_11 
REMARK    6  A    between atoms: C8_11  and  C9_12 
ROOT
HETATM    1  N1  UNL     1      27.671   4.528  48.850  1.00  0.00    -0.196 NA
HETATM    2  C1  UNL     1      26.754   3.970  49.310  1.00  0.00     0.077 C 
HETATM    3  C2  UNL     1      25.614   3.274  49.895  1.00  0.00     0.204 C 
ENDROOT
BRANCH   3   4
HETATM    4  C3  UNL     1      24.545   4.229  50.360  1.00  0.00     0.079 A 
HETATM    5  C4  UNL     1      24.982   5.555  50.451  1.00  0.00     0.049 A 
HETATM    6  C5  UNL     1      24.022   6.447  50.873  1.00  0.00     0.138 A 
HETATM    7  N2  UNL     1      22.792   6.057  51.164  1.00  0.00    -0.075 NA
HETATM    8  C6  UNL     1      22.373   4.792  51.077  1.00  0.00     0.722 A 
HETATM    9  N5  UNL     1      23.284   3.879  50.666  1.00  0.00    -0.066 NA
BRANCH   8  10
HETATM   10  N3  UNL     1      21.140   4.103  51.305  1.00  0.00    -0.222 N 
HETATM   11  H4  UNL     1      20.352   4.315  50.685  1.00  0.00     0.177 HD
BRANCH  10  12
HETATM   12  C7  UNL     1      21.147   3.172  52.406  1.00  0.00     0.142 C 
BRANCH  12  13
HETATM   13  C8  UNL     1      20.257   1.957  52.129  1.00  0.00     0.060 C 
BRANCH  13  14
HETATM   14  C9  UNL     1      20.696   0.798  52.939  1.00  0.00    -0.039 A 
HETATM   15  C10 UNL     1      21.912   0.571  53.535  1.00  0.00     0.010 A 
HETATM   16  C11 UNL     1      22.227  -0.541  54.276  1.00  0.00     0.020 A 
HETATM   17  C12 UNL     1      21.250  -1.495  54.429  1.00  0.00     0.116 A 
HETATM   18  N4  UNL     1      20.051  -1.311  53.863  1.00  0.00    -0.273 NA
HETATM   19  C13 UNL     1      19.742  -0.214  53.133  1.00  0.00     0.123 A 
ENDBRANCH  13  14
ENDBRANCH  12  13
ENDBRANCH  10  12
ENDBRANCH   8  10
ENDBRANCH   3   4
BRANCH   3  20
HETATM   20  C14 UNL     1      26.183   2.531  51.088  1.00  0.00     0.100 A 
HETATM   21  N6  UNL     1      27.372   2.679  51.693  1.00  0.00    -0.243 NA
HETATM   22  C15 UNL     1      27.564   1.856  52.719  1.00  0.00     0.074 A 
HETATM   23  C16 UNL     1      28.767   1.914  53.432  1.00  0.00     0.033 A 
HETATM   24  C20 UNL     1      26.626   0.859  53.210  1.00  0.00     0.035 A 
HETATM   25  C17 UNL     1      28.967   1.060  54.497  1.00  0.00     0.002 A 
HETATM   26  C18 UNL     1      28.060   0.131  54.932  1.00  0.00     0.002 A 
HETATM   27  C19 UNL     1      26.877   0.075  54.232  1.00  0.00     0.021 A 
HETATM   28  S1  UNL     1      25.289   1.186  51.988  1.00  0.00    -0.071 SA
ENDBRANCH   3  20
TORSDOF 6
ENDMDL
MODEL 5
REMARK VINA RESULT:      -8.1      3.487      5.592
REMARK  6 active torsions:
REMARK  status: ('A' for Active; 'I' for Inactive)
REMARK    1  A    between atoms: C2_3  and  C3_4 
REMARK    2  A    between atoms: C2_3  and  C14_19 
REMARK    3  A    between atoms: C6_8  and  N3_9 
REMARK    4  A    between atoms: N3_9  and  C7_10 
REMARK    5  A    between atoms: C7_10  and  C8_11 
REMARK    6  A    between atoms: C8_11  and  C9_12 
ROOT
HETATM    1  N1  UNL     1      23.862   3.379  52.638  1.00  0.00    -0.196 NA
HETATM    2  C1  UNL     1      23.925   2.218  52.533  1.00  0.00     0.077 C 
HETATM    3  C2  UNL     1      24.013   0.767  52.410  1.00  0.00     0.204 C 
ENDROOT
BRANCH   3   4
HETATM    4  C3  UNL     1      23.111   0.060  53.389  1.00  0.00     0.079 A 
HETATM    5  C4  UNL     1      23.801  -0.726  54.317  1.00  0.00     0.049 A 
HETATM    6  C5  UNL     1      22.998  -1.381  55.223  1.00  0.00     0.138 A 
HETATM    7  N2  UNL     1      21.681  -1.261  55.196  1.00  0.00    -0.075 NA
HETATM    8  C6  UNL     1      21.020  -0.511  54.311  1.00  0.00     0.722 A 
HETATM    9  N5  UNL     1      21.770   0.152  53.400  1.00  0.00    -0.066 NA
BRANCH   8  10
HETATM   10  N3  UNL     1      19.648  -0.191  54.060  1.00  0.00    -0.222 N 
HETATM   11  H4  UNL     1      19.197   0.493  54.675  1.00  0.00     0.177 HD
BRANCH  10  12
HETATM   12  C7  UNL     1      19.045  -0.886  52.950  1.00  0.00     0.142 C 
BRANCH  12  13
HETATM   13  C8  UNL     1      18.344   0.079  51.989  1.00  0.00     0.060 C 
BRANCH  13  14
HETATM   14  C9  UNL     1      19.336   0.926  51.289  1.00  0.00    -0.039 A 
HETATM   15  C10 UNL     1      20.302   0.558  50.385  1.00  0.00     0.010 A 
HETATM   16  C11 UNL     1      21.181   1.422  49.781  1.00  0.00     0.020 A 
HETATM   17  C12 UNL     1      21.084   2.753  50.110  1.00  0.00     0.116 A 
HETATM   18  N4  UNL     1      20.156   3.152  50.988  1.00  0.00    -0.273 NA
HETATM   19  C13 UNL     1      19.290   2.299  51.583  1.00  0.00     0.123 A 
ENDBRANCH  13  14
ENDBRANCH  12  13
ENDBRANCH  10  12
ENDBRANCH   8  10
ENDBRANCH   3   4
BRANCH   3  20
HETATM   20  C14 UNL     1      25.459   0.437  52.725  1.00  0.00     0.100 A 
HETATM   21  N6  UNL     1      26.109  -0.732  52.611  1.00  0.00    -0.243 NA
HETATM   22  C15 UNL     1      27.384  -0.682  52.981  1.00  0.00     0.074 A 
HETATM   23  C16 UNL     1      28.167  -1.840  52.908  1.00  0.00     0.033 A 
HETATM   24  C20 UNL     1      28.091   0.488  53.477  1.00  0.00     0.035 A 
HETATM   25  C17 UNL     1      29.491  -1.788  53.294  1.00  0.00     0.002 A 
HETATM   26  C18 UNL     1      30.126  -0.667  53.756  1.00  0.00     0.002 A 
HETATM   27  C19 UNL     1      29.355   0.471  53.828  1.00  0.00     0.021 A 
HETATM   28  S1  UNL     1      26.679   1.664  53.379  1.00  0.00    -0.071 SA
ENDBRANCH   3  20
TORSDOF 6
ENDMDL
MODEL 6
REMARK VINA RESULT:      -8.1      1.670      6.350
REMARK  6 active torsions:
REMARK  status: ('A' for Active; 'I' for Inactive)
REMARK    1  A    between atoms: C2_3  and  C3_4 
REMARK    2  A    between atoms: C2_3  and  C14_19 
REMARK    3  A    between atoms: C6_8  and  N3_9 
REMARK    4  A    between atoms: N3_9  and  C7_10 
REMARK    5  A    between atoms: C7_10  and  C8_11 
REMARK    6  A    between atoms: C8_11  and  C9_12 
ROOT
HETATM    1  N1  UNL     1      23.653   4.703  53.173  1.00  0.00    -0.196 NA
HETATM    2  C1  UNL     1      23.436   4.724  52.026  1.00  0.00     0.077 C 
HETATM    3  C2  UNL     1      23.177   4.745  50.591  1.00  0.00     0.204 C 
ENDROOT
BRANCH   3   4
HETATM    4  C3  UNL     1      22.672   3.418  50.087  1.00  0.00     0.079 A 
HETATM    5  C4  UNL     1      22.478   3.383  48.702  1.00  0.00     0.049 A 
HETATM    6  C5  UNL     1      22.017   2.180  48.218  1.00  0.00     0.138 A 
HETATM    7  N2  UNL     1      21.783   1.153  49.018  1.00  0.00    -0.075 NA
HETATM    8  C6  UNL     1      21.968   1.184  50.340  1.00  0.00     0.722 A 
HETATM    9  N5  UNL     1      22.421   2.348  50.862  1.00  0.00    -0.066 NA
BRANCH   8  10
HETATM   10  N3  UNL     1      21.818   0.255  51.418  1.00  0.00    -0.222 N 
HETATM   11  H4  UNL     1      21.304  -0.612  51.234  1.00  0.00     0.177 HD
BRANCH  10  12
HETATM   12  C7  UNL     1      22.417   0.655  52.667  1.00  0.00     0.142 C 
BRANCH  12  13
HETATM   13  C8  UNL     1      23.221  -0.482  53.302  1.00  0.00     0.060 C 
BRANCH  13  14
HETATM   14  C9  UNL     1      24.670  -0.183  53.254  1.00  0.00    -0.039 A 
HETATM   15  C10 UNL     1      25.388   0.458  52.275  1.00  0.00     0.010 A 
HETATM   16  C11 UNL     1      26.739   0.696  52.320  1.00  0.00     0.020 A 
HETATM   17  C12 UNL     1      27.419   0.257  53.431  1.00  0.00     0.116 A 
HETATM   18  N4  UNL     1      26.756  -0.372  54.408  1.00  0.00    -0.273 NA
HETATM   19  C13 UNL     1      25.424  -0.605  54.361  1.00  0.00     0.123 A 
ENDBRANCH  13  14
ENDBRANCH  12  13
ENDBRANCH  10  12
ENDBRANCH   8  10
ENDBRANCH   3   4
BRANCH   3  20
HETATM   20  C14 UNL     1      24.521   5.049  49.958  1.00  0.00     0.100 A 
HETATM   21  N6  UNL     1      24.962   6.190  49.404  1.00  0.00    -0.243 NA
HETATM   22  C15 UNL     1      26.201   6.118  48.929  1.00  0.00     0.074 A 
HETATM   23  C16 UNL     1      26.772   7.245  48.327  1.00  0.00     0.033 A 
HETATM   24  C20 UNL     1      27.070   4.953  48.964  1.00  0.00     0.035 A 
HETATM   25  C17 UNL     1      28.058   7.171  47.833  1.00  0.00     0.002 A 
HETATM   26  C18 UNL     1      28.850   6.055  47.883  1.00  0.00     0.002 A 
HETATM   27  C19 UNL     1      28.288   4.948  48.475  1.00  0.00     0.021 A 
HETATM   28  S1  UNL     1      25.894   3.818  49.811  1.00  0.00    -0.071 SA
ENDBRANCH   3  20
TORSDOF 6
ENDMDL
MODEL 7
REMARK VINA RESULT:      -7.9      2.901      4.124
REMARK  6 active torsions:
REMARK  status: ('A' for Active; 'I' for Inactive)
REMARK    1  A    between atoms: C2_3  and  C3_4 
REMARK    2  A    between atoms: C2_3  and  C14_19 
REMARK    3  A    between atoms: C6_8  and  N3_9 
REMARK    4  A    between atoms: N3_9  and  C7_10 
REMARK    5  A    between atoms: C7_10  and  C8_11 
REMARK    6  A    between atoms: C8_11  and  C9_12 
ROOT
HETATM    1  N1  UNL     1      27.618   4.447  48.825  1.00  0.00    -0.196 NA
HETATM    2  C1  UNL     1      26.709   3.913  49.327  1.00  0.00     0.077 C 
HETATM    3  C2  UNL     1      25.581   3.246  49.966  1.00  0.00     0.204 C 
ENDROOT
BRANCH   3   4
HETATM    4  C3  UNL     1      24.550   4.228  50.462  1.00  0.00     0.079 A 
HETATM    5  C4  UNL     1      23.283   3.664  50.643  1.00  0.00     0.049 A 
HETATM    6  C5  UNL     1      22.324   4.541  51.096  1.00  0.00     0.138 A 
HETATM    7  N2  UNL     1      22.603   5.812  51.333  1.00  0.00    -0.075 NA
HETATM    8  C6  UNL     1      23.812   6.353  51.161  1.00  0.00     0.722 A 
HETATM    9  N5  UNL     1      24.787   5.527  50.716  1.00  0.00    -0.066 NA
BRANCH   8  10
HETATM   10  N3  UNL     1      24.391   7.649  51.344  1.00  0.00    -0.222 N 
HETATM   11  H4  UNL     1      24.334   8.071  52.276  1.00  0.00     0.177 HD
BRANCH  10  12
HETATM   12  C7  UNL     1      24.998   8.226  50.170  1.00  0.00     0.142 C 
BRANCH  12  13
HETATM   13  C8  UNL     1      26.397   8.774  50.465  1.00  0.00     0.060 C 
BRANCH  13  14
HETATM   14  C9  UNL     1      27.296   8.548  49.311  1.00  0.00    -0.039 A 
HETATM   15  C10 UNL     1      27.052   7.862  48.146  1.00  0.00     0.010 A 
HETATM   16  C11 UNL     1      27.953   7.707  47.123  1.00  0.00     0.020 A 
HETATM   17  C12 UNL     1      29.191   8.282  47.281  1.00  0.00     0.116 A 
HETATM   18  N4  UNL     1      29.469   8.958  48.401  1.00  0.00    -0.273 NA
HETATM   19  C13 UNL     1      28.579   9.110  49.409  1.00  0.00     0.123 A 
ENDBRANCH  13  14
ENDBRANCH  12  13
ENDBRANCH  10  12
ENDBRANCH   8  10
ENDBRANCH   3   4
BRANCH   3  20
HETATM   20  C14 UNL     1      26.183   2.506  51.145  1.00  0.00     0.100 A 
HETATM   21  N6  UNL     1      27.362   2.698  51.757  1.00  0.00    -0.243 NA
HETATM   22  C15 UNL     1      27.591   1.865  52.766  1.00  0.00     0.074 A 
HETATM   23  C16 UNL     1      28.789   1.965  53.483  1.00  0.00     0.033 A 
HETATM   24  C20 UNL     1      26.701   0.813  53.232  1.00  0.00     0.035 A 
HETATM   25  C17 UNL     1      29.027   1.099  54.530  1.00  0.00     0.002 A 
HETATM   26  C18 UNL     1      28.166   0.118  54.943  1.00  0.00     0.002 A 
HETATM   27  C19 UNL     1      26.988   0.020  54.238  1.00  0.00     0.021 A 
HETATM   28  S1  UNL     1      25.353   1.100  52.013  1.00  0.00    -0.071 SA
ENDBRANCH   3  20
TORSDOF 6
ENDMDL
MODEL 8
REMARK VINA RESULT:      -7.9      2.403      3.293
REMARK  6 active torsions:
REMARK  status: ('A' for Active; 'I' for Inactive)
REMARK    1  A    between atoms: C2_3  and  C3_4 
REMARK    2  A    between atoms: C2_3  and  C14_19 
REMARK    3  A    between atoms: C6_8  and  N3_9 
REMARK    4  A    between atoms: N3_9  and  C7_10 
REMARK    5  A    between atoms: C7_10  and  C8_11 
REMARK    6  A    between atoms: C8_11  and  C9_12 
ROOT
HETATM    1  N1  UNL     1      22.272  -0.413  53.107  1.00  0.00    -0.196 NA
HETATM    2  C1  UNL     1      23.088   0.421  53.082  1.00  0.00     0.077 C 
HETATM    3  C2  UNL     1      24.116   1.456  53.046  1.00  0.00     0.204 C 
ENDROOT
BRANCH   3   4
HETATM    4  C3  UNL     1      24.081   2.243  51.761  1.00  0.00     0.079 A 
HETATM    5  C4  UNL     1      23.042   1.868  50.904  1.00  0.00     0.049 A 
HETATM    6  C5  UNL     1      22.989   2.574  49.723  1.00  0.00     0.138 A 
HETATM    7  N2  UNL     1      23.864   3.526  49.445  1.00  0.00    -0.075 NA
HETATM    8  C6  UNL     1      24.857   3.886  50.262  1.00  0.00     0.722 A 
HETATM    9  N5  UNL     1      24.947   3.218  51.435  1.00  0.00    -0.066 NA
BRANCH   8  10
HETATM   10  N3  UNL     1      25.908   4.857  50.232  1.00  0.00    -0.222 N 
HETATM   11  H4  UNL     1      26.841   4.560  50.536  1.00  0.00     0.177 HD
BRANCH  10  12
HETATM   12  C7  UNL     1      25.525   6.168  49.773  1.00  0.00     0.142 C 
BRANCH  12  13
HETATM   13  C8  UNL     1      24.843   6.981  50.878  1.00  0.00     0.060 C 
BRANCH  13  14
HETATM   14  C9  UNL     1      23.492   7.408  50.449  1.00  0.00    -0.039 A 
HETATM   15  C10 UNL     1      22.275   6.843  50.741  1.00  0.00     0.010 A 
HETATM   16  C11 UNL     1      21.064   7.316  50.297  1.00  0.00     0.020 A 
HETATM   17  C12 UNL     1      21.078   8.437  49.502  1.00  0.00     0.116 A 
HETATM   18  N4  UNL     1      22.244   9.016  49.195  1.00  0.00    -0.273 NA
HETATM   19  C13 UNL     1      23.437   8.549  49.633  1.00  0.00     0.123 A 
ENDBRANCH  13  14
ENDBRANCH  12  13
ENDBRANCH  10  12
ENDBRANCH   8  10
ENDBRANCH   3   4
BRANCH   3  20
HETATM   20  C14 UNL     1      25.429   0.703  53.144  1.00  0.00     0.100 A 
HETATM   21  N6  UNL     1      25.709  -0.565  52.803  1.00  0.00    -0.243 NA
HETATM   22  C15 UNL     1      26.970  -0.919  53.025  1.00  0.00     0.074 A 
HETATM   23  C16 UNL     1      27.385  -2.218  52.711  1.00  0.00     0.033 A 
HETATM   24  C20 UNL     1      28.016  -0.075  53.581  1.00  0.00     0.035 A 
HETATM   25  C17 UNL     1      28.695  -2.586  52.942  1.00  0.00     0.002 A 
HETATM   26  C18 UNL     1      29.655  -1.764  53.468  1.00  0.00     0.002 A 
HETATM   27  C19 UNL     1      29.247  -0.487  53.776  1.00  0.00     0.021 A 
HETATM   28  S1  UNL     1      26.992   1.438  53.803  1.00  0.00    -0.071 SA
ENDBRANCH   3  20
TORSDOF 6
ENDMDL
MODEL 9
REMARK VINA RESULT:      -7.9      2.532      6.239
REMARK  6 active torsions:
REMARK  status: ('A' for Active; 'I' for Inactive)
REMARK    1  A    between atoms: C2_3  and  C3_4 
REMARK    2  A    between atoms: C2_3  and  C14_19 
REMARK    3  A    between atoms: C6_8  and  N3_9 
REMARK    4  A    between atoms: N3_9  and  C7_10 
REMARK    5  A    between atoms: C7_10  and  C8_11 
REMARK    6  A    between atoms: C8_11  and  C9_12 
ROOT
HETATM    1  N1  UNL     1      20.406   5.266  50.159  1.00  0.00    -0.196 NA
HETATM    2  C1  UNL     1      21.323   4.982  50.824  1.00  0.00     0.077 C 
HETATM    3  C2  UNL     1      22.465   4.615  51.652  1.00  0.00     0.204 C 
ENDROOT
BRANCH   3   4
HETATM    4  C3  UNL     1      23.738   4.522  50.851  1.00  0.00     0.079 A 
HETATM    5  C4  UNL     1      23.694   5.233  49.647  1.00  0.00     0.049 A 
HETATM    6  C5  UNL     1      24.846   5.163  48.898  1.00  0.00     0.138 A 
HETATM    7  N2  UNL     1      25.899   4.473  49.305  1.00  0.00    -0.075 NA
HETATM    8  C6  UNL     1      25.943   3.794  50.454  1.00  0.00     0.722 A 
HETATM    9  N5  UNL     1      24.831   3.834  51.224  1.00  0.00    -0.066 NA
BRANCH   8  10
HETATM   10  N3  UNL     1      26.916   2.997  51.137  1.00  0.00    -0.222 N 
HETATM   11  H4  UNL     1      27.844   2.906  50.710  1.00  0.00     0.177 HD
BRANCH  10  12
HETATM   12  C7  UNL     1      26.469   2.398  52.370  1.00  0.00     0.142 C 
BRANCH  12  13
HETATM   13  C8  UNL     1      27.629   1.778  53.153  1.00  0.00     0.060 C 
BRANCH  13  14
HETATM   14  C9  UNL     1      27.613   0.303  53.024  1.00  0.00    -0.039 A 
HETATM   15  C10 UNL     1      26.638  -0.507  52.495  1.00  0.00     0.010 A 
HETATM   16  C11 UNL     1      26.713  -1.875  52.413  1.00  0.00     0.020 A 
HETATM   17  C12 UNL     1      27.851  -2.474  52.899  1.00  0.00     0.116 A 
HETATM   18  N4  UNL     1      28.824  -1.719  53.423  1.00  0.00    -0.273 NA
HETATM   19  C13 UNL     1      28.748  -0.370  53.502  1.00  0.00     0.123 A 
ENDBRANCH  13  14
ENDBRANCH  12  13
ENDBRANCH  10  12
ENDBRANCH   8  10
ENDBRANCH   3   4
BRANCH   3  20
HETATM   20  C14 UNL     1      22.117   3.249  52.211  1.00  0.00     0.100 A 
HETATM   21  N6  UNL     1      22.934   2.262  52.612  1.00  0.00    -0.243 NA
HETATM   22  C15 UNL     1      22.301   1.178  53.049  1.00  0.00     0.074 A 
HETATM   23  C16 UNL     1      23.045   0.080  53.495  1.00  0.00     0.033 A 
HETATM   24  C20 UNL     1      20.860   0.994  53.120  1.00  0.00     0.035 A 
HETATM   25  C17 UNL     1      22.387  -1.046  53.947  1.00  0.00     0.002 A 
HETATM   26  C18 UNL     1      21.026  -1.186  54.000  1.00  0.00     0.002 A 
HETATM   27  C19 UNL     1      20.296  -0.105  53.562  1.00  0.00     0.021 A 
HETATM   28  S1  UNL     1      20.387   2.642  52.451  1.00  0.00    -0.071 SA
ENDBRANCH   3  20
TORSDOF 6
ENDMDL
