MODEL 1
REMARK VINA RESULT:      -7.9      0.000      0.000
REMARK  6 active torsions:
REMARK  status: ('A' for Active; 'I' for Inactive)
REMARK    1  A    between atoms: C2_2  and  C18_22 
REMARK    2  A    between atoms: C3_3  and  N1_4 
REMARK    3  A    between atoms: N1_4  and  C4_5 
REMARK    4  A    between atoms: C7_8  and  O1_9 
REMARK    5  A    between atoms: O1_9  and  C8_10 
REMARK    6  A    between atoms: C8_10  and  C9_11 
ROOT
HETATM    1  C18 UNL     1      28.412   7.686  48.266  1.00  0.00     0.050 C 
HETATM    2  C19 UNL     1      29.237   8.686  48.987  1.00  0.00     0.072 C 
HETATM    3  N2  UNL     1      27.343   8.004  47.617  1.00  0.00    -0.179 NA
HETATM    4  C20 UNL     1      26.965   9.358  47.605  1.00  0.00     0.206 C 
HETATM    5  N3  UNL     1      26.647  10.488  47.584  1.00  0.00    -0.170 NA
ENDROOT
BRANCH   1   6
HETATM    6  C2  UNL     1      28.749   6.265  48.240  1.00  0.00    -0.021 C 
HETATM    7  C1  UNL     1      30.145   5.896  47.864  1.00  0.00     0.052 C 
HETATM    8  C3  UNL     1      27.785   5.413  48.552  1.00  0.00     0.096 C 
BRANCH   8   9
HETATM    9  N1  UNL     1      26.420   5.652  48.925  1.00  0.00    -0.368 N 
HETATM   10  H5  UNL     1      25.646   6.315  48.747  1.00  0.00     0.165 HD
BRANCH   9  11
HETATM   11  C4  UNL     1      25.876   4.706  49.840  1.00  0.00     0.012 C 
HETATM   12  C5  UNL     1      26.618   3.613  49.915  1.00  0.00     0.028 C 
HETATM   13  C6  UNL     1      26.419   2.416  50.724  1.00  0.00     0.040 C 
HETATM   14  C7  UNL     1      25.270   1.983  51.267  1.00  0.00     0.090 C 
HETATM   15  C15 UNL     1      23.958   2.647  51.149  1.00  0.00     0.064 C 
HETATM   16 CL1  UNL     1      22.536   1.650  51.448  1.00  0.00    -0.082 Cl
HETATM   17  C16 UNL     1      23.773   3.923  50.840  1.00  0.00     0.006 C 
HETATM   18  C17 UNL     1      24.629   5.087  50.520  1.00  0.00     0.086 C 
BRANCH  14  19
HETATM   19  O1  UNL     1      25.250   0.806  52.021  1.00  0.00    -0.345 OA
BRANCH  19  20
HETATM   20  C8  UNL     1      25.927   0.841  53.255  1.00  0.00     0.214 C 
BRANCH  20  21
HETATM   21  C9  UNL     1      27.027  -0.179  53.187  1.00  0.00    -0.031 A 
HETATM   22  C10 UNL     1      26.678  -1.466  52.829  1.00  0.00     0.009 A 
HETATM   23  C11 UNL     1      27.597  -2.488  52.732  1.00  0.00     0.004 A 
HETATM   24  C12 UNL     1      28.931  -2.236  53.003  1.00  0.00     0.042 A 
HETATM   25  C13 UNL     1      29.288  -0.946  53.363  1.00  0.00     0.117 A 
HETATM   26  F1  UNL     1      30.562  -0.566  53.655  1.00  0.00    -0.206 F 
HETATM   27  C14 UNL     1      28.355   0.066  53.456  1.00  0.00     0.051 A 
ENDBRANCH  20  21
ENDBRANCH  19  20
ENDBRANCH  14  19
ENDBRANCH   9  11
ENDBRANCH   8   9
ENDBRANCH   1   6
TORSDOF 6
ENDMDL
MODEL 2
REMARK VINA RESULT:      -7.8      2.455      3.326
REMARK  6 active torsions:
REMARK  status: ('A' for Active; 'I' for Inactive)
REMARK    1  A    between atoms: C2_2  and  C18_22 
REMARK    2  A    between atoms: C3_3  and  N1_4 
REMARK    3  A    between atoms: N1_4  and  C4_5 
REMARK    4  A    between atoms: C7_8  and  O1_9 
REMARK    5  A    between atoms: O1_9  and  C8_10 
REMARK    6  A    between atoms: C8_10  and  C9_11 
ROOT
HETATM    1  C18 UNL     1      30.756   8.543  48.316  1.00  0.00     0.050 C 
HETATM    2  C19 UNL     1      30.550   9.451  49.472  1.00  0.00     0.072 C 
HETATM    3  N2  UNL     1      30.825   8.971  47.100  1.00  0.00    -0.179 NA
HETATM    4  C20 UNL     1      30.699  10.355  46.887  1.00  0.00     0.206 C 
HETATM    5  N3  UNL     1      30.603  11.510  46.701  1.00  0.00    -0.170 NA
ENDROOT
BRANCH   1   6
HETATM    6  C2  UNL     1      30.893   7.097  48.470  1.00  0.00    -0.021 C 
HETATM    7  C1  UNL     1      32.202   6.580  48.965  1.00  0.00     0.052 C 
HETATM    8  C3  UNL     1      29.842   6.357  48.155  1.00  0.00     0.096 C 
BRANCH   8   9
HETATM    9  N1  UNL     1      28.546   6.743  47.674  1.00  0.00    -0.368 N 
HETATM   10  H5  UNL     1      28.105   7.335  46.949  1.00  0.00     0.165 HD
BRANCH   9  11
HETATM   11  C4  UNL     1      27.451   6.157  48.371  1.00  0.00     0.012 C 
HETATM   12  C5  UNL     1      27.672   4.883  48.651  1.00  0.00     0.028 C 
HETATM   13  C6  UNL     1      26.816   3.929  49.346  1.00  0.00     0.040 C 
HETATM   14  C7  UNL     1      25.486   4.000  49.514  1.00  0.00     0.090 C 
HETATM   15  C15 UNL     1      24.613   5.080  49.017  1.00  0.00     0.064 C 
HETATM   16 CL1  UNL     1      22.898   4.703  48.863  1.00  0.00    -0.082 Cl
HETATM   17  C16 UNL     1      25.018   6.298  48.684  1.00  0.00     0.006 C 
HETATM   18  C17 UNL     1      26.302   7.032  48.651  1.00  0.00     0.086 C 
BRANCH  14  19
HETATM   19  O1  UNL     1      24.812   2.994  50.212  1.00  0.00    -0.345 OA
BRANCH  19  20
HETATM   20  C8  UNL     1      24.853   3.071  51.617  1.00  0.00     0.214 C 
BRANCH  20  21
HETATM   21  C9  UNL     1      25.151   1.691  52.129  1.00  0.00    -0.031 A 
HETATM   22  C10 UNL     1      26.386   1.154  51.823  1.00  0.00     0.009 A 
HETATM   23  C11 UNL     1      26.775  -0.102  52.236  1.00  0.00     0.004 A 
HETATM   24  C12 UNL     1      25.907  -0.875  52.989  1.00  0.00     0.042 A 
HETATM   25  C13 UNL     1      24.666  -0.341  53.299  1.00  0.00     0.117 A 
HETATM   26  F1  UNL     1      23.721  -0.994  54.030  1.00  0.00    -0.206 F 
HETATM   27  C14 UNL     1      24.292   0.918  52.878  1.00  0.00     0.051 A 
ENDBRANCH  20  21
ENDBRANCH  19  20
ENDBRANCH  14  19
ENDBRANCH   9  11
ENDBRANCH   8   9
ENDBRANCH   1   6
TORSDOF 6
ENDMDL
MODEL 3
REMARK VINA RESULT:      -7.8      2.782      4.098
REMARK  6 active torsions:
REMARK  status: ('A' for Active; 'I' for Inactive)
REMARK    1  A    between atoms: C2_2  and  C18_22 
REMARK    2  A    between atoms: C3_3  and  N1_4 
REMARK    3  A    between atoms: N1_4  and  C4_5 
REMARK    4  A    between atoms: C7_8  and  O1_9 
REMARK    5  A    between atoms: O1_9  and  C8_10 
REMARK    6  A    between atoms: C8_10  and  C9_11 
ROOT
HETATM    1  C18 UNL     1      24.329   5.876  49.565  1.00  0.00     0.050 C 
HETATM    2  C19 UNL     1      24.618   6.345  48.188  1.00  0.00     0.072 C 
HETATM    3  N2  UNL     1      25.109   5.069  50.203  1.00  0.00    -0.179 NA
HETATM    4  C20 UNL     1      26.273   4.632  49.547  1.00  0.00     0.206 C 
HETATM    5  N3  UNL     1      27.252   4.269  49.009  1.00  0.00    -0.170 NA
ENDROOT
BRANCH   1   6
HETATM    6  C2  UNL     1      23.137   6.291  50.301  1.00  0.00    -0.021 C 
HETATM    7  C1  UNL     1      23.096   7.694  50.807  1.00  0.00     0.052 C 
HETATM    8  C3  UNL     1      22.185   5.386  50.463  1.00  0.00     0.096 C 
BRANCH   8   9
HETATM    9  N1  UNL     1      22.118   4.021  50.024  1.00  0.00    -0.368 N 
HETATM   10  H5  UNL     1      21.995   3.462  49.163  1.00  0.00     0.165 HD
BRANCH   9  11
HETATM   11  C4  UNL     1      22.262   3.054  51.060  1.00  0.00     0.012 C 
HETATM   12  C5  UNL     1      23.226   2.189  50.794  1.00  0.00     0.028 C 
HETATM   13  C6  UNL     1      23.693   1.055  51.583  1.00  0.00     0.040 C 
HETATM   14  C7  UNL     1      23.022   0.401  52.544  1.00  0.00     0.090 C 
HETATM   15  C15 UNL     1      21.653   0.709  53.000  1.00  0.00     0.064 C 
HETATM   16 CL1  UNL     1      20.790  -0.578  53.840  1.00  0.00    -0.082 Cl
HETATM   17  C16 UNL     1      21.033   1.868  52.826  1.00  0.00     0.006 C 
HETATM   18  C17 UNL     1      21.348   3.174  52.207  1.00  0.00     0.086 C 
BRANCH  14  19
HETATM   19  O1  UNL     1      23.618  -0.674  53.210  1.00  0.00    -0.345 OA
BRANCH  19  20
HETATM   20  C8  UNL     1      24.277  -0.375  54.418  1.00  0.00     0.214 C 
BRANCH  20  21
HETATM   21  C9  UNL     1      25.753  -0.444  54.148  1.00  0.00    -0.031 A 
HETATM   22  C10 UNL     1      26.168  -1.235  53.095  1.00  0.00     0.009 A 
HETATM   23  C11 UNL     1      27.495  -1.378  52.749  1.00  0.00     0.004 A 
HETATM   24  C12 UNL     1      28.467  -0.712  53.475  1.00  0.00     0.042 A 
HETATM   25  C13 UNL     1      28.056   0.084  54.534  1.00  0.00     0.117 A 
HETATM   26  F1  UNL     1      28.907   0.791  55.326  1.00  0.00    -0.206 F 
HETATM   27  C14 UNL     1      26.724   0.216  54.867  1.00  0.00     0.051 A 
ENDBRANCH  20  21
ENDBRANCH  19  20
ENDBRANCH  14  19
ENDBRANCH   9  11
ENDBRANCH   8   9
ENDBRANCH   1   6
TORSDOF 6
ENDMDL
MODEL 4
REMARK VINA RESULT:      -7.6      4.476      6.303
REMARK  6 active torsions:
REMARK  status: ('A' for Active; 'I' for Inactive)
REMARK    1  A    between atoms: C2_2  and  C18_22 
REMARK    2  A    between atoms: C3_3  and  N1_4 
REMARK    3  A    between atoms: N1_4  and  C4_5 
REMARK    4  A    between atoms: C7_8  and  O1_9 
REMARK    5  A    between atoms: O1_9  and  C8_10 
REMARK    6  A    between atoms: C8_10  and  C9_11 
ROOT
HETATM    1  C18 UNL     1      20.489   3.879  50.418  1.00  0.00     0.050 C 
HETATM    2  C19 UNL     1      21.345   4.670  51.335  1.00  0.00     0.072 C 
HETATM    3  N2  UNL     1      20.837   3.603  49.206  1.00  0.00    -0.179 NA
HETATM    4  C20 UNL     1      22.081   4.082  48.760  1.00  0.00     0.206 C 
HETATM    5  N3  UNL     1      23.122   4.471  48.381  1.00  0.00    -0.170 NA
ENDROOT
BRANCH   1   6
HETATM    6  C2  UNL     1      19.186   3.353  50.820  1.00  0.00    -0.021 C 
HETATM    7  C1  UNL     1      18.092   4.339  51.062  1.00  0.00     0.052 C 
HETATM    8  C3  UNL     1      19.079   2.039  50.938  1.00  0.00     0.096 C 
BRANCH   8   9
HETATM    9  N1  UNL     1      20.054   1.007  50.733  1.00  0.00    -0.368 N 
HETATM   10  H5  UNL     1      20.345   0.310  50.025  1.00  0.00     0.165 HD
BRANCH   9  11
HETATM   11  C4  UNL     1      20.959   0.816  51.816  1.00  0.00     0.012 C 
HETATM   12  C5  UNL     1      22.217   0.805  51.408  1.00  0.00     0.028 C 
HETATM   13  C6  UNL     1      23.439   0.639  52.187  1.00  0.00     0.040 C 
HETATM   14  C7  UNL     1      23.560   0.082  53.402  1.00  0.00     0.090 C 
HETATM   15  C15 UNL     1      22.457  -0.483  54.203  1.00  0.00     0.064 C 
HETATM   16 CL1  UNL     1      22.902  -1.626  55.469  1.00  0.00    -0.082 Cl
HETATM   17  C16 UNL     1      21.172  -0.195  54.045  1.00  0.00     0.006 C 
HETATM   18  C17 UNL     1      20.366   0.668  53.154  1.00  0.00     0.086 C 
BRANCH  14  19
HETATM   19  O1  UNL     1      24.813  -0.000  54.016  1.00  0.00    -0.345 OA
BRANCH  19  20
HETATM   20  C8  UNL     1      25.771  -0.812  53.377  1.00  0.00     0.214 C 
BRANCH  20  21
HETATM   21  C9  UNL     1      27.098  -0.123  53.512  1.00  0.00    -0.031 A 
HETATM   22  C10 UNL     1      27.092   1.255  53.588  1.00  0.00     0.009 A 
HETATM   23  C11 UNL     1      28.246   2.000  53.714  1.00  0.00     0.004 A 
HETATM   24  C12 UNL     1      29.471   1.358  53.766  1.00  0.00     0.042 A 
HETATM   25  C13 UNL     1      29.483  -0.026  53.690  1.00  0.00     0.117 A 
HETATM   26  F1  UNL     1      30.618  -0.777  53.729  1.00  0.00    -0.206 F 
HETATM   27  C14 UNL     1      28.320  -0.756  53.564  1.00  0.00     0.051 A 
ENDBRANCH  20  21
ENDBRANCH  19  20
ENDBRANCH  14  19
ENDBRANCH   9  11
ENDBRANCH   8   9
ENDBRANCH   1   6
TORSDOF 6
ENDMDL
MODEL 5
REMARK VINA RESULT:      -7.5      5.176      7.839
REMARK  6 active torsions:
REMARK  status: ('A' for Active; 'I' for Inactive)
REMARK    1  A    between atoms: C2_2  and  C18_22 
REMARK    2  A    between atoms: C3_3  and  N1_4 
REMARK    3  A    between atoms: N1_4  and  C4_5 
REMARK    4  A    between atoms: C7_8  and  O1_9 
REMARK    5  A    between atoms: O1_9  and  C8_10 
REMARK    6  A    between atoms: C8_10  and  C9_11 
ROOT
HETATM    1  C18 UNL     1      17.832   0.939  50.409  1.00  0.00     0.050 C 
HETATM    2  C19 UNL     1      16.974  -0.065  49.733  1.00  0.00     0.072 C 
HETATM    3  N2  UNL     1      18.281   0.776  51.608  1.00  0.00    -0.179 NA
HETATM    4  C20 UNL     1      17.931  -0.408  52.280  1.00  0.00     0.206 C 
HETATM    5  N3  UNL     1      17.650  -1.397  52.846  1.00  0.00    -0.170 NA
ENDROOT
BRANCH   1   6
HETATM    6  C2  UNL     1      18.231   2.189  49.766  1.00  0.00    -0.021 C 
HETATM    7  C1  UNL     1      17.279   3.335  49.839  1.00  0.00     0.052 C 
HETATM    8  C3  UNL     1      19.411   2.205  49.166  1.00  0.00     0.096 C 
BRANCH   8   9
HETATM    9  N1  UNL     1      20.399   1.173  49.033  1.00  0.00    -0.368 N 
HETATM   10  H5  UNL     1      20.594   0.317  48.486  1.00  0.00     0.165 HD
BRANCH   9  11
HETATM   11  C4  UNL     1      21.514   1.297  49.912  1.00  0.00     0.012 C 
HETATM   12  C5  UNL     1      21.496   0.375  50.860  1.00  0.00     0.028 C 
HETATM   13  C6  UNL     1      22.441   0.152  51.948  1.00  0.00     0.040 C 
HETATM   14  C7  UNL     1      23.309   1.035  52.467  1.00  0.00     0.090 C 
HETATM   15  C15 UNL     1      23.479   2.433  52.028  1.00  0.00     0.064 C 
HETATM   16 CL1  UNL     1      24.241   3.535  53.173  1.00  0.00    -0.082 Cl
HETATM   17  C16 UNL     1      23.107   2.914  50.849  1.00  0.00     0.006 C 
HETATM   18  C17 UNL     1      22.460   2.387  49.628  1.00  0.00     0.086 C 
BRANCH  14  19
HETATM   19  O1  UNL     1      24.153   0.658  53.516  1.00  0.00    -0.345 OA
BRANCH  19  20
HETATM   20  C8  UNL     1      24.818  -0.575  53.371  1.00  0.00     0.214 C 
BRANCH  20  21
HETATM   21  C9  UNL     1      26.292  -0.294  53.429  1.00  0.00    -0.031 A 
HETATM   22  C10 UNL     1      26.680   0.991  53.750  1.00  0.00     0.009 A 
HETATM   23  C11 UNL     1      28.003   1.372  53.834  1.00  0.00     0.004 A 
HETATM   24  C12 UNL     1      28.999   0.442  53.588  1.00  0.00     0.042 A 
HETATM   25  C13 UNL     1      28.615  -0.851  53.265  1.00  0.00     0.117 A 
HETATM   26  F1  UNL     1      29.491  -1.858  53.000  1.00  0.00    -0.206 F 
HETATM   27  C14 UNL     1      27.287  -1.214  53.185  1.00  0.00     0.051 A 
ENDBRANCH  20  21
ENDBRANCH  19  20
ENDBRANCH  14  19
ENDBRANCH   9  11
ENDBRANCH   8   9
ENDBRANCH   1   6
TORSDOF 6
ENDMDL
MODEL 6
REMARK VINA RESULT:      -7.5      3.540      4.308
REMARK  6 active torsions:
REMARK  status: ('A' for Active; 'I' for Inactive)
REMARK    1  A    between atoms: C2_2  and  C18_22 
REMARK    2  A    between atoms: C3_3  and  N1_4 
REMARK    3  A    between atoms: N1_4  and  C4_5 
REMARK    4  A    between atoms: C7_8  and  O1_9 
REMARK    5  A    between atoms: O1_9  and  C8_10 
REMARK    6  A    between atoms: C8_10  and  C9_11 
ROOT
HETATM    1  C18 UNL     1      26.917   7.325  48.644  1.00  0.00     0.050 C 
HETATM    2  C19 UNL     1      26.790   7.876  47.272  1.00  0.00     0.072 C 
HETATM    3  N2  UNL     1      26.848   8.064  49.699  1.00  0.00    -0.179 NA
HETATM    4  C20 UNL     1      26.643   9.443  49.518  1.00  0.00     0.206 C 
HETATM    5  N3  UNL     1      26.464  10.595  49.376  1.00  0.00    -0.170 NA
ENDROOT
BRANCH   1   6
HETATM    6  C2  UNL     1      27.132   5.903  48.900  1.00  0.00    -0.021 C 
HETATM    7  C1  UNL     1      28.335   5.268  48.288  1.00  0.00     0.052 C 
HETATM    8  C3  UNL     1      26.238   5.287  49.658  1.00  0.00     0.096 C 
BRANCH   8   9
HETATM    9  N1  UNL     1      25.054   5.793  50.292  1.00  0.00    -0.368 N 
HETATM   10  H5  UNL     1      24.722   6.611  50.832  1.00  0.00     0.165 HD
BRANCH   9  11
HETATM   11  C4  UNL     1      23.913   4.947  50.189  1.00  0.00     0.012 C 
HETATM   12  C5  UNL     1      23.334   4.757  51.362  1.00  0.00     0.028 C 
HETATM   13  C6  UNL     1      22.153   3.968  51.692  1.00  0.00     0.040 C 
HETATM   14  C7  UNL     1      21.621   2.962  50.980  1.00  0.00     0.090 C 
HETATM   15  C15 UNL     1      22.139   2.448  49.697  1.00  0.00     0.064 C 
HETATM   16 CL1  UNL     1      21.642   0.820  49.238  1.00  0.00    -0.082 Cl
HETATM   17  C16 UNL     1      22.938   3.114  48.875  1.00  0.00     0.006 C 
HETATM   18  C17 UNL     1      23.583   4.445  48.845  1.00  0.00     0.086 C 
BRANCH  14  19
HETATM   19  O1  UNL     1      20.477   2.303  51.440  1.00  0.00    -0.345 OA
BRANCH  19  20
HETATM   20  C8  UNL     1      20.339   2.191  52.837  1.00  0.00     0.214 C 
BRANCH  20  21
HETATM   21  C9  UNL     1      20.945   0.877  53.238  1.00  0.00    -0.031 A 
HETATM   22  C10 UNL     1      20.082  -0.123  53.642  1.00  0.00     0.009 A 
HETATM   23  C11 UNL     1      20.518  -1.371  54.034  1.00  0.00     0.004 A 
HETATM   24  C12 UNL     1      21.873  -1.654  54.030  1.00  0.00     0.042 A 
HETATM   25  C13 UNL     1      22.744  -0.654  53.626  1.00  0.00     0.117 A 
HETATM   26  F1  UNL     1      24.096  -0.802  53.576  1.00  0.00    -0.206 F 
HETATM   27  C14 UNL     1      22.291   0.589  53.237  1.00  0.00     0.051 A 
ENDBRANCH  20  21
ENDBRANCH  19  20
ENDBRANCH  14  19
ENDBRANCH   9  11
ENDBRANCH   8   9
ENDBRANCH   1   6
TORSDOF 6
ENDMDL
MODEL 7
REMARK VINA RESULT:      -7.5      3.043      3.675
REMARK  6 active torsions:
REMARK  status: ('A' for Active; 'I' for Inactive)
REMARK    1  A    between atoms: C2_2  and  C18_22 
REMARK    2  A    between atoms: C3_3  and  N1_4 
REMARK    3  A    between atoms: N1_4  and  C4_5 
REMARK    4  A    between atoms: C7_8  and  O1_9 
REMARK    5  A    between atoms: O1_9  and  C8_10 
REMARK    6  A    between atoms: C8_10  and  C9_11 
ROOT
HETATM    1  C18 UNL     1      29.506   7.512  47.834  1.00  0.00     0.050 C 
HETATM    2  C19 UNL     1      29.642   8.158  46.506  1.00  0.00     0.072 C 
HETATM    3  N2  UNL     1      29.593   8.172  48.940  1.00  0.00    -0.179 NA
HETATM    4  C20 UNL     1      29.826   9.556  48.858  1.00  0.00     0.206 C 
HETATM    5  N3  UNL     1      30.012  10.714  48.798  1.00  0.00    -0.170 NA
ENDROOT
BRANCH   1   6
HETATM    6  C2  UNL     1      29.265   6.080  47.988  1.00  0.00    -0.021 C 
HETATM    7  C1  UNL     1      30.411   5.158  47.738  1.00  0.00     0.052 C 
HETATM    8  C3  UNL     1      28.043   5.711  48.339  1.00  0.00     0.096 C 
BRANCH   8   9
HETATM    9  N1  UNL     1      26.875   6.502  48.603  1.00  0.00    -0.368 N 
HETATM   10  H5  UNL     1      26.423   7.385  48.310  1.00  0.00     0.165 HD
BRANCH   9  11
HETATM   11  C4  UNL     1      25.993   5.958  49.581  1.00  0.00     0.012 C 
HETATM   12  C5  UNL     1      25.985   4.636  49.553  1.00  0.00     0.028 C 
HETATM   13  C6  UNL     1      25.230   3.699  50.378  1.00  0.00     0.040 C 
HETATM   14  C7  UNL     1      24.107   3.947  51.070  1.00  0.00     0.090 C 
HETATM   15  C15 UNL     1      23.403   5.241  51.132  1.00  0.00     0.064 C 
HETATM   16 CL1  UNL     1      21.709   5.198  51.619  1.00  0.00    -0.082 Cl
HETATM   17  C16 UNL     1      23.944   6.420  50.854  1.00  0.00     0.006 C 
HETATM   18  C17 UNL     1      25.268   6.921  50.425  1.00  0.00     0.086 C 
BRANCH  14  19
HETATM   19  O1  UNL     1      23.504   2.931  51.817  1.00  0.00    -0.345 OA
BRANCH  19  20
HETATM   20  C8  UNL     1      24.230   1.730  51.941  1.00  0.00     0.214 C 
BRANCH  20  21
HETATM   21  C9  UNL     1      23.403   0.795  52.776  1.00  0.00    -0.031 A 
HETATM   22  C10 UNL     1      22.040   0.786  52.556  1.00  0.00     0.009 A 
HETATM   23  C11 UNL     1      21.177  -0.028  53.259  1.00  0.00     0.004 A 
HETATM   24  C12 UNL     1      21.677  -0.878  54.230  1.00  0.00     0.042 A 
HETATM   25  C13 UNL     1      23.046  -0.873  54.456  1.00  0.00     0.117 A 
HETATM   26  F1  UNL     1      23.664  -1.658  55.379  1.00  0.00    -0.206 F 
HETATM   27  C14 UNL     1      23.895  -0.052  53.744  1.00  0.00     0.051 A 
ENDBRANCH  20  21
ENDBRANCH  19  20
ENDBRANCH  14  19
ENDBRANCH   9  11
ENDBRANCH   8   9
ENDBRANCH   1   6
TORSDOF 6
ENDMDL
MODEL 8
REMARK VINA RESULT:      -7.4      1.733      2.258
REMARK  6 active torsions:
REMARK  status: ('A' for Active; 'I' for Inactive)
REMARK    1  A    between atoms: C2_2  and  C18_22 
REMARK    2  A    between atoms: C3_3  and  N1_4 
REMARK    3  A    between atoms: N1_4  and  C4_5 
REMARK    4  A    between atoms: C7_8  and  O1_9 
REMARK    5  A    between atoms: O1_9  and  C8_10 
REMARK    6  A    between atoms: C8_10  and  C9_11 
ROOT
HETATM    1  C18 UNL     1      25.570   7.866  47.886  1.00  0.00     0.050 C 
HETATM    2  C19 UNL     1      25.429   8.243  46.458  1.00  0.00     0.072 C 
HETATM    3  N2  UNL     1      24.782   8.313  48.805  1.00  0.00    -0.179 NA
HETATM    4  C20 UNL     1      23.757   9.192  48.414  1.00  0.00     0.206 C 
HETATM    5  N3  UNL     1      22.892   9.919  48.095  1.00  0.00    -0.170 NA
ENDROOT
BRANCH   1   6
HETATM    6  C2  UNL     1      26.614   6.959  48.357  1.00  0.00    -0.021 C 
HETATM    7  C1  UNL     1      28.031   7.393  48.186  1.00  0.00     0.052 C 
HETATM    8  C3  UNL     1      26.218   5.818  48.900  1.00  0.00     0.096 C 
BRANCH   8   9
HETATM    9  N1  UNL     1      24.897   5.301  49.113  1.00  0.00    -0.368 N 
HETATM   10  H5  UNL     1      23.944   5.349  48.713  1.00  0.00     0.165 HD
BRANCH   9  11
HETATM   11  C4  UNL     1      24.772   4.420  50.225  1.00  0.00     0.012 C 
HETATM   12  C5  UNL     1      25.643   3.427  50.165  1.00  0.00     0.028 C 
HETATM   13  C6  UNL     1      25.848   2.320  51.092  1.00  0.00     0.040 C 
HETATM   14  C7  UNL     1      24.974   1.839  51.991  1.00  0.00     0.090 C 
HETATM   15  C15 UNL     1      23.608   2.345  52.218  1.00  0.00     0.064 C 
HETATM   16 CL1  UNL     1      22.480   1.249  53.015  1.00  0.00    -0.082 Cl
HETATM   17  C16 UNL     1      23.172   3.549  51.874  1.00  0.00     0.006 C 
HETATM   18  C17 UNL     1      23.735   4.749  51.216  1.00  0.00     0.086 C 
BRANCH  14  19
HETATM   19  O1  UNL     1      25.331   0.764  52.811  1.00  0.00    -0.345 OA
BRANCH  19  20
HETATM   20  C8  UNL     1      26.226   1.049  53.861  1.00  0.00     0.214 C 
BRANCH  20  21
HETATM   21  C9  UNL     1      27.439   0.188  53.655  1.00  0.00    -0.031 A 
HETATM   22  C10 UNL     1      28.674   0.785  53.812  1.00  0.00     0.009 A 
HETATM   23  C11 UNL     1      29.859   0.099  53.649  1.00  0.00     0.004 A 
HETATM   24  C12 UNL     1      29.832  -1.244  53.313  1.00  0.00     0.042 A 
HETATM   25  C13 UNL     1      28.594  -1.848  53.154  1.00  0.00     0.117 A 
HETATM   26  F1  UNL     1      28.428  -3.158  52.825  1.00  0.00    -0.206 F 
HETATM   27  C14 UNL     1      27.418  -1.147  53.320  1.00  0.00     0.051 A 
ENDBRANCH  20  21
ENDBRANCH  19  20
ENDBRANCH  14  19
ENDBRANCH   9  11
ENDBRANCH   8   9
ENDBRANCH   1   6
TORSDOF 6
ENDMDL
MODEL 9
REMARK VINA RESULT:      -7.4      1.395      2.269
REMARK  6 active torsions:
REMARK  status: ('A' for Active; 'I' for Inactive)
REMARK    1  A    between atoms: C2_2  and  C18_22 
REMARK    2  A    between atoms: C3_3  and  N1_4 
REMARK    3  A    between atoms: N1_4  and  C4_5 
REMARK    4  A    between atoms: C7_8  and  O1_9 
REMARK    5  A    between atoms: O1_9  and  C8_10 
REMARK    6  A    between atoms: C8_10  and  C9_11 
ROOT
HETATM    1  C18 UNL     1      27.123   8.726  48.096  1.00  0.00     0.050 C 
HETATM    2  C19 UNL     1      27.439   9.833  49.032  1.00  0.00     0.072 C 
HETATM    3  N2  UNL     1      28.020   8.159  47.363  1.00  0.00    -0.179 NA
HETATM    4  C20 UNL     1      29.342   8.624  47.472  1.00  0.00     0.206 C 
HETATM    5  N3  UNL     1      30.450   9.002  47.563  1.00  0.00    -0.170 NA
ENDROOT
BRANCH   1   6
HETATM    6  C2  UNL     1      25.771   8.196  47.936  1.00  0.00    -0.021 C 
HETATM    7  C1  UNL     1      24.704   9.152  47.519  1.00  0.00     0.052 C 
HETATM    8  C3  UNL     1      25.599   6.906  48.174  1.00  0.00     0.096 C 
BRANCH   8   9
HETATM    9  N1  UNL     1      26.543   5.902  48.576  1.00  0.00    -0.368 N 
HETATM   10  H5  UNL     1      27.510   5.590  48.382  1.00  0.00     0.165 HD
BRANCH   9  11
HETATM   11  C4  UNL     1      26.068   4.999  49.569  1.00  0.00     0.012 C 
HETATM   12  C5  UNL     1      26.743   3.862  49.563  1.00  0.00     0.028 C 
HETATM   13  C6  UNL     1      26.579   2.685  50.408  1.00  0.00     0.040 C 
HETATM   14  C7  UNL     1      25.488   2.329  51.104  1.00  0.00     0.090 C 
HETATM   15  C15 UNL     1      24.216   3.075  51.150  1.00  0.00     0.064 C 
HETATM   16 CL1  UNL     1      22.787   2.171  51.650  1.00  0.00    -0.082 Cl
HETATM   17  C16 UNL     1      24.072   4.358  50.850  1.00  0.00     0.006 C 
HETATM   18  C17 UNL     1      24.947   5.463  50.403  1.00  0.00     0.086 C 
BRANCH  14  19
HETATM   19  O1  UNL     1      25.495   1.161  51.872  1.00  0.00    -0.345 OA
BRANCH  19  20
HETATM   20  C8  UNL     1      26.022   1.270  53.173  1.00  0.00     0.214 C 
BRANCH  20  21
HETATM   21  C9  UNL     1      27.232   0.383  53.238  1.00  0.00    -0.031 A 
HETATM   22  C10 UNL     1      28.427   0.966  53.613  1.00  0.00     0.009 A 
HETATM   23  C11 UNL     1      29.605   0.256  53.708  1.00  0.00     0.004 A 
HETATM   24  C12 UNL     1      29.613  -1.098  53.421  1.00  0.00     0.042 A 
HETATM   25  C13 UNL     1      28.416  -1.689  53.044  1.00  0.00     0.117 A 
HETATM   26  F1  UNL     1      28.287  -3.008  52.736  1.00  0.00    -0.206 F 
HETATM   27  C14 UNL     1      27.246  -0.964  52.953  1.00  0.00     0.051 A 
ENDBRANCH  20  21
ENDBRANCH  19  20
ENDBRANCH  14  19
ENDBRANCH   9  11
ENDBRANCH   8   9
ENDBRANCH   1   6
TORSDOF 6
ENDMDL
