MODEL 1
REMARK VINA RESULT:      -7.8      0.000      0.000
REMARK  7 active torsions:
REMARK  status: ('A' for Active; 'I' for Inactive)
REMARK    1  A    between atoms: N1_2  and  C2_3 
REMARK    2  A    between atoms: N1_2  and  C3_5 
REMARK    3  A    between atoms: C2_3  and  S1_4 
REMARK    4  A    between atoms: C4_6  and  C5_7 
REMARK       I    between atoms: C5_7  and  N2_9 
REMARK    5  A    between atoms: N2_9  and  C6_10 
REMARK    6  A    between atoms: C13_17  and  S2_18 
REMARK    7  A    between atoms: S2_18  and  C14_19 
ROOT
HETATM    1  C3  UNL     1      23.223   2.807  51.671  1.00  0.00     0.042 A 
HETATM    2  C4  UNL     1      24.428   2.682  51.146  1.00  0.00     0.038 A 
HETATM    3  C12 UNL     1      25.385   1.644  51.543  1.00  0.00     0.066 A 
HETATM    4  C13 UNL     1      24.913   0.712  52.600  1.00  0.00     0.079 A 
HETATM    5  C20 UNL     1      23.561   0.945  53.109  1.00  0.00    -0.009 A 
HETATM    6  C21 UNL     1      22.744   1.891  52.718  1.00  0.00     0.027 A 
ENDROOT
BRANCH   2   7
HETATM    7  C5  UNL     1      24.839   3.624  50.113  1.00  0.00     0.254 C 
HETATM    8  O1  UNL     1      24.442   3.387  48.945  1.00  0.00    -0.268 OA
HETATM    9  N2  UNL     1      25.640   4.766  50.347  1.00  0.00    -0.323 N 
HETATM   10  H7  UNL     1      25.897   4.839  51.354  1.00  0.00     0.169 HD
BRANCH   9  11
HETATM   11  C6  UNL     1      26.098   5.742  49.432  1.00  0.00     0.035 A 
HETATM   12  C7  UNL     1      25.462   6.902  49.060  1.00  0.00     0.029 A 
HETATM   13  C8  UNL     1      25.978   7.800  48.161  1.00  0.00     0.002 A 
HETATM   14  C9  UNL     1      27.184   7.570  47.579  1.00  0.00     0.000 A 
HETATM   15  C10 UNL     1      27.841   6.432  47.922  1.00  0.00     0.002 A 
HETATM   16  C11 UNL     1      27.315   5.535  48.827  1.00  0.00     0.029 A 
ENDBRANCH   9  11
ENDBRANCH   2   7
BRANCH   1  17
HETATM   17  N1  UNL     1      22.266   3.818  51.297  1.00  0.00    -0.376 N 
HETATM   18  C1  UNL     1      21.221   3.701  50.269  1.00  0.00     0.150 C 
BRANCH  17  19
HETATM   19  C2  UNL     1      22.286   5.120  51.973  1.00  0.00     0.193 C 
BRANCH  19  20
HETATM   20  S1  UNL     1      22.009   6.460  50.779  1.00  0.00    -0.163 SA
HETATM   21  H6  UNL     1      21.045   6.136  49.827  1.00  0.00     0.103 HD
ENDBRANCH  19  20
ENDBRANCH  17  19
ENDBRANCH   1  17
BRANCH   4  22
HETATM   22  S2  UNL     1      26.054   0.862  54.026  1.00  0.00    -0.121 SA
BRANCH  22  23
HETATM   23  C14 UNL     1      27.427  -0.238  53.749  1.00  0.00     0.001 A 
HETATM   24  C15 UNL     1      27.073  -1.400  53.078  1.00  0.00     0.018 A 
HETATM   25  C16 UNL     1      28.012  -2.386  52.769  1.00  0.00     0.001 A 
HETATM   26  C17 UNL     1      29.339  -2.170  53.157  1.00  0.00     0.000 A 
HETATM   27  C18 UNL     1      29.659  -0.990  53.829  1.00  0.00     0.001 A 
HETATM   28  C19 UNL     1      28.730  -0.021  54.132  1.00  0.00     0.018 A 
ENDBRANCH  22  23
ENDBRANCH   4  22
TORSDOF 7
ENDMDL
MODEL 2
REMARK VINA RESULT:      -7.7      2.607      5.971
REMARK  7 active torsions:
REMARK  status: ('A' for Active; 'I' for Inactive)
REMARK    1  A    between atoms: N1_2  and  C2_3 
REMARK    2  A    between atoms: N1_2  and  C3_5 
REMARK    3  A    between atoms: C2_3  and  S1_4 
REMARK    4  A    between atoms: C4_6  and  C5_7 
REMARK       I    between atoms: C5_7  and  N2_9 
REMARK    5  A    between atoms: N2_9  and  C6_10 
REMARK    6  A    between atoms: C13_17  and  S2_18 
REMARK    7  A    between atoms: S2_18  and  C14_19 
ROOT
HETATM    1  C3  UNL     1      24.016   0.313  53.443  1.00  0.00     0.042 A 
HETATM    2  C4  UNL     1      23.415   1.381  52.952  1.00  0.00     0.038 A 
HETATM    3  C12 UNL     1      21.965   1.596  53.008  1.00  0.00     0.066 A 
HETATM    4  C13 UNL     1      21.184   0.516  53.665  1.00  0.00     0.079 A 
HETATM    5  C20 UNL     1      21.956  -0.620  54.171  1.00  0.00    -0.009 A 
HETATM    6  C21 UNL     1      23.255  -0.763  54.095  1.00  0.00     0.027 A 
ENDROOT
BRANCH   2   7
HETATM    7  C5  UNL     1      24.230   2.410  52.318  1.00  0.00     0.254 C 
HETATM    8  O1  UNL     1      24.755   3.260  53.079  1.00  0.00    -0.268 OA
HETATM    9  N2  UNL     1      24.458   2.501  50.926  1.00  0.00    -0.323 N 
HETATM   10  H7  UNL     1      23.965   1.737  50.418  1.00  0.00     0.169 HD
BRANCH   9  11
HETATM   11  C6  UNL     1      25.224   3.446  50.203  1.00  0.00     0.035 A 
HETATM   12  C7  UNL     1      26.522   3.317  49.773  1.00  0.00     0.029 A 
HETATM   13  C8  UNL     1      27.194   4.287  49.074  1.00  0.00     0.002 A 
HETATM   14  C9  UNL     1      26.579   5.460  48.768  1.00  0.00     0.000 A 
HETATM   15  C10 UNL     1      25.296   5.622  49.178  1.00  0.00     0.002 A 
HETATM   16  C11 UNL     1      24.628   4.643  49.879  1.00  0.00     0.029 A 
ENDBRANCH   9  11
ENDBRANCH   2   7
BRANCH   1  17
HETATM   17  N1  UNL     1      25.439   0.080  53.399  1.00  0.00    -0.376 N 
HETATM   18  C1  UNL     1      26.222  -0.357  52.234  1.00  0.00     0.150 C 
BRANCH  17  19
HETATM   19  C2  UNL     1      26.243   0.281  54.609  1.00  0.00     0.193 C 
BRANCH  19  20
HETATM   20  S1  UNL     1      28.014   0.208  54.214  1.00  0.00    -0.163 SA
HETATM   21  H6  UNL     1      28.703   1.342  54.641  1.00  0.00     0.103 HD
ENDBRANCH  19  20
ENDBRANCH  17  19
ENDBRANCH   1  17
BRANCH   4  22
HETATM   22  S2  UNL     1      20.003  -0.147  52.432  1.00  0.00    -0.121 SA
BRANCH  22  23
HETATM   23  C14 UNL     1      20.308   0.678  50.883  1.00  0.00     0.001 A 
HETATM   24  C15 UNL     1      19.329   1.604  50.551  1.00  0.00     0.018 A 
HETATM   25  C16 UNL     1      19.393   2.351  49.374  1.00  0.00     0.001 A 
HETATM   26  C17 UNL     1      20.483   2.141  48.523  1.00  0.00     0.000 A 
HETATM   27  C18 UNL     1      21.449   1.202  48.888  1.00  0.00     0.001 A 
HETATM   28  C19 UNL     1      21.382   0.467  50.050  1.00  0.00     0.018 A 
ENDBRANCH  22  23
ENDBRANCH   4  22
TORSDOF 7
ENDMDL
MODEL 3
REMARK VINA RESULT:      -7.7      4.220      7.878
REMARK  7 active torsions:
REMARK  status: ('A' for Active; 'I' for Inactive)
REMARK    1  A    between atoms: N1_2  and  C2_3 
REMARK    2  A    between atoms: N1_2  and  C3_5 
REMARK    3  A    between atoms: C2_3  and  S1_4 
REMARK    4  A    between atoms: C4_6  and  C5_7 
REMARK       I    between atoms: C5_7  and  N2_9 
REMARK    5  A    between atoms: N2_9  and  C6_10 
REMARK    6  A    between atoms: C13_17  and  S2_18 
REMARK    7  A    between atoms: S2_18  and  C14_19 
ROOT
HETATM    1  C3  UNL     1      23.213   1.273  52.432  1.00  0.00     0.042 A 
HETATM    2  C4  UNL     1      23.389   0.057  52.913  1.00  0.00     0.038 A 
HETATM    3  C12 UNL     1      22.321  -0.943  53.009  1.00  0.00     0.066 A 
HETATM    4  C13 UNL     1      20.988  -0.502  52.521  1.00  0.00     0.079 A 
HETATM    5  C20 UNL     1      20.910   0.866  52.009  1.00  0.00    -0.009 A 
HETATM    6  C21 UNL     1      21.899   1.722  51.946  1.00  0.00     0.027 A 
ENDROOT
BRANCH   2   7
HETATM    7  C5  UNL     1      24.717  -0.322  53.378  1.00  0.00     0.254 C 
HETATM    8  O1  UNL     1      24.849  -0.513  54.612  1.00  0.00    -0.268 OA
HETATM    9  N2  UNL     1      25.841  -0.485  52.535  1.00  0.00    -0.323 N 
HETATM   10  H7  UNL     1      25.590  -0.297  51.541  1.00  0.00     0.169 HD
BRANCH   9  11
HETATM   11  C6  UNL     1      27.167  -0.847  52.869  1.00  0.00     0.035 A 
HETATM   12  C7  UNL     1      27.728  -2.101  52.824  1.00  0.00     0.029 A 
HETATM   13  C8  UNL     1      29.029  -2.367  53.166  1.00  0.00     0.002 A 
HETATM   14  C9  UNL     1      29.847  -1.364  53.581  1.00  0.00     0.000 A 
HETATM   15  C10 UNL     1      29.325  -0.112  53.639  1.00  0.00     0.002 A 
HETATM   16  C11 UNL     1      28.017   0.147  53.292  1.00  0.00     0.029 A 
ENDBRANCH   9  11
ENDBRANCH   2   7
BRANCH   1  17
HETATM   17  N1  UNL     1      24.247   2.272  52.328  1.00  0.00    -0.376 N 
HETATM   18  C1  UNL     1      24.932   2.946  53.442  1.00  0.00     0.150 C 
BRANCH  17  19
HETATM   19  C2  UNL     1      24.707   2.705  51.004  1.00  0.00     0.193 C 
BRANCH  19  20
HETATM   20  S1  UNL     1      26.521   2.747  50.945  1.00  0.00    -0.163 SA
HETATM   21  H6  UNL     1      27.005   3.754  50.111  1.00  0.00     0.103 HD
ENDBRANCH  19  20
ENDBRANCH  17  19
ENDBRANCH   1  17
BRANCH   4  22
HETATM   22  S2  UNL     1      19.815  -0.617  53.923  1.00  0.00    -0.121 SA
BRANCH  22  23
HETATM   23  C14 UNL     1      18.295  -1.315  53.312  1.00  0.00     0.001 A 
HETATM   24  C15 UNL     1      18.067  -2.609  53.758  1.00  0.00     0.018 A 
HETATM   25  C16 UNL     1      16.926  -3.324  53.387  1.00  0.00     0.001 A 
HETATM   26  C17 UNL     1      16.006  -2.695  52.541  1.00  0.00     0.000 A 
HETATM   27  C18 UNL     1      16.268  -1.393  52.112  1.00  0.00     0.001 A 
HETATM   28  C19 UNL     1      17.393  -0.692  52.481  1.00  0.00     0.018 A 
ENDBRANCH  22  23
ENDBRANCH   4  22
TORSDOF 7
ENDMDL
MODEL 4
REMARK VINA RESULT:      -7.5      3.302      6.458
REMARK  7 active torsions:
REMARK  status: ('A' for Active; 'I' for Inactive)
REMARK    1  A    between atoms: N1_2  and  C2_3 
REMARK    2  A    between atoms: N1_2  and  C3_5 
REMARK    3  A    between atoms: C2_3  and  S1_4 
REMARK    4  A    between atoms: C4_6  and  C5_7 
REMARK       I    between atoms: C5_7  and  N2_9 
REMARK    5  A    between atoms: N2_9  and  C6_10 
REMARK    6  A    between atoms: C13_17  and  S2_18 
REMARK    7  A    between atoms: S2_18  and  C14_19 
ROOT
HETATM    1  C3  UNL     1      22.943   1.941  51.015  1.00  0.00     0.042 A 
HETATM    2  C4  UNL     1      22.408   1.414  52.101  1.00  0.00     0.038 A 
HETATM    3  C12 UNL     1      23.189   0.973  53.261  1.00  0.00     0.066 A 
HETATM    4  C13 UNL     1      24.660   1.156  53.147  1.00  0.00     0.079 A 
HETATM    5  C20 UNL     1      25.140   1.750  51.899  1.00  0.00    -0.009 A 
HETATM    6  C21 UNL     1      24.397   2.128  50.890  1.00  0.00     0.027 A 
ENDROOT
BRANCH   2   7
HETATM    7  C5  UNL     1      20.960   1.258  52.159  1.00  0.00     0.254 C 
HETATM    8  O1  UNL     1      20.306   2.235  52.600  1.00  0.00    -0.268 OA
HETATM    9  N2  UNL     1      20.266   0.095  51.754  1.00  0.00    -0.323 N 
HETATM   10  H7  UNL     1      20.929  -0.633  51.411  1.00  0.00     0.169 HD
BRANCH   9  11
HETATM   11  C6  UNL     1      18.876  -0.169  51.764  1.00  0.00     0.035 A 
HETATM   12  C7  UNL     1      17.952   0.186  50.812  1.00  0.00     0.029 A 
HETATM   13  C8  UNL     1      16.616  -0.111  50.899  1.00  0.00     0.002 A 
HETATM   14  C9  UNL     1      16.134  -0.794  51.971  1.00  0.00     0.000 A 
HETATM   15  C10 UNL     1      17.020  -1.160  52.932  1.00  0.00     0.002 A 
HETATM   16  C11 UNL     1      18.361  -0.858  52.836  1.00  0.00     0.029 A 
ENDBRANCH   9  11
ENDBRANCH   2   7
BRANCH   1  17
HETATM   17  N1  UNL     1      22.195   2.382  49.864  1.00  0.00    -0.376 N 
HETATM   18  C1  UNL     1      21.739   1.548  48.742  1.00  0.00     0.150 C 
BRANCH  17  19
HETATM   19  C2  UNL     1      21.821   3.794  49.739  1.00  0.00     0.193 C 
BRANCH  19  20
HETATM   20  S1  UNL     1      22.801   4.599  48.440  1.00  0.00    -0.163 SA
HETATM   21  H6  UNL     1      22.023   4.999  47.355  1.00  0.00     0.103 HD
ENDBRANCH  19  20
ENDBRANCH  17  19
ENDBRANCH   1  17
BRANCH   4  22
HETATM   22  S2  UNL     1      25.439  -0.496  53.288  1.00  0.00    -0.121 SA
BRANCH  22  23
HETATM   23  C14 UNL     1      27.191  -0.259  53.507  1.00  0.00     0.001 A 
HETATM   24  C15 UNL     1      27.946  -1.353  53.112  1.00  0.00     0.018 A 
HETATM   25  C16 UNL     1      29.340  -1.358  53.206  1.00  0.00     0.001 A 
HETATM   26  C17 UNL     1      29.964  -0.215  53.718  1.00  0.00     0.000 A 
HETATM   27  C18 UNL     1      29.173   0.867  54.106  1.00  0.00     0.001 A 
HETATM   28  C19 UNL     1      27.800   0.867  54.011  1.00  0.00     0.018 A 
ENDBRANCH  22  23
ENDBRANCH   4  22
TORSDOF 7
ENDMDL
MODEL 5
REMARK VINA RESULT:      -7.4      1.666      2.370
REMARK  7 active torsions:
REMARK  status: ('A' for Active; 'I' for Inactive)
REMARK    1  A    between atoms: N1_2  and  C2_3 
REMARK    2  A    between atoms: N1_2  and  C3_5 
REMARK    3  A    between atoms: C2_3  and  S1_4 
REMARK    4  A    between atoms: C4_6  and  C5_7 
REMARK       I    between atoms: C5_7  and  N2_9 
REMARK    5  A    between atoms: N2_9  and  C6_10 
REMARK    6  A    between atoms: C13_17  and  S2_18 
REMARK    7  A    between atoms: S2_18  and  C14_19 
ROOT
HETATM    1  C3  UNL     1      21.668   3.360  51.184  1.00  0.00     0.042 A 
HETATM    2  C4  UNL     1      22.731   2.723  50.730  1.00  0.00     0.038 A 
HETATM    3  C12 UNL     1      23.037   1.324  51.043  1.00  0.00     0.066 A 
HETATM    4  C13 UNL     1      22.057   0.638  51.926  1.00  0.00     0.079 A 
HETATM    5  C20 UNL     1      20.918   1.441  52.369  1.00  0.00    -0.009 A 
HETATM    6  C21 UNL     1      20.691   2.693  52.059  1.00  0.00     0.027 A 
ENDROOT
BRANCH   2   7
HETATM    7  C5  UNL     1      23.659   3.444  49.867  1.00  0.00     0.254 C 
HETATM    8  O1  UNL     1      23.425   3.408  48.634  1.00  0.00    -0.268 OA
HETATM    9  N2  UNL     1      24.782   4.167  50.331  1.00  0.00    -0.323 N 
HETATM   10  H7  UNL     1      24.856   4.112  51.369  1.00  0.00     0.169 HD
BRANCH   9  11
HETATM   11  C6  UNL     1      25.743   4.898  49.595  1.00  0.00     0.035 A 
HETATM   12  C7  UNL     1      25.647   6.195  49.152  1.00  0.00     0.029 A 
HETATM   13  C8  UNL     1      26.631   6.833  48.441  1.00  0.00     0.002 A 
HETATM   14  C9  UNL     1      27.785   6.184  48.134  1.00  0.00     0.000 A 
HETATM   15  C10 UNL     1      27.914   4.900  48.556  1.00  0.00     0.002 A 
HETATM   16  C11 UNL     1      26.920   4.266  49.270  1.00  0.00     0.029 A 
ENDBRANCH   9  11
ENDBRANCH   2   7
BRANCH   1  17
HETATM   17  N1  UNL     1      21.347   4.735  50.891  1.00  0.00    -0.376 N 
HETATM   18  C1  UNL     1      21.961   5.928  51.492  1.00  0.00     0.150 C 
BRANCH  17  19
HETATM   19  C2  UNL     1      20.310   5.041  49.899  1.00  0.00     0.193 C 
BRANCH  19  20
HETATM   20  S1  UNL     1      20.963   6.149  48.618  1.00  0.00    -0.163 SA
HETATM   21  H6  UNL     1      20.229   7.328  48.506  1.00  0.00     0.103 HD
ENDBRANCH  19  20
ENDBRANCH  17  19
ENDBRANCH   1  17
BRANCH   4  22
HETATM   22  S2  UNL     1      22.949   0.097  53.432  1.00  0.00    -0.121 SA
BRANCH  22  23
HETATM   23  C14 UNL     1      24.665   0.535  53.241  1.00  0.00     0.001 A 
HETATM   24  C15 UNL     1      25.473  -0.544  52.911  1.00  0.00     0.018 A 
HETATM   25  C16 UNL     1      26.849  -0.401  52.719  1.00  0.00     0.001 A 
HETATM   26  C17 UNL     1      27.400   0.876  52.869  1.00  0.00     0.000 A 
HETATM   27  C18 UNL     1      26.558   1.938  53.200  1.00  0.00     0.001 A 
HETATM   28  C19 UNL     1      25.202   1.792  53.389  1.00  0.00     0.018 A 
ENDBRANCH  22  23
ENDBRANCH   4  22
TORSDOF 7
ENDMDL
MODEL 6
REMARK VINA RESULT:      -7.2      3.444      6.422
REMARK  7 active torsions:
REMARK  status: ('A' for Active; 'I' for Inactive)
REMARK    1  A    between atoms: N1_2  and  C2_3 
REMARK    2  A    between atoms: N1_2  and  C3_5 
REMARK    3  A    between atoms: C2_3  and  S1_4 
REMARK    4  A    between atoms: C4_6  and  C5_7 
REMARK       I    between atoms: C5_7  and  N2_9 
REMARK    5  A    between atoms: N2_9  and  C6_10 
REMARK    6  A    between atoms: C13_17  and  S2_18 
REMARK    7  A    between atoms: S2_18  and  C14_19 
ROOT
HETATM    1  C3  UNL     1      24.294   0.770  52.827  1.00  0.00     0.042 A 
HETATM    2  C4  UNL     1      23.721   1.813  52.256  1.00  0.00     0.038 A 
HETATM    3  C12 UNL     1      22.269   1.969  52.115  1.00  0.00     0.066 A 
HETATM    4  C13 UNL     1      21.452   0.856  52.667  1.00  0.00     0.079 A 
HETATM    5  C20 UNL     1      22.194  -0.247  53.277  1.00  0.00    -0.009 A 
HETATM    6  C21 UNL     1      23.496  -0.337  53.377  1.00  0.00     0.027 A 
ENDROOT
BRANCH   2   7
HETATM    7  C5  UNL     1      24.571   2.875  51.732  1.00  0.00     0.254 C 
HETATM    8  O1  UNL     1      25.008   3.708  52.564  1.00  0.00    -0.268 OA
HETATM    9  N2  UNL     1      24.924   3.016  50.370  1.00  0.00    -0.323 N 
HETATM   10  H7  UNL     1      24.493   2.261  49.795  1.00  0.00     0.169 HD
BRANCH   9  11
HETATM   11  C6  UNL     1      25.734   3.996  49.751  1.00  0.00     0.035 A 
HETATM   12  C7  UNL     1      27.003   3.837  49.250  1.00  0.00     0.029 A 
HETATM   13  C8  UNL     1      27.723   4.845  48.662  1.00  0.00     0.002 A 
HETATM   14  C9  UNL     1      27.190   6.090  48.547  1.00  0.00     0.000 A 
HETATM   15  C10 UNL     1      25.937   6.284  49.032  1.00  0.00     0.002 A 
HETATM   16  C11 UNL     1      25.220   5.266  49.621  1.00  0.00     0.029 A 
ENDBRANCH   9  11
ENDBRANCH   2   7
BRANCH   1  17
HETATM   17  N1  UNL     1      25.717   0.596  52.977  1.00  0.00    -0.376 N 
HETATM   18  C1  UNL     1      26.647   0.062  51.970  1.00  0.00     0.150 C 
BRANCH  17  19
HETATM   19  C2  UNL     1      26.365   0.971  54.238  1.00  0.00     0.193 C 
BRANCH  19  20
HETATM   20  S1  UNL     1      28.019   0.230  54.347  1.00  0.00    -0.163 SA
HETATM   21  H6  UNL     1      29.026   1.113  53.964  1.00  0.00     0.103 HD
ENDBRANCH  19  20
ENDBRANCH  17  19
ENDBRANCH   1  17
BRANCH   4  22
HETATM   22  S2  UNL     1      20.475   0.147  51.289  1.00  0.00    -0.121 SA
BRANCH  22  23
HETATM   23  C14 UNL     1      18.885  -0.332  51.934  1.00  0.00     0.001 A 
HETATM   24  C15 UNL     1      17.823   0.103  51.154  1.00  0.00     0.018 A 
HETATM   25  C16 UNL     1      16.498  -0.174  51.496  1.00  0.00     0.001 A 
HETATM   26  C17 UNL     1      16.264  -0.913  52.661  1.00  0.00     0.000 A 
HETATM   27  C18 UNL     1      17.356  -1.334  53.421  1.00  0.00     0.001 A 
HETATM   28  C19 UNL     1      18.660  -1.059  53.080  1.00  0.00     0.018 A 
ENDBRANCH  22  23
ENDBRANCH   4  22
TORSDOF 7
ENDMDL
MODEL 7
REMARK VINA RESULT:      -7.2      1.474      2.225
REMARK  7 active torsions:
REMARK  status: ('A' for Active; 'I' for Inactive)
REMARK    1  A    between atoms: N1_2  and  C2_3 
REMARK    2  A    between atoms: N1_2  and  C3_5 
REMARK    3  A    between atoms: C2_3  and  S1_4 
REMARK    4  A    between atoms: C4_6  and  C5_7 
REMARK       I    between atoms: C5_7  and  N2_9 
REMARK    5  A    between atoms: N2_9  and  C6_10 
REMARK    6  A    between atoms: C13_17  and  S2_18 
REMARK    7  A    between atoms: S2_18  and  C14_19 
ROOT
HETATM    1  C3  UNL     1      24.037   3.779  50.701  1.00  0.00     0.042 A 
HETATM    2  C4  UNL     1      25.306   4.036  50.442  1.00  0.00     0.038 A 
HETATM    3  C12 UNL     1      26.405   3.122  50.768  1.00  0.00     0.066 A 
HETATM    4  C13 UNL     1      26.003   1.850  51.425  1.00  0.00     0.079 A 
HETATM    5  C20 UNL     1      24.571   1.673  51.664  1.00  0.00    -0.009 A 
HETATM    6  C21 UNL     1      23.627   2.525  51.352  1.00  0.00     0.027 A 
ENDROOT
BRANCH   2   7
HETATM    7  C5  UNL     1      25.643   5.298  49.796  1.00  0.00     0.254 C 
HETATM    8  O1  UNL     1      25.993   5.238  48.592  1.00  0.00    -0.268 OA
HETATM    9  N2  UNL     1      25.597   6.560  50.435  1.00  0.00    -0.323 N 
HETATM   10  H7  UNL     1      25.292   6.462  51.426  1.00  0.00     0.169 HD
BRANCH   9  11
HETATM   11  C6  UNL     1      25.898   7.839  49.914  1.00  0.00     0.035 A 
HETATM   12  C7  UNL     1      27.070   8.543  50.052  1.00  0.00     0.029 A 
HETATM   13  C8  UNL     1      27.280   9.786  49.511  1.00  0.00     0.002 A 
HETATM   14  C9  UNL     1      26.302  10.395  48.790  1.00  0.00     0.000 A 
HETATM   15  C10 UNL     1      25.130   9.727  48.634  1.00  0.00     0.002 A 
HETATM   16  C11 UNL     1      24.926   8.479  49.180  1.00  0.00     0.029 A 
ENDBRANCH   9  11
ENDBRANCH   2   7
BRANCH   1  17
HETATM   17  N1  UNL     1      22.941   4.663  50.391  1.00  0.00    -0.376 N 
HETATM   18  C1  UNL     1      22.312   4.852  49.075  1.00  0.00     0.150 C 
BRANCH  17  19
HETATM   19  C2  UNL     1      22.349   5.485  51.452  1.00  0.00     0.193 C 
BRANCH  19  20
HETATM   20  S1  UNL     1      21.709   7.040  50.769  1.00  0.00    -0.163 SA
HETATM   21  H6  UNL     1      22.724   7.893  50.341  1.00  0.00     0.103 HD
ENDBRANCH  19  20
ENDBRANCH  17  19
ENDBRANCH   1  17
BRANCH   4  22
HETATM   22  S2  UNL     1      26.830   1.783  53.059  1.00  0.00    -0.121 SA
BRANCH  22  23
HETATM   23  C14 UNL     1      27.755   0.264  53.144  1.00  0.00     0.001 A 
HETATM   24  C15 UNL     1      29.067   0.442  53.558  1.00  0.00     0.018 A 
HETATM   25  C16 UNL     1      29.950  -0.632  53.687  1.00  0.00     0.001 A 
HETATM   26  C17 UNL     1      29.473  -1.911  53.383  1.00  0.00     0.000 A 
HETATM   27  C18 UNL     1      28.148  -2.054  52.969  1.00  0.00     0.001 A 
HETATM   28  C19 UNL     1      27.281  -0.992  52.844  1.00  0.00     0.018 A 
ENDBRANCH  22  23
ENDBRANCH   4  22
TORSDOF 7
ENDMDL
MODEL 8
REMARK VINA RESULT:      -7.2      3.508      6.796
REMARK  7 active torsions:
REMARK  status: ('A' for Active; 'I' for Inactive)
REMARK    1  A    between atoms: N1_2  and  C2_3 
REMARK    2  A    between atoms: N1_2  and  C3_5 
REMARK    3  A    between atoms: C2_3  and  S1_4 
REMARK    4  A    between atoms: C4_6  and  C5_7 
REMARK       I    between atoms: C5_7  and  N2_9 
REMARK    5  A    between atoms: N2_9  and  C6_10 
REMARK    6  A    between atoms: C13_17  and  S2_18 
REMARK    7  A    between atoms: S2_18  and  C14_19 
ROOT
HETATM    1  C3  UNL     1      21.904   3.016  51.536  1.00  0.00     0.042 A 
HETATM    2  C4  UNL     1      22.216   1.812  51.979  1.00  0.00     0.038 A 
HETATM    3  C12 UNL     1      23.530   1.463  52.529  1.00  0.00     0.066 A 
HETATM    4  C13 UNL     1      24.522   2.569  52.562  1.00  0.00     0.079 A 
HETATM    5  C20 UNL     1      24.066   3.859  52.045  1.00  0.00    -0.009 A 
HETATM    6  C21 UNL     1      22.877   4.119  51.563  1.00  0.00     0.027 A 
ENDROOT
BRANCH   2   7
HETATM    7  C5  UNL     1      21.204   0.766  51.923  1.00  0.00     0.254 C 
HETATM    8  O1  UNL     1      21.255  -0.015  50.941  1.00  0.00    -0.268 OA
HETATM    9  N2  UNL     1      20.189   0.583  52.892  1.00  0.00    -0.323 N 
HETATM   10  H7  UNL     1      20.265   1.298  53.647  1.00  0.00     0.169 HD
BRANCH   9  11
HETATM   11  C6  UNL     1      19.163  -0.388  52.943  1.00  0.00     0.035 A 
HETATM   12  C7  UNL     1      19.148  -1.551  53.674  1.00  0.00     0.029 A 
HETATM   13  C8  UNL     1      18.106  -2.443  53.666  1.00  0.00     0.002 A 
HETATM   14  C9  UNL     1      17.005  -2.203  52.906  1.00  0.00     0.000 A 
HETATM   15  C10 UNL     1      16.985  -1.063  52.170  1.00  0.00     0.002 A 
HETATM   16  C11 UNL     1      18.036  -0.172  52.184  1.00  0.00     0.029 A 
ENDBRANCH   9  11
ENDBRANCH   2   7
BRANCH   1  17
HETATM   17  N1  UNL     1      20.620   3.382  50.992  1.00  0.00    -0.376 N 
HETATM   18  C1  UNL     1      19.431   3.800  51.750  1.00  0.00     0.150 C 
BRANCH  17  19
HETATM   19  C2  UNL     1      20.414   3.356  49.540  1.00  0.00     0.193 C 
BRANCH  19  20
HETATM   20  S1  UNL     1      18.821   2.582  49.138  1.00  0.00    -0.163 SA
HETATM   21  H6  UNL     1      17.824   2.906  50.055  1.00  0.00     0.103 HD
ENDBRANCH  19  20
ENDBRANCH  17  19
ENDBRANCH   1  17
BRANCH   4  22
HETATM   22  S2  UNL     1      25.956   2.060  51.542  1.00  0.00    -0.121 SA
BRANCH  22  23
HETATM   23  C14 UNL     1      27.226   1.465  52.639  1.00  0.00     0.001 A 
HETATM   24  C15 UNL     1      27.273   0.080  52.724  1.00  0.00     0.018 A 
HETATM   25  C16 UNL     1      28.203  -0.575  53.535  1.00  0.00     0.001 A 
HETATM   26  C17 UNL     1      29.099   0.209  54.269  1.00  0.00     0.000 A 
HETATM   27  C18 UNL     1      29.024   1.598  54.158  1.00  0.00     0.001 A 
HETATM   28  C19 UNL     1      28.106   2.240  53.358  1.00  0.00     0.018 A 
ENDBRANCH  22  23
ENDBRANCH   4  22
TORSDOF 7
ENDMDL
MODEL 9
REMARK VINA RESULT:      -7.2      3.345      6.845
REMARK  7 active torsions:
REMARK  status: ('A' for Active; 'I' for Inactive)
REMARK    1  A    between atoms: N1_2  and  C2_3 
REMARK    2  A    between atoms: N1_2  and  C3_5 
REMARK    3  A    between atoms: C2_3  and  S1_4 
REMARK    4  A    between atoms: C4_6  and  C5_7 
REMARK       I    between atoms: C5_7  and  N2_9 
REMARK    5  A    between atoms: N2_9  and  C6_10 
REMARK    6  A    between atoms: C13_17  and  S2_18 
REMARK    7  A    between atoms: S2_18  and  C14_19 
ROOT
HETATM    1  C3  UNL     1      23.689   2.942  50.242  1.00  0.00     0.042 A 
HETATM    2  C4  UNL     1      23.577   2.109  51.259  1.00  0.00     0.038 A 
HETATM    3  C12 UNL     1      22.437   1.206  51.450  1.00  0.00     0.066 A 
HETATM    4  C13 UNL     1      21.382   1.281  50.405  1.00  0.00     0.079 A 
HETATM    5  C20 UNL     1      21.612   2.240  49.325  1.00  0.00    -0.009 A 
HETATM    6  C21 UNL     1      22.652   3.026  49.202  1.00  0.00     0.027 A 
ENDROOT
BRANCH   2   7
HETATM    7  C5  UNL     1      24.641   2.077  52.254  1.00  0.00     0.254 C 
HETATM    8  O1  UNL     1      24.488   2.804  53.267  1.00  0.00    -0.268 OA
HETATM    9  N2  UNL     1      25.811   1.289  52.147  1.00  0.00    -0.323 N 
HETATM   10  H7  UNL     1      25.807   0.739  51.262  1.00  0.00     0.169 HD
BRANCH   9  11
HETATM   11  C6  UNL     1      26.901   1.178  53.040  1.00  0.00     0.035 A 
HETATM   12  C7  UNL     1      27.135   0.178  53.953  1.00  0.00     0.029 A 
HETATM   13  C8  UNL     1      28.224   0.146  54.787  1.00  0.00     0.002 A 
HETATM   14  C9  UNL     1      29.150   1.139  54.742  1.00  0.00     0.000 A 
HETATM   15  C10 UNL     1      28.951   2.144  53.851  1.00  0.00     0.002 A 
HETATM   16  C11 UNL     1      27.854   2.169  53.018  1.00  0.00     0.029 A 
ENDBRANCH   9  11
ENDBRANCH   2   7
BRANCH   1  17
HETATM   17  N1  UNL     1      24.799   3.838  50.035  1.00  0.00    -0.376 N 
HETATM   18  C1  UNL     1      24.847   5.269  50.370  1.00  0.00     0.150 C 
BRANCH  17  19
HETATM   19  C2  UNL     1      26.037   3.332  49.431  1.00  0.00     0.193 C 
BRANCH  19  20
HETATM   20  S1  UNL     1      27.133   4.707  48.982  1.00  0.00    -0.163 SA
HETATM   21  H6  UNL     1      27.864   5.184  50.069  1.00  0.00     0.103 HD
ENDBRANCH  19  20
ENDBRANCH  17  19
ENDBRANCH   1  17
BRANCH   4  22
HETATM   22  S2  UNL     1      19.818   1.765  51.227  1.00  0.00    -0.121 SA
BRANCH  22  23
HETATM   23  C14 UNL     1      19.212   0.354  52.128  1.00  0.00     0.001 A 
HETATM   24  C15 UNL     1      17.939  -0.040  51.740  1.00  0.00     0.018 A 
HETATM   25  C16 UNL     1      17.293  -1.128  52.331  1.00  0.00     0.001 A 
HETATM   26  C17 UNL     1      17.971  -1.822  53.339  1.00  0.00     0.000 A 
HETATM   27  C18 UNL     1      19.250  -1.399  53.704  1.00  0.00     0.001 A 
HETATM   28  C19 UNL     1      19.882  -0.326  53.118  1.00  0.00     0.018 A 
ENDBRANCH  22  23
ENDBRANCH   4  22
TORSDOF 7
ENDMDL
