MODEL 1
REMARK VINA RESULT:      -8.3      0.000      0.000
REMARK  3 active torsions:
REMARK  status: ('A' for Active; 'I' for Inactive)
REMARK    1  A    between atoms: C7_7  and  N1_8 
REMARK    2  A    between atoms: N1_8  and  C8_9 
REMARK    3  A    between atoms: C16_22  and  N6_23 
ROOT
HETATM    1  C1  UNL     1      17.038   2.090  48.992  1.00  0.00     0.018 C 
HETATM    2  C2  UNL     1      18.016   2.280  49.681  1.00  0.00    -0.078 C 
HETATM    3  C3  UNL     1      19.167   2.498  50.519  1.00  0.00     0.019 A 
HETATM    4  C4  UNL     1      19.357   3.747  51.075  1.00  0.00     0.021 A 
HETATM    5  C5  UNL     1      20.487   3.903  51.877  1.00  0.00     0.004 A 
HETATM    6  C6  UNL     1      21.345   2.839  52.083  1.00  0.00     0.029 A 
HETATM    7  C7  UNL     1      21.140   1.600  51.524  1.00  0.00     0.035 A 
HETATM    8  C19 UNL     1      20.033   1.455  50.739  1.00  0.00     0.050 A 
ENDROOT
BRANCH   7   9
HETATM    9  N1  UNL     1      21.986   0.471  51.701  1.00  0.00    -0.339 N 
HETATM   10  H5  UNL     1      22.538   0.058  50.924  1.00  0.00     0.167 HD
BRANCH   9  11
HETATM   11  C8  UNL     1      22.192  -0.238  52.911  1.00  0.00     0.158 A 
HETATM   12  N2  UNL     1      21.119  -0.850  53.359  1.00  0.00    -0.220 NA
HETATM   13  C9  UNL     1      21.189  -1.599  54.566  1.00  0.00     0.257 A 
HETATM   14  N3  UNL     1      22.311  -1.661  55.193  1.00  0.00    -0.167 NA
HETATM   15  N4  UNL     1      23.451  -1.021  54.734  1.00  0.00    -0.273 N 
HETATM   16  C10 UNL     1      23.503  -0.243  53.540  1.00  0.00     0.103 A 
HETATM   17  H7  UNL     1      24.270  -1.126  55.333  1.00  0.00     0.189 HD
HETATM   18  C11 UNL     1      24.548   0.436  53.082  1.00  0.00    -0.007 C 
HETATM   19  C12 UNL     1      24.668   1.334  51.888  1.00  0.00     0.139 C 
HETATM   20  C14 UNL     1      25.802   0.226  53.909  1.00  0.00    -0.030 C 
HETATM   21  S1  UNL     1      26.237   2.310  52.132  1.00  0.00    -0.049 SA
HETATM   22  N5  UNL     1      27.233   1.323  53.287  1.00  0.00    -0.331 N 
HETATM   23  C13 UNL     1      26.513   1.222  54.552  1.00  0.00     0.106 C 
HETATM   24  C18 UNL     1      28.526   0.761  52.843  1.00  0.00     0.138 C 
HETATM   25  C17 UNL     1      28.638  -0.669  53.372  1.00  0.00     0.045 C 
HETATM   26  C16 UNL     1      27.412  -1.408  52.954  1.00  0.00     0.079 C 
HETATM   27  C15 UNL     1      26.221  -1.238  53.930  1.00  0.00     0.065 C 
BRANCH  26  28
HETATM   28  N6  UNL     1      27.714  -2.829  52.989  1.00  0.00    -0.426 N 
HETATM   29  H14 UNL     1      26.962  -3.420  53.359  1.00  0.00     0.150 HD
HETATM   30  H15 UNL     1      28.245  -3.179  52.185  1.00  0.00     0.150 HD
ENDBRANCH  26  28
ENDBRANCH   9  11
ENDBRANCH   7   9
TORSDOF 3
ENDMDL
MODEL 2
REMARK VINA RESULT:      -8.2      2.581      3.593
REMARK  3 active torsions:
REMARK  status: ('A' for Active; 'I' for Inactive)
REMARK    1  A    between atoms: C7_7  and  N1_8 
REMARK    2  A    between atoms: N1_8  and  C8_9 
REMARK    3  A    between atoms: C16_22  and  N6_23 
ROOT
HETATM    1  C1  UNL     1      26.382   6.545  48.871  1.00  0.00     0.018 C 
HETATM    2  C2  UNL     1      25.613   5.943  49.588  1.00  0.00    -0.078 C 
HETATM    3  C3  UNL     1      24.683   5.226  50.422  1.00  0.00     0.019 A 
HETATM    4  C4  UNL     1      23.797   5.943  51.198  1.00  0.00     0.021 A 
HETATM    5  C5  UNL     1      22.920   5.199  51.987  1.00  0.00     0.004 A 
HETATM    6  C6  UNL     1      22.966   3.817  51.963  1.00  0.00     0.029 A 
HETATM    7  C7  UNL     1      23.855   3.117  51.182  1.00  0.00     0.035 A 
HETATM    8  C19 UNL     1      24.710   3.852  50.414  1.00  0.00     0.050 A 
ENDROOT
BRANCH   7   9
HETATM    9  N1  UNL     1      23.947   1.700  51.116  1.00  0.00    -0.339 N 
HETATM   10  H5  UNL     1      24.228   1.198  50.251  1.00  0.00     0.167 HD
BRANCH   9  11
HETATM   11  C8  UNL     1      23.675   0.794  52.171  1.00  0.00     0.158 A 
HETATM   12  N2  UNL     1      22.412   0.441  52.257  1.00  0.00    -0.220 NA
HETATM   13  C9  UNL     1      22.005  -0.466  53.274  1.00  0.00     0.257 A 
HETATM   14  N3  UNL     1      22.888  -0.923  54.089  1.00  0.00    -0.167 NA
HETATM   15  N4  UNL     1      24.224  -0.560  54.012  1.00  0.00    -0.273 N 
HETATM   16  C10 UNL     1      24.750   0.339  53.038  1.00  0.00     0.103 A 
HETATM   17  H7  UNL     1      24.820  -0.971  54.730  1.00  0.00     0.189 HD
HETATM   18  C11 UNL     1      26.005   0.766  52.950  1.00  0.00    -0.007 C 
HETATM   19  C12 UNL     1      26.623   1.760  52.014  1.00  0.00     0.139 C 
HETATM   20  C14 UNL     1      26.929   0.102  53.953  1.00  0.00    -0.030 C 
HETATM   21  S1  UNL     1      28.264   2.223  52.766  1.00  0.00    -0.049 SA
HETATM   22  N5  UNL     1      28.684   0.844  53.872  1.00  0.00    -0.331 N 
HETATM   23  C13 UNL     1      27.670   0.761  54.917  1.00  0.00     0.106 C 
HETATM   24  C18 UNL     1      29.880   0.020  53.594  1.00  0.00     0.138 C 
HETATM   25  C17 UNL     1      29.521  -1.446  53.830  1.00  0.00     0.045 C 
HETATM   26  C16 UNL     1      28.301  -1.753  53.031  1.00  0.00     0.079 C 
HETATM   27  C15 UNL     1      26.977  -1.407  53.758  1.00  0.00     0.065 C 
BRANCH  26  28
HETATM   28  N6  UNL     1      28.246  -3.192  52.834  1.00  0.00    -0.426 N 
HETATM   29  H14 UNL     1      28.162  -3.741  53.697  1.00  0.00     0.150 HD
HETATM   30  H15 UNL     1      27.705  -3.497  52.019  1.00  0.00     0.150 HD
ENDBRANCH  26  28
ENDBRANCH   9  11
ENDBRANCH   7   9
TORSDOF 3
ENDMDL
MODEL 3
REMARK VINA RESULT:      -7.9      4.841      7.004
REMARK  3 active torsions:
REMARK  status: ('A' for Active; 'I' for Inactive)
REMARK    1  A    between atoms: C7_7  and  N1_8 
REMARK    2  A    between atoms: N1_8  and  C8_9 
REMARK    3  A    between atoms: C16_22  and  N6_23 
ROOT
HETATM    1  C1  UNL     1      27.178  10.079  48.425  1.00  0.00     0.018 C 
HETATM    2  C2  UNL     1      27.348   8.879  48.436  1.00  0.00    -0.078 C 
HETATM    3  C3  UNL     1      27.553   7.455  48.474  1.00  0.00     0.019 A 
HETATM    4  C4  UNL     1      28.813   6.958  48.211  1.00  0.00     0.021 A 
HETATM    5  C5  UNL     1      28.956   5.572  48.260  1.00  0.00     0.004 A 
HETATM    6  C6  UNL     1      27.870   4.772  48.562  1.00  0.00     0.029 A 
HETATM    7  C7  UNL     1      26.621   5.283  48.824  1.00  0.00     0.035 A 
HETATM    8  C19 UNL     1      26.489   6.639  48.773  1.00  0.00     0.050 A 
ENDROOT
BRANCH   7   9
HETATM    9  N1  UNL     1      25.470   4.510  49.142  1.00  0.00    -0.339 N 
HETATM   10  H5  UNL     1      25.276   3.590  48.700  1.00  0.00     0.167 HD
BRANCH   9  11
HETATM   11  C8  UNL     1      24.452   4.864  50.063  1.00  0.00     0.158 A 
HETATM   12  N2  UNL     1      23.758   5.921  49.708  1.00  0.00    -0.220 NA
HETATM   13  C9  UNL     1      22.704   6.382  50.544  1.00  0.00     0.257 A 
HETATM   14  N3  UNL     1      22.455   5.748  51.636  1.00  0.00    -0.167 NA
HETATM   15  N4  UNL     1      23.179   4.632  52.024  1.00  0.00    -0.273 N 
HETATM   16  C10 UNL     1      24.255   4.078  51.269  1.00  0.00     0.103 A 
HETATM   17  H7  UNL     1      22.900   4.234  52.921  1.00  0.00     0.189 HD
HETATM   18  C11 UNL     1      25.018   3.048  51.618  1.00  0.00    -0.007 C 
HETATM   19  C12 UNL     1      26.208   2.451  50.928  1.00  0.00     0.139 C 
HETATM   20  C14 UNL     1      24.569   2.385  52.905  1.00  0.00    -0.030 C 
HETATM   21  S1  UNL     1      27.055   1.380  52.196  1.00  0.00    -0.049 SA
HETATM   22  N5  UNL     1      25.773   1.000  53.426  1.00  0.00    -0.331 N 
HETATM   23  C13 UNL     1      25.338   2.247  54.046  1.00  0.00     0.106 C 
HETATM   24  C18 UNL     1      25.335  -0.400  53.619  1.00  0.00     0.138 C 
HETATM   25  C17 UNL     1      23.813  -0.413  53.763  1.00  0.00     0.045 C 
HETATM   26  C16 UNL     1      23.237   0.310  52.594  1.00  0.00     0.079 C 
HETATM   27  C15 UNL     1      23.149   1.844  52.792  1.00  0.00     0.065 C 
BRANCH  26  28
HETATM   28  N6  UNL     1      21.857  -0.118  52.440  1.00  0.00    -0.426 N 
HETATM   29  H14 UNL     1      21.731  -0.980  51.897  1.00  0.00     0.150 HD
HETATM   30  H15 UNL     1      21.267   0.015  53.267  1.00  0.00     0.150 HD
ENDBRANCH  26  28
ENDBRANCH   9  11
ENDBRANCH   7   9
TORSDOF 3
ENDMDL
MODEL 4
REMARK VINA RESULT:      -7.6      3.445      7.496
REMARK  3 active torsions:
REMARK  status: ('A' for Active; 'I' for Inactive)
REMARK    1  A    between atoms: C7_7  and  N1_8 
REMARK    2  A    between atoms: N1_8  and  C8_9 
REMARK    3  A    between atoms: C16_22  and  N6_23 
ROOT
HETATM    1  C1  UNL     1      26.054  -0.224  52.778  1.00  0.00     0.018 C 
HETATM    2  C2  UNL     1      24.887  -0.129  53.089  1.00  0.00    -0.078 C 
HETATM    3  C3  UNL     1      23.506  -0.002  53.477  1.00  0.00     0.019 A 
HETATM    4  C4  UNL     1      22.977  -0.918  54.361  1.00  0.00     0.021 A 
HETATM    5  C5  UNL     1      21.635  -0.748  54.702  1.00  0.00     0.004 A 
HETATM    6  C6  UNL     1      20.908   0.296  54.162  1.00  0.00     0.029 A 
HETATM    7  C7  UNL     1      21.452   1.203  53.283  1.00  0.00     0.035 A 
HETATM    8  C19 UNL     1      22.764   1.030  52.954  1.00  0.00     0.050 A 
ENDROOT
BRANCH   7   9
HETATM    9  N1  UNL     1      20.755   2.296  52.699  1.00  0.00    -0.339 N 
HETATM   10  H5  UNL     1      20.593   3.189  53.204  1.00  0.00     0.167 HD
BRANCH   9  11
HETATM   11  C8  UNL     1      20.192   2.331  51.398  1.00  0.00     0.158 A 
HETATM   12  N2  UNL     1      19.341   1.359  51.160  1.00  0.00    -0.220 NA
HETATM   13  C9  UNL     1      18.704   1.279  49.891  1.00  0.00     0.257 A 
HETATM   14  N3  UNL     1      18.978   2.167  49.002  1.00  0.00    -0.167 NA
HETATM   15  N4  UNL     1      19.874   3.198  49.237  1.00  0.00    -0.273 N 
HETATM   16  C10 UNL     1      20.572   3.381  50.467  1.00  0.00     0.103 A 
HETATM   17  H7  UNL     1      20.023   3.822  48.445  1.00  0.00     0.189 HD
HETATM   18  C11 UNL     1      21.481   4.313  50.730  1.00  0.00    -0.007 C 
HETATM   19  C12 UNL     1      22.313   4.531  51.958  1.00  0.00     0.139 C 
HETATM   20  C14 UNL     1      21.658   5.306  49.597  1.00  0.00    -0.030 C 
HETATM   21  S1  UNL     1      23.684   5.687  51.452  1.00  0.00    -0.049 SA
HETATM   22  N5  UNL     1      23.063   6.540  49.973  1.00  0.00    -0.331 N 
HETATM   23  C13 UNL     1      22.841   5.551  48.925  1.00  0.00     0.106 C 
HETATM   24  C18 UNL     1      22.845   8.002  50.009  1.00  0.00     0.138 C 
HETATM   25  C17 UNL     1      21.527   8.311  49.297  1.00  0.00     0.045 C 
HETATM   26  C16 UNL     1      20.466   7.464  49.914  1.00  0.00     0.079 C 
HETATM   27  C15 UNL     1      20.363   6.047  49.294  1.00  0.00     0.065 C 
BRANCH  26  28
HETATM   28  N6  UNL     1      19.182   8.082  49.631  1.00  0.00    -0.426 N 
HETATM   29  H14 UNL     1      19.029   8.986  50.091  1.00  0.00     0.150 HD
HETATM   30  H15 UNL     1      18.852   7.974  48.667  1.00  0.00     0.150 HD
ENDBRANCH  26  28
ENDBRANCH   9  11
ENDBRANCH   7   9
TORSDOF 3
ENDMDL
MODEL 5
REMARK VINA RESULT:      -7.5      3.161      5.064
REMARK  3 active torsions:
REMARK  status: ('A' for Active; 'I' for Inactive)
REMARK    1  A    between atoms: C7_7  and  N1_8 
REMARK    2  A    between atoms: N1_8  and  C8_9 
REMARK    3  A    between atoms: C16_22  and  N6_23 
ROOT
HETATM    1  C1  UNL     1      20.770   9.153  49.469  1.00  0.00     0.018 C 
HETATM    2  C2  UNL     1      20.905   7.986  49.764  1.00  0.00    -0.078 C 
HETATM    3  C3  UNL     1      21.076   6.595  50.093  1.00  0.00     0.019 A 
HETATM    4  C4  UNL     1      20.032   5.723  49.859  1.00  0.00     0.021 A 
HETATM    5  C5  UNL     1      20.251   4.388  50.197  1.00  0.00     0.004 A 
HETATM    6  C6  UNL     1      21.464   3.998  50.734  1.00  0.00     0.029 A 
HETATM    7  C7  UNL     1      22.495   4.878  50.960  1.00  0.00     0.035 A 
HETATM    8  C19 UNL     1      22.273   6.183  50.628  1.00  0.00     0.050 A 
ENDROOT
BRANCH   7   9
HETATM    9  N1  UNL     1      23.762   4.533  51.507  1.00  0.00    -0.339 N 
HETATM   10  H5  UNL     1      23.909   4.390  52.525  1.00  0.00     0.167 HD
BRANCH   9  11
HETATM   11  C8  UNL     1      24.964   4.349  50.780  1.00  0.00     0.158 A 
HETATM   12  N2  UNL     1      25.176   5.262  49.859  1.00  0.00    -0.220 NA
HETATM   13  C9  UNL     1      26.348   5.193  49.059  1.00  0.00     0.257 A 
HETATM   14  N3  UNL     1      27.181   4.232  49.258  1.00  0.00    -0.167 NA
HETATM   15  N4  UNL     1      26.972   3.262  50.225  1.00  0.00    -0.273 N 
HETATM   16  C10 UNL     1      25.836   3.226  51.086  1.00  0.00     0.103 A 
HETATM   17  H7  UNL     1      27.692   2.541  50.268  1.00  0.00     0.189 HD
HETATM   18  C11 UNL     1      25.556   2.293  51.989  1.00  0.00    -0.007 C 
HETATM   19  C12 UNL     1      24.358   2.138  52.877  1.00  0.00     0.139 C 
HETATM   20  C14 UNL     1      26.654   1.257  52.133  1.00  0.00    -0.030 C 
HETATM   21  S1  UNL     1      24.409   0.385  53.509  1.00  0.00    -0.049 SA
HETATM   22  N5  UNL     1      26.145  -0.127  53.343  1.00  0.00    -0.331 N 
HETATM   23  C13 UNL     1      26.504  -0.102  51.930  1.00  0.00     0.106 C 
HETATM   24  C18 UNL     1      26.931  -0.450  54.553  1.00  0.00     0.138 C 
HETATM   25  C17 UNL     1      28.326   0.158  54.398  1.00  0.00     0.045 C 
HETATM   26  C16 UNL     1      28.160   1.605  54.079  1.00  0.00     0.079 C 
HETATM   27  C15 UNL     1      27.969   1.890  52.568  1.00  0.00     0.065 C 
BRANCH  26  28
HETATM   28  N6  UNL     1      29.398   2.282  54.426  1.00  0.00    -0.426 N 
HETATM   29  H14 UNL     1      29.823   2.820  53.662  1.00  0.00     0.150 HD
HETATM   30  H15 UNL     1      29.421   2.688  55.366  1.00  0.00     0.150 HD
ENDBRANCH  26  28
ENDBRANCH   9  11
ENDBRANCH   7   9
TORSDOF 3
ENDMDL
MODEL 6
REMARK VINA RESULT:      -7.3      4.428      7.844
REMARK  3 active torsions:
REMARK  status: ('A' for Active; 'I' for Inactive)
REMARK    1  A    between atoms: C7_7  and  N1_8 
REMARK    2  A    between atoms: N1_8  and  C8_9 
REMARK    3  A    between atoms: C16_22  and  N6_23 
ROOT
HETATM    1  C1  UNL     1      22.156  -1.516  54.937  1.00  0.00     0.018 C 
HETATM    2  C2  UNL     1      22.906  -0.870  54.240  1.00  0.00    -0.078 C 
HETATM    3  C3  UNL     1      23.791  -0.115  53.391  1.00  0.00     0.019 A 
HETATM    4  C4  UNL     1      25.111  -0.506  53.291  1.00  0.00     0.021 A 
HETATM    5  C5  UNL     1      25.923   0.260  52.456  1.00  0.00     0.004 A 
HETATM    6  C6  UNL     1      25.398   1.346  51.781  1.00  0.00     0.029 A 
HETATM    7  C7  UNL     1      24.080   1.722  51.890  1.00  0.00     0.035 A 
HETATM    8  C19 UNL     1      23.291   0.968  52.709  1.00  0.00     0.050 A 
ENDROOT
BRANCH   7   9
HETATM    9  N1  UNL     1      23.485   2.826  51.219  1.00  0.00    -0.339 N 
HETATM   10  H5  UNL     1      23.405   3.766  51.653  1.00  0.00     0.167 HD
BRANCH   9  11
HETATM   11  C8  UNL     1      22.928   2.812  49.916  1.00  0.00     0.158 A 
HETATM   12  N2  UNL     1      22.378   1.665  49.584  1.00  0.00    -0.220 NA
HETATM   13  C9  UNL     1      21.781   1.518  48.302  1.00  0.00     0.257 A 
HETATM   14  N3  UNL     1      21.794   2.517  47.493  1.00  0.00    -0.167 NA
HETATM   15  N4  UNL     1      22.371   3.733  47.827  1.00  0.00    -0.273 N 
HETATM   16  C10 UNL     1      22.998   3.999  49.080  1.00  0.00     0.103 A 
HETATM   17  H7  UNL     1      22.337   4.437  47.091  1.00  0.00     0.189 HD
HETATM   18  C11 UNL     1      23.614   5.121  49.434  1.00  0.00    -0.007 C 
HETATM   19  C12 UNL     1      24.359   5.458  50.690  1.00  0.00     0.139 C 
HETATM   20  C14 UNL     1      23.503   6.215  48.389  1.00  0.00    -0.030 C 
HETATM   21  S1  UNL     1      25.354   6.986  50.305  1.00  0.00    -0.049 SA
HETATM   22  N5  UNL     1      24.513   7.754  48.889  1.00  0.00    -0.331 N 
HETATM   23  C13 UNL     1      24.568   6.832  47.760  1.00  0.00     0.106 C 
HETATM   24  C18 UNL     1      23.898   9.090  49.040  1.00  0.00     0.138 C 
HETATM   25  C17 UNL     1      22.543   9.080  48.332  1.00  0.00     0.045 C 
HETATM   26  C16 UNL     1      21.762   7.925  48.858  1.00  0.00     0.079 C 
HETATM   27  C15 UNL     1      22.051   6.591  48.124  1.00  0.00     0.065 C 
BRANCH  26  28
HETATM   28  N6  UNL     1      20.355   8.184  48.604  1.00  0.00    -0.426 N 
HETATM   29  H14 UNL     1      19.792   7.350  48.404  1.00  0.00     0.150 HD
HETATM   30  H15 UNL     1      19.936   8.914  49.189  1.00  0.00     0.150 HD
ENDBRANCH  26  28
ENDBRANCH   9  11
ENDBRANCH   7   9
TORSDOF 3
ENDMDL
MODEL 7
REMARK VINA RESULT:      -7.2      5.222      8.239
REMARK  3 active torsions:
REMARK  status: ('A' for Active; 'I' for Inactive)
REMARK    1  A    between atoms: C7_7  and  N1_8 
REMARK    2  A    between atoms: N1_8  and  C8_9 
REMARK    3  A    between atoms: C16_22  and  N6_23 
ROOT
HETATM    1  C1  UNL     1      28.398  10.258  48.755  1.00  0.00     0.018 C 
HETATM    2  C2  UNL     1      27.894   9.163  48.874  1.00  0.00    -0.078 C 
HETATM    3  C3  UNL     1      27.310   7.857  49.036  1.00  0.00     0.019 A 
HETATM    4  C4  UNL     1      27.824   6.804  48.307  1.00  0.00     0.021 A 
HETATM    5  C5  UNL     1      27.221   5.562  48.500  1.00  0.00     0.004 A 
HETATM    6  C6  UNL     1      26.167   5.433  49.386  1.00  0.00     0.029 A 
HETATM    7  C7  UNL     1      25.667   6.491  50.106  1.00  0.00     0.035 A 
HETATM    8  C19 UNL     1      26.262   7.703  49.911  1.00  0.00     0.050 A 
ENDROOT
BRANCH   7   9
HETATM    9  N1  UNL     1      24.589   6.417  51.030  1.00  0.00    -0.339 N 
HETATM   10  H5  UNL     1      24.726   6.168  52.029  1.00  0.00     0.167 HD
BRANCH   9  11
HETATM   11  C8  UNL     1      23.221   6.652  50.741  1.00  0.00     0.158 A 
HETATM   12  N2  UNL     1      22.965   7.875  50.336  1.00  0.00    -0.220 NA
HETATM   13  C9  UNL     1      21.631   8.243  50.011  1.00  0.00     0.257 A 
HETATM   14  N3  UNL     1      20.700   7.362  50.122  1.00  0.00    -0.167 NA
HETATM   15  N4  UNL     1      20.954   6.068  50.549  1.00  0.00    -0.273 N 
HETATM   16  C10 UNL     1      22.248   5.584  50.901  1.00  0.00     0.103 A 
HETATM   17  H7  UNL     1      20.128   5.472  50.618  1.00  0.00     0.189 HD
HETATM   18  C11 UNL     1      22.541   4.376  51.368  1.00  0.00    -0.007 C 
HETATM   19  C12 UNL     1      23.851   3.812  51.832  1.00  0.00     0.139 C 
HETATM   20  C14 UNL     1      21.345   3.444  51.399  1.00  0.00    -0.030 C 
HETATM   21  S1  UNL     1      23.437   2.268  52.790  1.00  0.00    -0.049 SA
HETATM   22  N5  UNL     1      21.792   1.771  52.198  1.00  0.00    -0.331 N 
HETATM   23  C13 UNL     1      20.841   2.826  52.528  1.00  0.00     0.106 C 
HETATM   24  C18 UNL     1      21.628   0.485  51.487  1.00  0.00     0.138 C 
HETATM   25  C17 UNL     1      20.691   0.706  50.299  1.00  0.00     0.045 C 
HETATM   26  C16 UNL     1      21.227   1.845  49.501  1.00  0.00     0.079 C 
HETATM   27  C15 UNL     1      20.763   3.233  50.007  1.00  0.00     0.065 C 
BRANCH  26  28
HETATM   28  N6  UNL     1      20.681   1.744  48.158  1.00  0.00    -0.426 N 
HETATM   29  H14 UNL     1      20.104   2.541  47.867  1.00  0.00     0.150 HD
HETATM   30  H15 UNL     1      21.312   1.332  47.463  1.00  0.00     0.150 HD
ENDBRANCH  26  28
ENDBRANCH   9  11
ENDBRANCH   7   9
TORSDOF 3
ENDMDL
MODEL 8
REMARK VINA RESULT:      -7.2      9.472     11.807
REMARK  3 active torsions:
REMARK  status: ('A' for Active; 'I' for Inactive)
REMARK    1  A    between atoms: C7_7  and  N1_8 
REMARK    2  A    between atoms: N1_8  and  C8_9 
REMARK    3  A    between atoms: C16_22  and  N6_23 
ROOT
HETATM    1  C1  UNL     1      23.835   7.856  50.788  1.00  0.00     0.018 C 
HETATM    2  C2  UNL     1      24.672   7.106  50.338  1.00  0.00    -0.078 C 
HETATM    3  C3  UNL     1      25.655   6.213  49.780  1.00  0.00     0.019 A 
HETATM    4  C4  UNL     1      25.504   4.855  49.971  1.00  0.00     0.021 A 
HETATM    5  C5  UNL     1      26.485   4.038  49.411  1.00  0.00     0.004 A 
HETATM    6  C6  UNL     1      27.536   4.596  48.708  1.00  0.00     0.029 A 
HETATM    7  C7  UNL     1      27.671   5.951  48.525  1.00  0.00     0.035 A 
HETATM    8  C19 UNL     1      26.709   6.745  49.076  1.00  0.00     0.050 A 
ENDROOT
BRANCH   7   9
HETATM    9  N1  UNL     1      28.728   6.580  47.810  1.00  0.00    -0.339 N 
HETATM   10  H5  UNL     1      28.600   6.980  46.860  1.00  0.00     0.167 HD
BRANCH   9  11
HETATM   11  C8  UNL     1      30.062   6.744  48.262  1.00  0.00     0.158 A 
HETATM   12  N2  UNL     1      30.577   5.664  48.803  1.00  0.00    -0.220 NA
HETATM   13  C9  UNL     1      31.910   5.693  49.297  1.00  0.00     0.257 A 
HETATM   14  N3  UNL     1      32.584   6.784  49.199  1.00  0.00    -0.167 NA
HETATM   15  N4  UNL     1      32.055   7.932  48.631  1.00  0.00    -0.273 N 
HETATM   16  C10 UNL     1      30.733   8.024  48.103  1.00  0.00     0.103 A 
HETATM   17  H7  UNL     1      32.681   8.738  48.635  1.00  0.00     0.189 HD
HETATM   18  C11 UNL     1      30.155   9.108  47.600  1.00  0.00    -0.007 C 
HETATM   19  C12 UNL     1      28.757   9.312  47.098  1.00  0.00     0.139 C 
HETATM   20  C14 UNL     1      31.093  10.297  47.516  1.00  0.00    -0.030 C 
HETATM   21  S1  UNL     1      28.506  11.156  47.008  1.00  0.00    -0.049 SA
HETATM   22  N5  UNL     1      30.179  11.858  46.912  1.00  0.00    -0.331 N 
HETATM   23  C13 UNL     1      30.897  11.517  48.134  1.00  0.00     0.106 C 
HETATM   24  C18 UNL     1      30.593  12.600  45.701  1.00  0.00     0.138 C 
HETATM   25  C17 UNL     1      32.021  12.186  45.347  1.00  0.00     0.045 C 
HETATM   26  C16 UNL     1      32.058  10.698  45.261  1.00  0.00     0.079 C 
HETATM   27  C15 UNL     1      32.293  10.001  46.625  1.00  0.00     0.065 C 
BRANCH  26  28
HETATM   28  N6  UNL     1      33.209  10.325  44.457  1.00  0.00    -0.426 N 
HETATM   29  H14 UNL     1      33.276  10.806  43.552  1.00  0.00     0.150 HD
HETATM   30  H15 UNL     1      34.076  10.175  44.983  1.00  0.00     0.150 HD
ENDBRANCH  26  28
ENDBRANCH   9  11
ENDBRANCH   7   9
TORSDOF 3
ENDMDL
MODEL 9
REMARK VINA RESULT:      -6.8      8.833     11.565
REMARK  3 active torsions:
REMARK  status: ('A' for Active; 'I' for Inactive)
REMARK    1  A    between atoms: C7_7  and  N1_8 
REMARK    2  A    between atoms: N1_8  and  C8_9 
REMARK    3  A    between atoms: C16_22  and  N6_23 
ROOT
HETATM    1  C1  UNL     1      31.671  12.053  43.923  1.00  0.00     0.018 C 
HETATM    2  C2  UNL     1      31.235  11.647  44.978  1.00  0.00    -0.078 C 
HETATM    3  C3  UNL     1      30.700  11.180  46.231  1.00  0.00     0.019 A 
HETATM    4  C4  UNL     1      31.218  11.687  47.405  1.00  0.00     0.021 A 
HETATM    5  C5  UNL     1      30.664  11.200  48.588  1.00  0.00     0.004 A 
HETATM    6  C6  UNL     1      29.649  10.262  48.546  1.00  0.00     0.029 A 
HETATM    7  C7  UNL     1      29.143   9.768  47.367  1.00  0.00     0.035 A 
HETATM    8  C19 UNL     1      29.690  10.248  46.214  1.00  0.00     0.050 A 
ENDROOT
BRANCH   7   9
HETATM    9  N1  UNL     1      28.101   8.806  47.263  1.00  0.00    -0.339 N 
HETATM   10  H5  UNL     1      27.179   9.025  46.838  1.00  0.00     0.167 HD
BRANCH   9  11
HETATM   11  C8  UNL     1      28.156   7.462  47.709  1.00  0.00     0.158 A 
HETATM   12  N2  UNL     1      29.358   6.934  47.665  1.00  0.00    -0.220 NA
HETATM   13  C9  UNL     1      29.552   5.590  48.086  1.00  0.00     0.257 A 
HETATM   14  N3  UNL     1      28.538   4.919  48.505  1.00  0.00    -0.167 NA
HETATM   15  N4  UNL     1      27.263   5.461  48.558  1.00  0.00    -0.273 N 
HETATM   16  C10 UNL     1      26.947   6.794  48.163  1.00  0.00     0.103 A 
HETATM   17  H7  UNL     1      26.540   4.819  48.885  1.00  0.00     0.189 HD
HETATM   18  C11 UNL     1      25.739   7.347  48.138  1.00  0.00    -0.007 C 
HETATM   19  C12 UNL     1      25.309   8.704  47.670  1.00  0.00     0.139 C 
HETATM   20  C14 UNL     1      24.660   6.442  48.702  1.00  0.00    -0.030 C 
HETATM   21  S1  UNL     1      23.458   8.617  47.470  1.00  0.00    -0.049 SA
HETATM   22  N5  UNL     1      22.933   7.232  48.522  1.00  0.00    -0.331 N 
HETATM   23  C13 UNL     1      23.542   6.007  48.016  1.00  0.00     0.106 C 
HETATM   24  C18 UNL     1      22.054   7.487  49.684  1.00  0.00     0.138 C 
HETATM   25  C17 UNL     1      22.556   6.651  50.862  1.00  0.00     0.045 C 
HETATM   26  C16 UNL     1      24.006   6.946  51.046  1.00  0.00     0.079 C 
HETATM   27  C15 UNL     1      24.934   6.082  50.156  1.00  0.00     0.065 C 
BRANCH  26  28
HETATM   28  N6  UNL     1      24.364   6.586  52.407  1.00  0.00    -0.426 N 
HETATM   29  H14 UNL     1      24.043   7.244  53.126  1.00  0.00     0.150 HD
HETATM   30  H15 UNL     1      24.312   5.584  52.619  1.00  0.00     0.150 HD
ENDBRANCH  26  28
ENDBRANCH   9  11
ENDBRANCH   7   9
TORSDOF 3
ENDMDL
