MODEL 1
REMARK VINA RESULT:      -8.2      0.000      0.000
REMARK  3 active torsions:
REMARK  status: ('A' for Active; 'I' for Inactive)
REMARK    1  A    between atoms: C3_3  and  C4_5 
REMARK    2  A    between atoms: C8_10  and  N2_11 
REMARK    3  A    between atoms: N2_11  and  C9_12 
ROOT
HETATM    1  C4  UNL     1      26.188  -0.323  53.125  1.00  0.00     0.076 C 
HETATM    2  C5  UNL     1      26.134   0.926  52.679  1.00  0.00     0.076 C 
HETATM    3  C6  UNL     1      26.988   1.605  51.673  1.00  0.00     0.185 C 
HETATM    4  N1  UNL     1      26.139   2.344  50.721  1.00  0.00    -0.377 N 
HETATM    5  C7  UNL     1      25.146   3.236  51.234  1.00  0.00     0.129 A 
HETATM    6  C8  UNL     1      24.694   4.332  50.518  1.00  0.00     0.160 A 
HETATM    7  N3  UNL     1      23.761   5.061  51.143  1.00  0.00    -0.222 NA
HETATM    8  C15 UNL     1      23.300   4.759  52.361  1.00  0.00     0.238 A 
HETATM    9  N4  UNL     1      23.754   3.677  53.056  1.00  0.00    -0.215 NA
HETATM   10  C16 UNL     1      24.708   2.878  52.490  1.00  0.00     0.201 A 
HETATM   11  O1  UNL     1      25.174   1.788  53.169  1.00  0.00    -0.293 OA
HETATM   12  H8  UNL     1      26.230   2.243  49.683  1.00  0.00     0.160 HD
ENDROOT
BRANCH   6  13
HETATM   13  N2  UNL     1      25.230   4.596  49.256  1.00  0.00    -0.339 N 
HETATM   14  H9  UNL     1      24.774   4.208  48.404  1.00  0.00     0.167 HD
BRANCH  13  15
HETATM   15  C9  UNL     1      26.379   5.358  48.944  1.00  0.00     0.035 A 
HETATM   16  C10 UNL     1      27.598   4.828  48.636  1.00  0.00     0.029 A 
HETATM   17  C11 UNL     1      28.728   5.551  48.325  1.00  0.00     0.004 A 
HETATM   18  C12 UNL     1      28.660   6.942  48.313  1.00  0.00     0.019 A 
HETATM   19  C13 UNL     1      27.455   7.525  48.617  1.00  0.00     0.013 A 
HETATM   20 BR1  UNL     1      27.301   9.426  48.617  1.00  0.00    -0.051 Br
HETATM   21  C14 UNL     1      26.370   6.741  48.917  1.00  0.00     0.048 A 
ENDBRANCH  13  15
ENDBRANCH   6  13
BRANCH   1  22
HETATM   22  C3  UNL     1      27.094  -1.394  52.764  1.00  0.00     0.114 C 
HETATM   23  C2  UNL     1      28.381  -1.461  53.143  1.00  0.00     0.011 C 
HETATM   24  C1  UNL     1      29.212  -0.540  53.980  1.00  0.00     0.039 C 
HETATM   25  F1  UNL     1      26.630  -2.424  51.981  1.00  0.00    -0.206 F 
ENDBRANCH   1  22
TORSDOF 3
ENDMDL
MODEL 2
REMARK VINA RESULT:      -8.0      1.855      2.091
REMARK  3 active torsions:
REMARK  status: ('A' for Active; 'I' for Inactive)
REMARK    1  A    between atoms: C3_3  and  C4_5 
REMARK    2  A    between atoms: C8_10  and  N2_11 
REMARK    3  A    between atoms: N2_11  and  C9_12 
ROOT
HETATM    1  C4  UNL     1      25.186  -0.005  53.618  1.00  0.00     0.076 C 
HETATM    2  C5  UNL     1      24.681   1.077  53.039  1.00  0.00     0.076 C 
HETATM    3  C6  UNL     1      24.931   2.509  53.334  1.00  0.00     0.185 C 
HETATM    4  N1  UNL     1      25.177   3.239  52.077  1.00  0.00    -0.377 N 
HETATM    5  C7  UNL     1      24.241   3.095  51.005  1.00  0.00     0.129 A 
HETATM    6  C8  UNL     1      24.054   4.078  50.049  1.00  0.00     0.160 A 
HETATM    7  N3  UNL     1      23.142   3.782  49.114  1.00  0.00    -0.222 NA
HETATM    8  C15 UNL     1      22.464   2.630  49.101  1.00  0.00     0.238 A 
HETATM    9  N4  UNL     1      22.657   1.670  50.051  1.00  0.00    -0.215 NA
HETATM   10  C16 UNL     1      23.571   1.892  51.042  1.00  0.00     0.201 A 
HETATM   11  O1  UNL     1      23.780   0.941  52.001  1.00  0.00    -0.293 OA
HETATM   12  H8  UNL     1      26.008   3.858  51.933  1.00  0.00     0.160 HD
ENDROOT
BRANCH   6  13
HETATM   13  N2  UNL     1      24.788   5.263  50.130  1.00  0.00    -0.339 N 
HETATM   14  H9  UNL     1      24.459   6.040  50.741  1.00  0.00     0.167 HD
BRANCH  13  15
HETATM   15  C9  UNL     1      25.988   5.588  49.458  1.00  0.00     0.035 A 
HETATM   16  C10 UNL     1      26.934   4.679  49.083  1.00  0.00     0.029 A 
HETATM   17  C11 UNL     1      28.107   4.973  48.424  1.00  0.00     0.004 A 
HETATM   18  C12 UNL     1      28.387   6.296  48.095  1.00  0.00     0.019 A 
HETATM   19  C13 UNL     1      27.466   7.251  48.450  1.00  0.00     0.013 A 
HETATM   20 BR1  UNL     1      27.793   9.081  48.027  1.00  0.00    -0.051 Br
HETATM   21  C14 UNL     1      26.317   6.884  49.106  1.00  0.00     0.048 A 
ENDBRANCH  13  15
ENDBRANCH   6  13
BRANCH   1  22
HETATM   22  C3  UNL     1      26.133  -0.110  54.709  1.00  0.00     0.114 C 
HETATM   23  C2  UNL     1      27.451   0.125  54.598  1.00  0.00     0.011 C 
HETATM   24  C1  UNL     1      28.284   0.532  53.423  1.00  0.00     0.039 C 
HETATM   25  F1  UNL     1      25.677  -0.474  55.954  1.00  0.00    -0.206 F 
ENDBRANCH   1  22
TORSDOF 3
ENDMDL
MODEL 3
REMARK VINA RESULT:      -8.0      4.413      5.562
REMARK  3 active torsions:
REMARK  status: ('A' for Active; 'I' for Inactive)
REMARK    1  A    between atoms: C3_3  and  C4_5 
REMARK    2  A    between atoms: C8_10  and  N2_11 
REMARK    3  A    between atoms: N2_11  and  C9_12 
ROOT
HETATM    1  C4  UNL     1      27.636  -0.178  54.911  1.00  0.00     0.076 C 
HETATM    2  C5  UNL     1      26.361   0.086  54.657  1.00  0.00     0.076 C 
HETATM    3  C6  UNL     1      25.771   1.089  53.735  1.00  0.00     0.185 C 
HETATM    4  N1  UNL     1      24.708   0.459  52.932  1.00  0.00    -0.377 N 
HETATM    5  C7  UNL     1      23.685  -0.280  53.605  1.00  0.00     0.129 A 
HETATM    6  C8  UNL     1      22.415  -0.437  53.077  1.00  0.00     0.160 A 
HETATM    7  N3  UNL     1      21.579  -1.159  53.834  1.00  0.00    -0.222 NA
HETATM    8  C15 UNL     1      21.938  -1.687  55.008  1.00  0.00     0.238 A 
HETATM    9  N4  UNL     1      23.193  -1.524  55.519  1.00  0.00    -0.215 NA
HETATM   10  C16 UNL     1      24.109  -0.800  54.808  1.00  0.00     0.201 A 
HETATM   11  O1  UNL     1      25.371  -0.627  55.302  1.00  0.00    -0.293 OA
HETATM   12  H8  UNL     1      24.668   0.526  51.889  1.00  0.00     0.160 HD
ENDROOT
BRANCH   6  13
HETATM   13  N2  UNL     1      22.104   0.154  51.851  1.00  0.00    -0.339 N 
HETATM   14  H9  UNL     1      22.054  -0.427  50.988  1.00  0.00     0.167 HD
BRANCH  13  15
HETATM   15  C9  UNL     1      21.835   1.517  51.589  1.00  0.00     0.035 A 
HETATM   16  C10 UNL     1      20.985   2.292  52.323  1.00  0.00     0.029 A 
HETATM   17  C11 UNL     1      20.711   3.621  52.088  1.00  0.00     0.004 A 
HETATM   18  C12 UNL     1      21.334   4.263  51.021  1.00  0.00     0.019 A 
HETATM   19  C13 UNL     1      22.199   3.527  50.250  1.00  0.00     0.013 A 
HETATM   20 BR1  UNL     1      23.083   4.351  48.774  1.00  0.00    -0.051 Br
HETATM   21  C14 UNL     1      22.424   2.205  50.544  1.00  0.00     0.048 A 
ENDBRANCH  13  15
ENDBRANCH   6  13
BRANCH   1  22
HETATM   22  C3  UNL     1      28.832   0.430  54.364  1.00  0.00     0.114 C 
HETATM   23  C2  UNL     1      29.781  -0.234  53.684  1.00  0.00     0.011 C 
HETATM   24  C1  UNL     1      29.897  -1.678  53.309  1.00  0.00     0.039 C 
HETATM   25  F1  UNL     1      29.032   1.779  54.539  1.00  0.00    -0.206 F 
ENDBRANCH   1  22
TORSDOF 3
ENDMDL
MODEL 4
REMARK VINA RESULT:      -7.9      2.156      2.859
REMARK  3 active torsions:
REMARK  status: ('A' for Active; 'I' for Inactive)
REMARK    1  A    between atoms: C3_3  and  C4_5 
REMARK    2  A    between atoms: C8_10  and  N2_11 
REMARK    3  A    between atoms: N2_11  and  C9_12 
ROOT
HETATM    1  C4  UNL     1      27.330  -0.001  54.340  1.00  0.00     0.076 C 
HETATM    2  C5  UNL     1      26.448   0.796  53.751  1.00  0.00     0.076 C 
HETATM    3  C6  UNL     1      26.669   2.059  53.004  1.00  0.00     0.185 C 
HETATM    4  N1  UNL     1      25.905   2.030  51.743  1.00  0.00    -0.377 N 
HETATM    5  C7  UNL     1      24.514   1.702  51.791  1.00  0.00     0.129 A 
HETATM    6  C8  UNL     1      23.614   2.150  50.838  1.00  0.00     0.160 A 
HETATM    7  N3  UNL     1      22.351   1.749  51.030  1.00  0.00    -0.222 NA
HETATM    8  C15 UNL     1      21.984   0.977  52.057  1.00  0.00     0.238 A 
HETATM    9  N4  UNL     1      22.880   0.543  52.990  1.00  0.00    -0.215 NA
HETATM   10  C16 UNL     1      24.192   0.907  52.869  1.00  0.00     0.201 A 
HETATM   11  O1  UNL     1      25.104   0.481  53.791  1.00  0.00    -0.293 OA
HETATM   12  H8  UNL     1      26.337   2.237  50.813  1.00  0.00     0.160 HD
ENDROOT
BRANCH   6  13
HETATM   13  N2  UNL     1      24.066   2.964  49.798  1.00  0.00    -0.339 N 
HETATM   14  H9  UNL     1      24.046   2.617  48.816  1.00  0.00     0.167 HD
BRANCH  13  15
HETATM   15  C9  UNL     1      24.585   4.276  49.887  1.00  0.00     0.035 A 
HETATM   16  C10 UNL     1      24.031   5.278  50.628  1.00  0.00     0.029 A 
HETATM   17  C11 UNL     1      24.523   6.561  50.732  1.00  0.00     0.004 A 
HETATM   18  C12 UNL     1      25.680   6.901  50.037  1.00  0.00     0.019 A 
HETATM   19  C13 UNL     1      26.277   5.928  49.274  1.00  0.00     0.013 A 
HETATM   20 BR1  UNL     1      27.864   6.334  48.299  1.00  0.00    -0.051 Br
HETATM   21  C14 UNL     1      25.730   4.670  49.218  1.00  0.00     0.048 A 
ENDBRANCH  13  15
ENDBRANCH   6  13
BRANCH   1  22
HETATM   22  C3  UNL     1      28.771   0.123  54.429  1.00  0.00     0.114 C 
HETATM   23  C2  UNL     1      29.643  -0.768  53.930  1.00  0.00     0.011 C 
HETATM   24  C1  UNL     1      29.428  -2.052  53.192  1.00  0.00     0.039 C 
HETATM   25  F1  UNL     1      29.307   1.219  55.063  1.00  0.00    -0.206 F 
ENDBRANCH   1  22
TORSDOF 3
ENDMDL
MODEL 5
REMARK VINA RESULT:      -7.7      3.400      6.913
REMARK  3 active torsions:
REMARK  status: ('A' for Active; 'I' for Inactive)
REMARK    1  A    between atoms: C3_3  and  C4_5 
REMARK    2  A    between atoms: C8_10  and  N2_11 
REMARK    3  A    between atoms: N2_11  and  C9_12 
ROOT
HETATM    1  C4  UNL     1      26.319   5.856  48.670  1.00  0.00     0.076 C 
HETATM    2  C5  UNL     1      25.928   4.788  49.353  1.00  0.00     0.076 C 
HETATM    3  C6  UNL     1      26.740   3.687  49.929  1.00  0.00     0.185 C 
HETATM    4  N1  UNL     1      26.308   3.426  51.314  1.00  0.00    -0.377 N 
HETATM    5  C7  UNL     1      24.917   3.224  51.574  1.00  0.00     0.129 A 
HETATM    6  C8  UNL     1      24.465   2.470  52.644  1.00  0.00     0.160 A 
HETATM    7  N3  UNL     1      23.132   2.384  52.744  1.00  0.00    -0.222 NA
HETATM    8  C15 UNL     1      22.301   2.976  51.881  1.00  0.00     0.238 A 
HETATM    9  N4  UNL     1      22.759   3.714  50.829  1.00  0.00    -0.215 NA
HETATM   10  C16 UNL     1      24.107   3.854  50.655  1.00  0.00     0.201 A 
HETATM   11  O1  UNL     1      24.585   4.591  49.609  1.00  0.00    -0.293 OA
HETATM   12  H8  UNL     1      26.976   3.384  52.119  1.00  0.00     0.160 HD
ENDROOT
BRANCH   6  13
HETATM   13  N2  UNL     1      25.390   1.870  53.500  1.00  0.00    -0.339 N 
HETATM   14  H9  UNL     1      25.612   2.305  54.419  1.00  0.00     0.167 HD
BRANCH  13  15
HETATM   15  C9  UNL     1      26.124   0.681  53.285  1.00  0.00     0.035 A 
HETATM   16  C10 UNL     1      25.585  -0.490  52.836  1.00  0.00     0.029 A 
HETATM   17  C11 UNL     1      26.282  -1.658  52.617  1.00  0.00     0.004 A 
HETATM   18  C12 UNL     1      27.652  -1.686  52.862  1.00  0.00     0.019 A 
HETATM   19  C13 UNL     1      28.244  -0.533  53.316  1.00  0.00     0.013 A 
HETATM   20 BR1  UNL     1      30.117  -0.509  53.669  1.00  0.00    -0.051 Br
HETATM   21  C14 UNL     1      27.486   0.595  53.512  1.00  0.00     0.048 A 
ENDBRANCH  13  15
ENDBRANCH   6  13
BRANCH   1  22
HETATM   22  C3  UNL     1      27.654   6.268  48.285  1.00  0.00     0.114 C 
HETATM   23  C2  UNL     1      28.087   7.539  48.284  1.00  0.00     0.011 C 
HETATM   24  C1  UNL     1      27.396   8.817  48.645  1.00  0.00     0.039 C 
HETATM   25  F1  UNL     1      28.558   5.310  47.891  1.00  0.00    -0.206 F 
ENDBRANCH   1  22
TORSDOF 3
ENDMDL
MODEL 6
REMARK VINA RESULT:      -7.7      4.080      6.233
REMARK  3 active torsions:
REMARK  status: ('A' for Active; 'I' for Inactive)
REMARK    1  A    between atoms: C3_3  and  C4_5 
REMARK    2  A    between atoms: C8_10  and  N2_11 
REMARK    3  A    between atoms: N2_11  and  C9_12 
ROOT
HETATM    1  C4  UNL     1      28.616   1.873  53.007  1.00  0.00     0.076 C 
HETATM    2  C5  UNL     1      27.388   1.897  52.504  1.00  0.00     0.076 C 
HETATM    3  C6  UNL     1      26.147   1.265  53.017  1.00  0.00     0.185 C 
HETATM    4  N1  UNL     1      25.044   2.243  52.985  1.00  0.00    -0.377 N 
HETATM    5  C7  UNL     1      24.791   2.953  51.771  1.00  0.00     0.129 A 
HETATM    6  C8  UNL     1      23.538   3.446  51.449  1.00  0.00     0.160 A 
HETATM    7  N3  UNL     1      23.474   4.089  50.276  1.00  0.00    -0.222 NA
HETATM    8  C15 UNL     1      24.534   4.245  49.477  1.00  0.00     0.238 A 
HETATM    9  N4  UNL     1      25.764   3.754  49.805  1.00  0.00    -0.215 NA
HETATM   10  C16 UNL     1      25.916   3.083  50.987  1.00  0.00     0.201 A 
HETATM   11  O1  UNL     1      27.139   2.586  51.334  1.00  0.00    -0.293 OA
HETATM   12  H8  UNL     1      24.437   2.442  53.815  1.00  0.00     0.160 HD
ENDROOT
BRANCH   6  13
HETATM   13  N2  UNL     1      22.472   3.236  52.325  1.00  0.00    -0.339 N 
HETATM   14  H9  UNL     1      22.283   3.915  53.092  1.00  0.00     0.167 HD
BRANCH  13  15
HETATM   15  C9  UNL     1      21.552   2.163  52.330  1.00  0.00     0.035 A 
HETATM   16  C10 UNL     1      20.419   2.113  51.571  1.00  0.00     0.029 A 
HETATM   17  C11 UNL     1      19.512   1.076  51.557  1.00  0.00     0.004 A 
HETATM   18  C12 UNL     1      19.736  -0.031  52.371  1.00  0.00     0.019 A 
HETATM   19  C13 UNL     1      20.863  -0.030  53.155  1.00  0.00     0.013 A 
HETATM   20 BR1  UNL     1      21.223  -1.519  54.290  1.00  0.00    -0.051 Br
HETATM   21  C14 UNL     1      21.723   1.038  53.117  1.00  0.00     0.048 A 
ENDBRANCH  13  15
ENDBRANCH   6  13
BRANCH   1  22
HETATM   22  C3  UNL     1      29.111   1.226  54.205  1.00  0.00     0.114 C 
HETATM   23  C2  UNL     1      29.277  -0.100  54.339  1.00  0.00     0.011 C 
HETATM   24  C1  UNL     1      29.028  -1.227  53.386  1.00  0.00     0.039 C 
HETATM   25  F1  UNL     1      29.441   2.000  55.292  1.00  0.00    -0.206 F 
ENDBRANCH   1  22
TORSDOF 3
ENDMDL
MODEL 7
REMARK VINA RESULT:      -7.5      3.230      3.851
REMARK  3 active torsions:
REMARK  status: ('A' for Active; 'I' for Inactive)
REMARK    1  A    between atoms: C3_3  and  C4_5 
REMARK    2  A    between atoms: C8_10  and  N2_11 
REMARK    3  A    between atoms: N2_11  and  C9_12 
ROOT
HETATM    1  C4  UNL     1      27.222   0.692  52.866  1.00  0.00     0.076 C 
HETATM    2  C5  UNL     1      26.044   1.283  53.029  1.00  0.00     0.076 C 
HETATM    3  C6  UNL     1      25.696   2.490  53.818  1.00  0.00     0.185 C 
HETATM    4  N1  UNL     1      24.849   3.384  53.008  1.00  0.00    -0.377 N 
HETATM    5  C7  UNL     1      23.691   2.841  52.369  1.00  0.00     0.129 A 
HETATM    6  C8  UNL     1      22.581   3.612  52.067  1.00  0.00     0.160 A 
HETATM    7  N3  UNL     1      21.585   2.948  51.467  1.00  0.00    -0.222 NA
HETATM    8  C15 UNL     1      21.653   1.644  51.180  1.00  0.00     0.238 A 
HETATM    9  N4  UNL     1      22.752   0.895  51.484  1.00  0.00    -0.215 NA
HETATM   10  C16 UNL     1      23.815   1.496  52.099  1.00  0.00     0.201 A 
HETATM   11  O1  UNL     1      24.925   0.763  52.409  1.00  0.00    -0.293 OA
HETATM   12  H8  UNL     1      25.058   4.402  52.879  1.00  0.00     0.160 HD
ENDROOT
BRANCH   6  13
HETATM   13  N2  UNL     1      22.574   4.966  52.407  1.00  0.00    -0.339 N 
HETATM   14  H9  UNL     1      22.386   5.258  53.389  1.00  0.00     0.167 HD
BRANCH  13  15
HETATM   15  C9  UNL     1      22.794   6.074  51.557  1.00  0.00     0.035 A 
HETATM   16  C10 UNL     1      24.024   6.559  51.222  1.00  0.00     0.029 A 
HETATM   17  C11 UNL     1      24.261   7.634  50.393  1.00  0.00     0.004 A 
HETATM   18  C12 UNL     1      23.180   8.307  49.831  1.00  0.00     0.019 A 
HETATM   19  C13 UNL     1      21.919   7.859  50.138  1.00  0.00     0.013 A 
HETATM   20 BR1  UNL     1      20.399   8.741  49.399  1.00  0.00    -0.051 Br
HETATM   21  C14 UNL     1      21.759   6.781  50.972  1.00  0.00     0.048 A 
ENDBRANCH  13  15
ENDBRANCH   6  13
BRANCH   1  22
HETATM   22  C3  UNL     1      28.516   1.050  53.408  1.00  0.00     0.114 C 
HETATM   23  C2  UNL     1      29.493   0.171  53.686  1.00  0.00     0.011 C 
HETATM   24  C1  UNL     1      29.553  -1.317  53.538  1.00  0.00     0.039 C 
HETATM   25  F1  UNL     1      28.789   2.373  53.664  1.00  0.00    -0.206 F 
ENDBRANCH   1  22
TORSDOF 3
ENDMDL
MODEL 8
REMARK VINA RESULT:      -7.5      4.458      6.656
REMARK  3 active torsions:
REMARK  status: ('A' for Active; 'I' for Inactive)
REMARK    1  A    between atoms: C3_3  and  C4_5 
REMARK    2  A    between atoms: C8_10  and  N2_11 
REMARK    3  A    between atoms: N2_11  and  C9_12 
ROOT
HETATM    1  C4  UNL     1      27.333   1.013  53.116  1.00  0.00     0.076 C 
HETATM    2  C5  UNL     1      26.116   1.101  52.594  1.00  0.00     0.076 C 
HETATM    3  C6  UNL     1      24.841   0.508  53.067  1.00  0.00     0.185 C 
HETATM    4  N1  UNL     1      23.780   1.531  53.044  1.00  0.00    -0.377 N 
HETATM    5  C7  UNL     1      23.578   2.284  51.845  1.00  0.00     0.129 A 
HETATM    6  C8  UNL     1      22.352   2.837  51.515  1.00  0.00     0.160 A 
HETATM    7  N3  UNL     1      22.337   3.513  50.360  1.00  0.00    -0.222 NA
HETATM    8  C15 UNL     1      23.416   3.646  49.583  1.00  0.00     0.238 A 
HETATM    9  N4  UNL     1      24.618   3.095  49.919  1.00  0.00    -0.215 NA
HETATM   10  C16 UNL     1      24.721   2.388  51.084  1.00  0.00     0.201 A 
HETATM   11  O1  UNL     1      25.917   1.831  51.438  1.00  0.00    -0.293 OA
HETATM   12  H8  UNL     1      23.167   1.732  53.868  1.00  0.00     0.160 HD
ENDROOT
BRANCH   6  13
HETATM   13  N2  UNL     1      21.263   2.647  52.367  1.00  0.00    -0.339 N 
HETATM   14  H9  UNL     1      21.018   3.373  53.073  1.00  0.00     0.167 HD
BRANCH  13  15
HETATM   15  C9  UNL     1      20.386   1.539  52.421  1.00  0.00     0.035 A 
HETATM   16  C10 UNL     1      20.411   0.580  53.391  1.00  0.00     0.029 A 
HETATM   17  C11 UNL     1      19.565  -0.504  53.463  1.00  0.00     0.004 A 
HETATM   18  C12 UNL     1      18.589  -0.669  52.485  1.00  0.00     0.019 A 
HETATM   19  C13 UNL     1      18.522   0.269  51.485  1.00  0.00     0.013 A 
HETATM   20 BR1  UNL     1      17.205   0.097  50.116  1.00  0.00    -0.051 Br
HETATM   21  C14 UNL     1      19.399   1.325  51.476  1.00  0.00     0.048 A 
ENDBRANCH  13  15
ENDBRANCH   6  13
BRANCH   1  22
HETATM   22  C3  UNL     1      27.779   0.314  54.304  1.00  0.00     0.114 C 
HETATM   23  C2  UNL     1      28.970  -0.295  54.426  1.00  0.00     0.011 C 
HETATM   24  C1  UNL     1      30.109  -0.434  53.466  1.00  0.00     0.039 C 
HETATM   25  F1  UNL     1      26.945   0.256  55.395  1.00  0.00    -0.206 F 
ENDBRANCH   1  22
TORSDOF 3
ENDMDL
MODEL 9
REMARK VINA RESULT:      -7.5      4.033      7.157
REMARK  3 active torsions:
REMARK  status: ('A' for Active; 'I' for Inactive)
REMARK    1  A    between atoms: C3_3  and  C4_5 
REMARK    2  A    between atoms: C8_10  and  N2_11 
REMARK    3  A    between atoms: N2_11  and  C9_12 
ROOT
HETATM    1  C4  UNL     1      27.296   6.342  48.507  1.00  0.00     0.076 C 
HETATM    2  C5  UNL     1      26.328   5.618  49.054  1.00  0.00     0.076 C 
HETATM    3  C6  UNL     1      26.357   4.214  49.535  1.00  0.00     0.185 C 
HETATM    4  N1  UNL     1      25.729   4.135  50.866  1.00  0.00    -0.377 N 
HETATM    5  C7  UNL     1      24.433   4.711  51.051  1.00  0.00     0.129 A 
HETATM    6  C8  UNL     1      23.550   4.255  52.015  1.00  0.00     0.160 A 
HETATM    7  N3  UNL     1      22.381   4.907  52.055  1.00  0.00    -0.222 NA
HETATM    8  C15 UNL     1      22.086   5.918  51.232  1.00  0.00     0.238 A 
HETATM    9  N4  UNL     1      22.964   6.357  50.285  1.00  0.00    -0.215 NA
HETATM   10  C16 UNL     1      24.182   5.746  50.177  1.00  0.00     0.201 A 
HETATM   11  O1  UNL     1      25.076   6.172  49.236  1.00  0.00    -0.293 OA
HETATM   12  H8  UNL     1      26.190   3.675  51.686  1.00  0.00     0.160 HD
ENDROOT
BRANCH   6  13
HETATM   13  N2  UNL     1      23.919   3.185  52.832  1.00  0.00    -0.339 N 
HETATM   14  H9  UNL     1      24.697   3.294  53.516  1.00  0.00     0.167 HD
BRANCH  13  15
HETATM   15  C9  UNL     1      23.359   1.888  52.869  1.00  0.00     0.035 A 
HETATM   16  C10 UNL     1      24.030   0.767  53.264  1.00  0.00     0.029 A 
HETATM   17  C11 UNL     1      23.502  -0.504  53.310  1.00  0.00     0.004 A 
HETATM   18  C12 UNL     1      22.178  -0.703  52.932  1.00  0.00     0.019 A 
HETATM   19  C13 UNL     1      21.458   0.393  52.525  1.00  0.00     0.013 A 
HETATM   20 BR1  UNL     1      19.639   0.184  51.994  1.00  0.00    -0.051 Br
HETATM   21  C14 UNL     1      22.050   1.632  52.504  1.00  0.00     0.048 A 
ENDBRANCH  13  15
ENDBRANCH   6  13
BRANCH   1  22
HETATM   22  C3  UNL     1      28.669   5.980  48.219  1.00  0.00     0.114 C 
HETATM   23  C2  UNL     1      29.696   6.845  48.204  1.00  0.00     0.011 C 
HETATM   24  C1  UNL     1      29.748   8.320  48.456  1.00  0.00     0.039 C 
HETATM   25  F1  UNL     1      28.967   4.668  47.940  1.00  0.00    -0.206 F 
ENDBRANCH   1  22
TORSDOF 3
ENDMDL
