MODEL 1
REMARK VINA RESULT:      -7.8      0.000      0.000
REMARK  4 active torsions:
REMARK  status: ('A' for Active; 'I' for Inactive)
REMARK    1  A    between atoms: C4_7  and  O2_8 
REMARK    2  A    between atoms: O2_8  and  C5_9 
REMARK    3  A    between atoms: C5_9  and  C6_10 
REMARK    4  A    between atoms: C6_10  and  C7_11 
ROOT
HETATM    1  O1  UNL     1      21.296  -1.307  54.374  1.00  0.00    -0.245 OA
HETATM    2  C1  UNL     1      22.097  -0.449  54.802  1.00  0.00     0.343 C 
HETATM    3  N1  UNL     1      23.016  -1.139  55.525  1.00  0.00    -0.190 NA
HETATM    4  C2  UNL     1      24.107  -1.608  55.556  1.00  0.00     0.208 C 
HETATM    5  N2  UNL     1      24.507  -1.195  54.163  1.00  0.00    -0.382 N 
HETATM    6  C3  UNL     1      25.760  -0.422  53.990  1.00  0.00     0.157 C 
HETATM    7  C4  UNL     1      25.742   0.971  54.444  1.00  0.00     0.180 C 
HETATM    8  C8  UNL     1      25.050   1.919  53.509  1.00  0.00     0.024 A 
HETATM    9 CL1  UNL     1      26.089   2.359  52.090  1.00  0.00    -0.176 Cl
HETATM   10  C9  UNL     1      24.194   2.676  52.901  1.00  0.00     0.141 A 
HETATM   11  C10 UNL     1      23.612   3.622  51.936  1.00  0.00     0.294 C 
HETATM   12  N3  UNL     1      22.595   3.119  51.069  1.00  0.00     0.085 N 
HETATM   13  C11 UNL     1      23.094   2.169  50.142  1.00  0.00     0.273 C 
HETATM   14  C12 UNL     1      22.124   1.730  49.144  1.00  0.00     0.056 C 
HETATM   15  C13 UNL     1      20.953   0.935  49.497  1.00  0.00    -0.029 C 
HETATM   16  C14 UNL     1      20.817   0.669  50.765  1.00  0.00    -0.028 C 
HETATM   17  C15 UNL     1      20.547   0.307  52.122  1.00  0.00     0.021 C 
HETATM   18  C16 UNL     1      20.062  -0.158  53.379  1.00  0.00     0.144 C 
HETATM   19  N4  UNL     1      21.212   0.341  54.086  1.00  0.00    -0.334 N 
HETATM   20  H2  UNL     1      24.053  -1.348  53.262  1.00  0.00     0.160 HD
HETATM   21  H15 UNL     1      21.745   2.902  51.527  1.00  0.00     0.315 HD
HETATM   22  H24 UNL     1      21.271   1.372  54.011  1.00  0.00     0.164 HD
ENDROOT
BRANCH   7  23
HETATM   23  O2  UNL     1      27.133   1.352  54.373  1.00  0.00    -0.379 OA
BRANCH  23  24
HETATM   24  C5  UNL     1      27.981   0.329  54.690  1.00  0.00     0.171 C 
BRANCH  24  25
HETATM   25  C6  UNL     1      29.314   0.559  53.941  1.00  0.00     0.057 C 
BRANCH  25  26
HETATM   26  C7  UNL     1      29.844  -0.792  53.572  1.00  0.00     0.224 C 
HETATM   27  F1  UNL     1      28.808  -1.599  53.248  1.00  0.00    -0.255 F 
ENDBRANCH  25  26
ENDBRANCH  24  25
ENDBRANCH  23  24
ENDBRANCH   7  23
TORSDOF 4
ENDMDL
MODEL 2
REMARK VINA RESULT:      -7.6      1.139      1.228
REMARK  4 active torsions:
REMARK  status: ('A' for Active; 'I' for Inactive)
REMARK    1  A    between atoms: C4_7  and  O2_8 
REMARK    2  A    between atoms: O2_8  and  C5_9 
REMARK    3  A    between atoms: C5_9  and  C6_10 
REMARK    4  A    between atoms: C6_10  and  C7_11 
ROOT
HETATM    1  O1  UNL     1      20.736  -0.979  53.981  1.00  0.00    -0.245 OA
HETATM    2  C1  UNL     1      21.563  -0.176  54.463  1.00  0.00     0.343 C 
HETATM    3  N1  UNL     1      22.362  -0.918  55.272  1.00  0.00    -0.190 NA
HETATM    4  C2  UNL     1      23.406  -1.468  55.403  1.00  0.00     0.208 C 
HETATM    5  N2  UNL     1      23.952  -1.115  54.042  1.00  0.00    -0.382 N 
HETATM    6  C3  UNL     1      25.272  -0.444  53.966  1.00  0.00     0.157 C 
HETATM    7  C4  UNL     1      25.323   0.956  54.397  1.00  0.00     0.180 C 
HETATM    8  C8  UNL     1      24.788   1.935  53.393  1.00  0.00     0.024 A 
HETATM    9 CL1  UNL     1      25.973   2.264  52.061  1.00  0.00    -0.176 Cl
HETATM   10  C9  UNL     1      24.046   2.741  52.703  1.00  0.00     0.141 A 
HETATM   11  C10 UNL     1      23.623   3.709  51.679  1.00  0.00     0.294 C 
HETATM   12  N3  UNL     1      22.646   3.266  50.735  1.00  0.00     0.085 N 
HETATM   13  C11 UNL     1      23.147   2.262  49.868  1.00  0.00     0.273 C 
HETATM   14  C12 UNL     1      22.232   1.877  48.797  1.00  0.00     0.056 C 
HETATM   15  C13 UNL     1      20.978   1.181  49.060  1.00  0.00    -0.029 C 
HETATM   16  C14 UNL     1      20.717   0.953  50.316  1.00  0.00    -0.028 C 
HETATM   17  C15 UNL     1      20.306   0.640  51.650  1.00  0.00     0.021 C 
HETATM   18  C16 UNL     1      19.683   0.240  52.868  1.00  0.00     0.144 C 
HETATM   19  N4  UNL     1      20.804   0.665  53.662  1.00  0.00    -0.334 N 
HETATM   20  H2  UNL     1      23.565  -1.252  53.109  1.00  0.00     0.160 HD
HETATM   21  H15 UNL     1      21.747   3.124  51.123  1.00  0.00     0.315 HD
HETATM   22  H24 UNL     1      20.949   1.686  53.579  1.00  0.00     0.164 HD
ENDROOT
BRANCH   7  23
HETATM   23  O2  UNL     1      26.740   1.228  54.440  1.00  0.00    -0.379 OA
BRANCH  23  24
HETATM   24  C5  UNL     1      27.502   0.095  54.407  1.00  0.00     0.171 C 
BRANCH  24  25
HETATM   25  C6  UNL     1      28.987   0.509  54.519  1.00  0.00     0.057 C 
BRANCH  25  26
HETATM   26  C7  UNL     1      29.071   1.943  54.097  1.00  0.00     0.224 C 
HETATM   27  F1  UNL     1      30.001   2.571  54.852  1.00  0.00    -0.255 F 
ENDBRANCH  25  26
ENDBRANCH  24  25
ENDBRANCH  23  24
ENDBRANCH   7  23
TORSDOF 4
ENDMDL
MODEL 3
REMARK VINA RESULT:      -7.1      3.601      6.179
REMARK  4 active torsions:
REMARK  status: ('A' for Active; 'I' for Inactive)
REMARK    1  A    between atoms: C4_7  and  O2_8 
REMARK    2  A    between atoms: O2_8  and  C5_9 
REMARK    3  A    between atoms: C5_9  and  C6_10 
REMARK    4  A    between atoms: C6_10  and  C7_11 
ROOT
HETATM    1  O1  UNL     1      27.237   4.018  50.192  1.00  0.00    -0.245 OA
HETATM    2  C1  UNL     1      26.425   3.070  50.143  1.00  0.00     0.343 C 
HETATM    3  N1  UNL     1      26.917   2.126  50.984  1.00  0.00    -0.190 NA
HETATM    4  C2  UNL     1      26.850   1.617  52.055  1.00  0.00     0.208 C 
HETATM    5  N2  UNL     1      25.723   2.472  52.575  1.00  0.00    -0.382 N 
HETATM    6  C3  UNL     1      24.516   1.798  53.112  1.00  0.00     0.157 C 
HETATM    7  C4  UNL     1      23.634   1.154  52.134  1.00  0.00     0.180 C 
HETATM    8  C8  UNL     1      22.747   2.102  51.381  1.00  0.00     0.024 A 
HETATM    9 CL1  UNL     1      21.323   2.635  52.368  1.00  0.00    -0.176 Cl
HETATM   10  C9  UNL     1      22.228   2.905  50.508  1.00  0.00     0.141 A 
HETATM   11  C10 UNL     1      21.284   3.819  49.847  1.00  0.00     0.294 C 
HETATM   12  N3  UNL     1      21.705   5.173  49.676  1.00  0.00     0.085 N 
HETATM   13  C11 UNL     1      21.823   5.863  50.910  1.00  0.00     0.273 C 
HETATM   14  C12 UNL     1      22.116   7.288  50.780  1.00  0.00     0.056 C 
HETATM   15  C13 UNL     1      23.388   7.774  50.258  1.00  0.00    -0.029 C 
HETATM   16  C14 UNL     1      24.232   6.853  49.889  1.00  0.00    -0.028 C 
HETATM   17  C15 UNL     1      25.249   5.950  49.448  1.00  0.00     0.021 C 
HETATM   18  C16 UNL     1      26.389   5.262  48.939  1.00  0.00     0.144 C 
HETATM   19  N4  UNL     1      25.842   3.971  49.265  1.00  0.00    -0.334 N 
HETATM   20  H2  UNL     1      25.621   3.486  52.629  1.00  0.00     0.160 HD
HETATM   21  H15 UNL     1      22.437   5.288  49.021  1.00  0.00     0.315 HD
HETATM   22  H24 UNL     1      24.972   3.795  48.733  1.00  0.00     0.164 HD
ENDROOT
BRANCH   7  23
HETATM   23  O2  UNL     1      22.726   0.401  52.966  1.00  0.00    -0.379 OA
BRANCH  23  24
HETATM   24  C5  UNL     1      23.368  -0.451  53.819  1.00  0.00     0.171 C 
BRANCH  24  25
HETATM   25  C6  UNL     1      22.325  -1.019  54.809  1.00  0.00     0.057 C 
BRANCH  25  26
HETATM   26  C7  UNL     1      21.003  -0.422  54.436  1.00  0.00     0.224 C 
HETATM   27  F1  UNL     1      20.708   0.573  55.303  1.00  0.00    -0.255 F 
ENDBRANCH  25  26
ENDBRANCH  24  25
ENDBRANCH  23  24
ENDBRANCH   7  23
TORSDOF 4
ENDMDL
MODEL 4
REMARK VINA RESULT:      -6.7      4.339      7.526
REMARK  4 active torsions:
REMARK  status: ('A' for Active; 'I' for Inactive)
REMARK    1  A    between atoms: C4_7  and  O2_8 
REMARK    2  A    between atoms: O2_8  and  C5_9 
REMARK    3  A    between atoms: C5_9  and  C6_10 
REMARK    4  A    between atoms: C6_10  and  C7_11 
ROOT
HETATM    1  O1  UNL     1      22.794   8.070  49.992  1.00  0.00    -0.245 OA
HETATM    2  C1  UNL     1      22.390   7.195  50.785  1.00  0.00     0.343 C 
HETATM    3  N1  UNL     1      21.057   7.080  50.553  1.00  0.00    -0.190 NA
HETATM    4  C2  UNL     1      20.189   6.458  50.034  1.00  0.00     0.208 C 
HETATM    5  N2  UNL     1      21.080   5.405  49.425  1.00  0.00    -0.382 N 
HETATM    6  C3  UNL     1      20.781   3.981  49.708  1.00  0.00     0.157 C 
HETATM    7  C4  UNL     1      21.072   3.505  51.063  1.00  0.00     0.180 C 
HETATM    8  C8  UNL     1      22.525   3.233  51.326  1.00  0.00     0.024 A 
HETATM    9 CL1  UNL     1      23.065   1.655  50.617  1.00  0.00    -0.176 Cl
HETATM   10  C9  UNL     1      23.770   3.311  51.671  1.00  0.00     0.141 A 
HETATM   11  C10 UNL     1      25.177   2.943  51.897  1.00  0.00     0.294 C 
HETATM   12  N3  UNL     1      26.161   3.649  51.139  1.00  0.00     0.085 N 
HETATM   13  C11 UNL     1      26.094   3.350  49.755  1.00  0.00     0.273 C 
HETATM   14  C12 UNL     1      27.167   3.939  48.957  1.00  0.00     0.056 C 
HETATM   15  C13 UNL     1      27.283   5.378  48.756  1.00  0.00    -0.029 C 
HETATM   16  C14 UNL     1      26.384   6.103  49.357  1.00  0.00    -0.028 C 
HETATM   17  C15 UNL     1      25.463   7.016  49.961  1.00  0.00     0.021 C 
HETATM   18  C16 UNL     1      24.695   8.108  50.461  1.00  0.00     0.144 C 
HETATM   19  N4  UNL     1      23.741   7.236  51.094  1.00  0.00    -0.334 N 
HETATM   20  H2  UNL     1      21.899   5.487  48.824  1.00  0.00     0.160 HD
HETATM   21  H15 UNL     1      26.259   4.599  51.394  1.00  0.00     0.315 HD
HETATM   22  H24 UNL     1      24.193   6.668  51.831  1.00  0.00     0.164 HD
ENDROOT
BRANCH   7  23
HETATM   23  O2  UNL     1      20.456   2.199  51.085  1.00  0.00    -0.379 OA
BRANCH  23  24
HETATM   24  C5  UNL     1      20.043   1.827  52.333  1.00  0.00     0.171 C 
BRANCH  24  25
HETATM   25  C6  UNL     1      20.066   0.283  52.407  1.00  0.00     0.057 C 
BRANCH  25  26
HETATM   26  C7  UNL     1      21.082  -0.086  53.444  1.00  0.00     0.224 C 
HETATM   27  F1  UNL     1      21.875   0.983  53.685  1.00  0.00    -0.255 F 
ENDBRANCH  25  26
ENDBRANCH  24  25
ENDBRANCH  23  24
ENDBRANCH   7  23
TORSDOF 4
ENDMDL
MODEL 5
REMARK VINA RESULT:      -6.5      3.246      4.511
REMARK  4 active torsions:
REMARK  status: ('A' for Active; 'I' for Inactive)
REMARK    1  A    between atoms: C4_7  and  O2_8 
REMARK    2  A    between atoms: O2_8  and  C5_9 
REMARK    3  A    between atoms: C5_9  and  C6_10 
REMARK    4  A    between atoms: C6_10  and  C7_11 
ROOT
HETATM    1  O1  UNL     1      22.254  -0.715  53.498  1.00  0.00    -0.245 OA
HETATM    2  C1  UNL     1      22.524   0.503  53.561  1.00  0.00     0.343 C 
HETATM    3  N1  UNL     1      23.870   0.586  53.408  1.00  0.00    -0.190 NA
HETATM    4  C2  UNL     1      24.773   0.823  52.674  1.00  0.00     0.208 C 
HETATM    5  N2  UNL     1      23.929   1.137  51.465  1.00  0.00    -0.382 N 
HETATM    6  C3  UNL     1      24.138   2.435  50.779  1.00  0.00     0.157 C 
HETATM    7  C4  UNL     1      23.662   3.632  51.477  1.00  0.00     0.180 C 
HETATM    8  C8  UNL     1      22.179   3.849  51.396  1.00  0.00     0.024 A 
HETATM    9 CL1  UNL     1      21.676   4.539  49.797  1.00  0.00    -0.176 Cl
HETATM   10  C9  UNL     1      20.904   3.876  51.618  1.00  0.00     0.141 A 
HETATM   11  C10 UNL     1      19.468   4.147  51.449  1.00  0.00     0.294 C 
HETATM   12  N3  UNL     1      18.613   3.019  51.261  1.00  0.00     0.085 N 
HETATM   13  C11 UNL     1      18.841   2.367  50.022  1.00  0.00     0.273 C 
HETATM   14  C12 UNL     1      17.899   1.293  49.721  1.00  0.00     0.056 C 
HETATM   15  C13 UNL     1      17.861   0.056  50.491  1.00  0.00    -0.029 C 
HETATM   16  C14 UNL     1      18.703  -0.013  51.483  1.00  0.00    -0.028 C 
HETATM   17  C15 UNL     1      19.573  -0.221  52.598  1.00  0.00     0.021 C 
HETATM   18  C16 UNL     1      20.312  -0.650  53.740  1.00  0.00     0.144 C 
HETATM   19  N4  UNL     1      21.147   0.522  53.725  1.00  0.00    -0.334 N 
HETATM   20  H2  UNL     1      23.194   0.601  51.003  1.00  0.00     0.160 HD
HETATM   21  H15 UNL     1      18.517   2.447  52.062  1.00  0.00     0.315 HD
HETATM   22  H24 UNL     1      20.585   1.377  53.883  1.00  0.00     0.164 HD
ENDROOT
BRANCH   7  23
HETATM   23  O2  UNL     1      24.223   4.707  50.693  1.00  0.00    -0.379 OA
BRANCH  23  24
HETATM   24  C5  UNL     1      25.224   4.292  49.861  1.00  0.00     0.171 C 
BRANCH  24  25
HETATM   25  C6  UNL     1      25.803   5.536  49.148  1.00  0.00     0.057 C 
BRANCH  25  26
HETATM   26  C7  UNL     1      27.186   5.175  48.700  1.00  0.00     0.224 C 
HETATM   27  F1  UNL     1      27.349   3.837  48.808  1.00  0.00    -0.255 F 
ENDBRANCH  25  26
ENDBRANCH  24  25
ENDBRANCH  23  24
ENDBRANCH   7  23
TORSDOF 4
ENDMDL
MODEL 6
REMARK VINA RESULT:      -6.5      2.915      4.845
REMARK  4 active torsions:
REMARK  status: ('A' for Active; 'I' for Inactive)
REMARK    1  A    between atoms: C4_7  and  O2_8 
REMARK    2  A    between atoms: O2_8  and  C5_9 
REMARK    3  A    between atoms: C5_9  and  C6_10 
REMARK    4  A    between atoms: C6_10  and  C7_11 
ROOT
HETATM    1  O1  UNL     1      23.939   4.413  48.808  1.00  0.00    -0.245 OA
HETATM    2  C1  UNL     1      24.172   3.263  49.236  1.00  0.00     0.343 C 
HETATM    3  N1  UNL     1      25.405   3.327  49.798  1.00  0.00    -0.190 NA
HETATM    4  C2  UNL     1      26.037   3.407  50.801  1.00  0.00     0.208 C 
HETATM    5  N2  UNL     1      24.857   3.449  51.738  1.00  0.00    -0.382 N 
HETATM    6  C3  UNL     1      24.803   2.466  52.847  1.00  0.00     0.157 C 
HETATM    7  C4  UNL     1      24.517   1.077  52.480  1.00  0.00     0.180 C 
HETATM    8  C8  UNL     1      23.071   0.798  52.187  1.00  0.00     0.024 A 
HETATM    9 CL1  UNL     1      22.086   0.638  53.701  1.00  0.00    -0.176 Cl
HETATM   10  C9  UNL     1      21.922   0.613  51.621  1.00  0.00     0.141 A 
HETATM   11  C10 UNL     1      20.493   0.315  51.439  1.00  0.00     0.294 C 
HETATM   12  N3  UNL     1      19.662   1.382  50.980  1.00  0.00     0.085 N 
HETATM   13  C11 UNL     1      19.530   2.418  51.940  1.00  0.00     0.273 C 
HETATM   14  C12 UNL     1      18.580   3.465  51.574  1.00  0.00     0.056 C 
HETATM   15  C13 UNL     1      18.820   4.375  50.460  1.00  0.00    -0.029 C 
HETATM   16  C14 UNL     1      19.923   4.172  49.798  1.00  0.00    -0.028 C 
HETATM   17  C15 UNL     1      21.096   4.061  48.986  1.00  0.00     0.021 C 
HETATM   18  C16 UNL     1      22.159   4.140  48.039  1.00  0.00     0.144 C 
HETATM   19  N4  UNL     1      22.908   3.098  48.689  1.00  0.00    -0.334 N 
HETATM   20  H2  UNL     1      24.038   4.056  51.757  1.00  0.00     0.160 HD
HETATM   21  H15 UNL     1      19.833   1.651  50.043  1.00  0.00     0.315 HD
HETATM   22  H24 UNL     1      22.389   2.203  48.667  1.00  0.00     0.164 HD
ENDROOT
BRANCH   7  23
HETATM   23  O2  UNL     1      24.777   0.359  53.706  1.00  0.00    -0.379 OA
BRANCH  23  24
HETATM   24  C5  UNL     1      25.452  -0.811  53.504  1.00  0.00     0.171 C 
BRANCH  24  25
HETATM   25  C6  UNL     1      26.568  -0.551  52.466  1.00  0.00     0.057 C 
BRANCH  25  26
HETATM   26  C7  UNL     1      27.835  -1.099  53.045  1.00  0.00     0.224 C 
HETATM   27  F1  UNL     1      28.233  -0.307  54.067  1.00  0.00    -0.255 F 
ENDBRANCH  25  26
ENDBRANCH  24  25
ENDBRANCH  23  24
ENDBRANCH   7  23
TORSDOF 4
ENDMDL
MODEL 7
REMARK VINA RESULT:      -6.4     10.765     13.556
REMARK  4 active torsions:
REMARK  status: ('A' for Active; 'I' for Inactive)
REMARK    1  A    between atoms: C4_7  and  O2_8 
REMARK    2  A    between atoms: O2_8  and  C5_9 
REMARK    3  A    between atoms: C5_9  and  C6_10 
REMARK    4  A    between atoms: C6_10  and  C7_11 
ROOT
HETATM    1  O1  UNL     1      30.149   5.580  48.701  1.00  0.00    -0.245 OA
HETATM    2  C1  UNL     1      30.010   6.542  47.917  1.00  0.00     0.343 C 
HETATM    3  N1  UNL     1      28.927   7.225  48.367  1.00  0.00    -0.190 NA
HETATM    4  C2  UNL     1      28.527   8.165  48.973  1.00  0.00     0.208 C 
HETATM    5  N2  UNL     1      29.881   8.727  49.323  1.00  0.00    -0.382 N 
HETATM    6  C3  UNL     1      30.169  10.139  48.973  1.00  0.00     0.157 C 
HETATM    7  C4  UNL     1      30.365  10.436  47.552  1.00  0.00     0.180 C 
HETATM    8  C8  UNL     1      31.712  10.048  47.016  1.00  0.00     0.024 A 
HETATM    9 CL1  UNL     1      33.000  11.237  47.479  1.00  0.00    -0.176 Cl
HETATM   10  C9  UNL     1      32.712   9.436  46.467  1.00  0.00     0.141 A 
HETATM   11  C10 UNL     1      34.067   9.155  45.968  1.00  0.00     0.294 C 
HETATM   12  N3  UNL     1      34.783   8.094  46.601  1.00  0.00     0.085 N 
HETATM   13  C11 UNL     1      35.122   8.395  47.945  1.00  0.00     0.273 C 
HETATM   14  C12 UNL     1      35.975   7.401  48.591  1.00  0.00     0.056 C 
HETATM   15  C13 UNL     1      35.503   6.055  48.894  1.00  0.00    -0.029 C 
HETATM   16  C14 UNL     1      34.283   5.791  48.525  1.00  0.00    -0.028 C 
HETATM   17  C15 UNL     1      32.962   5.368  48.173  1.00  0.00     0.021 C 
HETATM   18  C16 UNL     1      31.721   4.718  47.912  1.00  0.00     0.144 C 
HETATM   19  N4  UNL     1      31.126   5.915  47.381  1.00  0.00    -0.334 N 
HETATM   20  H2  UNL     1      30.688   8.298  49.777  1.00  0.00     0.160 HD
HETATM   21  H15 UNL     1      34.415   7.194  46.417  1.00  0.00     0.315 HD
HETATM   22  H24 UNL     1      31.624   6.229  46.530  1.00  0.00     0.164 HD
ENDROOT
BRANCH   7  23
HETATM   23  O2  UNL     1      30.372  11.880  47.523  1.00  0.00    -0.379 OA
BRANCH  23  24
HETATM   24  C5  UNL     1      29.295  12.405  46.867  1.00  0.00     0.171 C 
BRANCH  24  25
HETATM   25  C6  UNL     1      28.987  13.790  47.480  1.00  0.00     0.057 C 
BRANCH  25  26
HETATM   26  C7  UNL     1      27.910  13.584  48.500  1.00  0.00     0.224 C 
HETATM   27  F1  UNL     1      28.477  13.210  49.670  1.00  0.00    -0.255 F 
ENDBRANCH  25  26
ENDBRANCH  24  25
ENDBRANCH  23  24
ENDBRANCH   7  23
TORSDOF 4
ENDMDL
MODEL 8
REMARK VINA RESULT:      -6.3      4.004      6.222
REMARK  4 active torsions:
REMARK  status: ('A' for Active; 'I' for Inactive)
REMARK    1  A    between atoms: C4_7  and  O2_8 
REMARK    2  A    between atoms: O2_8  and  C5_9 
REMARK    3  A    between atoms: C5_9  and  C6_10 
REMARK    4  A    between atoms: C6_10  and  C7_11 
ROOT
HETATM    1  O1  UNL     1      19.806   4.711  48.641  1.00  0.00    -0.245 OA
HETATM    2  C1  UNL     1      19.796   4.162  49.763  1.00  0.00     0.343 C 
HETATM    3  N1  UNL     1      18.961   3.099  49.640  1.00  0.00    -0.190 NA
HETATM    4  C2  UNL     1      18.864   1.924  49.497  1.00  0.00     0.208 C 
HETATM    5  N2  UNL     1      20.344   1.639  49.441  1.00  0.00    -0.382 N 
HETATM    6  C3  UNL     1      20.902   0.629  50.372  1.00  0.00     0.157 C 
HETATM    7  C4  UNL     1      20.984   1.011  51.784  1.00  0.00     0.180 C 
HETATM    8  C8  UNL     1      22.131   1.922  52.114  1.00  0.00     0.024 A 
HETATM    9 CL1  UNL     1      23.703   1.027  52.228  1.00  0.00    -0.176 Cl
HETATM   10  C9  UNL     1      22.889   2.943  52.355  1.00  0.00     0.141 A 
HETATM   11  C10 UNL     1      24.073   3.747  52.699  1.00  0.00     0.294 C 
HETATM   12  N3  UNL     1      24.599   4.594  51.677  1.00  0.00     0.085 N 
HETATM   13  C11 UNL     1      25.160   3.860  50.601  1.00  0.00     0.273 C 
HETATM   14  C12 UNL     1      25.835   4.679  49.598  1.00  0.00     0.056 C 
HETATM   15  C13 UNL     1      25.109   5.604  48.735  1.00  0.00    -0.029 C 
HETATM   16  C14 UNL     1      23.825   5.672  48.939  1.00  0.00    -0.028 C 
HETATM   17  C15 UNL     1      22.410   5.844  49.058  1.00  0.00     0.021 C 
HETATM   18  C16 UNL     1      21.030   6.197  48.996  1.00  0.00     0.144 C 
HETATM   19  N4  UNL     1      20.664   5.220  49.987  1.00  0.00    -0.334 N 
HETATM   20  H2  UNL     1      21.080   2.033  48.856  1.00  0.00     0.160 HD
HETATM   21  H15 UNL     1      24.016   5.360  51.448  1.00  0.00     0.315 HD
HETATM   22  H24 UNL     1      21.113   5.430  50.895  1.00  0.00     0.164 HD
ENDROOT
BRANCH   7  23
HETATM   23  O2  UNL     1      21.319  -0.233  52.436  1.00  0.00    -0.379 OA
BRANCH  23  24
HETATM   24  C5  UNL     1      20.420  -0.586  53.402  1.00  0.00     0.171 C 
BRANCH  24  25
HETATM   25  C6  UNL     1      21.145  -0.560  54.767  1.00  0.00     0.057 C 
BRANCH  25  26
HETATM   26  C7  UNL     1      22.350  -1.440  54.636  1.00  0.00     0.224 C 
HETATM   27  F1  UNL     1      23.059  -1.393  55.786  1.00  0.00    -0.255 F 
ENDBRANCH  25  26
ENDBRANCH  24  25
ENDBRANCH  23  24
ENDBRANCH   7  23
TORSDOF 4
ENDMDL
MODEL 9
REMARK VINA RESULT:      -6.2     11.717     14.348
REMARK  4 active torsions:
REMARK  status: ('A' for Active; 'I' for Inactive)
REMARK    1  A    between atoms: C4_7  and  O2_8 
REMARK    2  A    between atoms: O2_8  and  C5_9 
REMARK    3  A    between atoms: C5_9  and  C6_10 
REMARK    4  A    between atoms: C6_10  and  C7_11 
ROOT
HETATM    1  O1  UNL     1      33.348   6.648  42.728  1.00  0.00    -0.245 OA
HETATM    2  C1  UNL     1      33.514   7.618  43.496  1.00  0.00     0.343 C 
HETATM    3  N1  UNL     1      32.477   8.459  43.251  1.00  0.00    -0.190 NA
HETATM    4  C2  UNL     1      31.416   8.858  43.607  1.00  0.00     0.208 C 
HETATM    5  N2  UNL     1      31.312   7.985  44.832  1.00  0.00    -0.382 N 
HETATM    6  C3  UNL     1      31.053   8.636  46.139  1.00  0.00     0.157 C 
HETATM    7  C4  UNL     1      32.158   9.400  46.724  1.00  0.00     0.180 C 
HETATM    8  C8  UNL     1      33.218   8.558  47.373  1.00  0.00     0.024 A 
HETATM    9 CL1  UNL     1      32.713   7.968  49.011  1.00  0.00    -0.176 Cl
HETATM   10  C9  UNL     1      34.278   7.863  47.635  1.00  0.00     0.141 A 
HETATM   11  C10 UNL     1      35.262   7.047  48.365  1.00  0.00     0.294 C 
HETATM   12  N3  UNL     1      35.454   5.706  47.912  1.00  0.00     0.085 N 
HETATM   13  C11 UNL     1      34.314   4.892  48.132  1.00  0.00     0.273 C 
HETATM   14  C12 UNL     1      34.510   3.480  47.815  1.00  0.00     0.056 C 
HETATM   15  C13 UNL     1      34.718   3.014  46.449  1.00  0.00    -0.029 C 
HETATM   16  C14 UNL     1      34.746   3.943  45.537  1.00  0.00    -0.028 C 
HETATM   17  C15 UNL     1      34.800   4.859  44.439  1.00  0.00     0.021 C 
HETATM   18  C16 UNL     1      34.906   5.562  43.204  1.00  0.00     0.144 C 
HETATM   19  N4  UNL     1      34.607   6.828  43.819  1.00  0.00    -0.334 N 
HETATM   20  H2  UNL     1      31.395   6.975  44.944  1.00  0.00     0.160 HD
HETATM   21  H15 UNL     1      35.896   5.639  47.030  1.00  0.00     0.315 HD
HETATM   22  H24 UNL     1      35.332   7.081  44.513  1.00  0.00     0.164 HD
ENDROOT
BRANCH   7  23
HETATM   23  O2  UNL     1      31.527  10.089  47.824  1.00  0.00    -0.379 OA
BRANCH  23  24
HETATM   24  C5  UNL     1      30.176  10.219  47.666  1.00  0.00     0.171 C 
BRANCH  24  25
HETATM   25  C6  UNL     1      29.552  10.477  49.057  1.00  0.00     0.057 C 
BRANCH  25  26
HETATM   26  C7  UNL     1      28.738   9.268  49.399  1.00  0.00     0.224 C 
HETATM   27  F1  UNL     1      29.452   8.158  49.105  1.00  0.00    -0.255 F 
ENDBRANCH  25  26
ENDBRANCH  24  25
ENDBRANCH  23  24
ENDBRANCH   7  23
TORSDOF 4
ENDMDL
