MODEL 1
REMARK VINA RESULT:      -8.9      0.000      0.000
REMARK  1 active torsions:
REMARK  status: ('A' for Active; 'I' for Inactive)
REMARK    1  A    between atoms: C1_2  and  C2_3 
ROOT
HETATM    1  C2  UNL     1      23.790   4.199  52.705  1.00  0.00     0.051 C 
HETATM    2  C3  UNL     1      23.490   2.915  52.584  1.00  0.00    -0.018 C 
HETATM    3  C4  UNL     1      24.376   1.776  52.913  1.00  0.00     0.001 A 
HETATM    4  C5  UNL     1      25.734   1.660  53.120  1.00  0.00     0.014 A 
HETATM    5  C6  UNL     1      26.212   0.380  53.412  1.00  0.00     0.001 A 
HETATM    6  C7  UNL     1      25.366  -0.720  53.491  1.00  0.00     0.002 A 
HETATM    7  C8  UNL     1      23.993  -0.577  53.277  1.00  0.00     0.032 A 
HETATM    8  C9  UNL     1      23.566   0.696  52.995  1.00  0.00     0.063 A 
HETATM    9  N1  UNL     1      22.207   1.050  52.745  1.00  0.00    -0.274 N 
HETATM   10  C10 UNL     1      22.193   2.344  52.090  1.00  0.00     0.144 C 
HETATM   11  C11 UNL     1      21.979   2.388  50.651  1.00  0.00     0.052 C 
HETATM   12  C12 UNL     1      21.359   1.278  49.917  1.00  0.00     0.122 C 
HETATM   13  N2  UNL     1      19.945   1.020  50.238  1.00  0.00    -0.388 N 
HETATM   14  C13 UNL     1      19.333   0.267  51.313  1.00  0.00     0.057 A 
HETATM   15  C14 UNL     1      18.078  -0.102  51.017  1.00  0.00     0.031 A 
HETATM   16  C15 UNL     1      17.388  -0.836  51.967  1.00  0.00     0.002 A 
HETATM   17  C16 UNL     1      17.964  -1.187  53.191  1.00  0.00     0.002 A 
HETATM   18  C17 UNL     1      19.244  -0.823  53.520  1.00  0.00     0.034 A 
HETATM   19  C18 UNL     1      19.882  -0.101  52.552  1.00  0.00     0.084 A 
HETATM   20  N3  UNL     1      21.183   0.146  53.155  1.00  0.00    -0.238 N 
HETATM   21  C19 UNL     1      21.537  -0.557  54.301  1.00  0.00     0.499 C 
HETATM   22  O2  UNL     1      21.804  -1.230  55.345  1.00  0.00    -0.390 OA
HETATM   23  H12 UNL     1      19.141   1.393  49.654  1.00  0.00     0.159 HD
ENDROOT
BRANCH   1  24
HETATM   24  C1  UNL     1      22.845   5.253  52.354  1.00  0.00     0.259 C 
HETATM   25  O1  UNL     1      22.906   5.819  51.232  1.00  0.00    -0.302 OA
ENDBRANCH   1  24
TORSDOF 1
ENDMDL
MODEL 2
REMARK VINA RESULT:      -8.5      3.029      4.653
REMARK  1 active torsions:
REMARK  status: ('A' for Active; 'I' for Inactive)
REMARK    1  A    between atoms: C1_2  and  C2_3 
ROOT
HETATM    1  C2  UNL     1      23.226   6.988  50.478  1.00  0.00     0.051 C 
HETATM    2  C3  UNL     1      23.740   5.781  50.295  1.00  0.00    -0.018 C 
HETATM    3  C4  UNL     1      25.066   5.476  49.713  1.00  0.00     0.001 A 
HETATM    4  C5  UNL     1      25.964   6.207  48.966  1.00  0.00     0.014 A 
HETATM    5  C6  UNL     1      27.139   5.551  48.587  1.00  0.00     0.001 A 
HETATM    6  C7  UNL     1      27.390   4.230  48.943  1.00  0.00     0.002 A 
HETATM    7  C8  UNL     1      26.463   3.510  49.700  1.00  0.00     0.032 A 
HETATM    8  C9  UNL     1      25.326   4.192  50.052  1.00  0.00     0.063 A 
HETATM    9  N1  UNL     1      24.261   3.635  50.820  1.00  0.00    -0.274 N 
HETATM   10  C10 UNL     1      23.090   4.472  50.638  1.00  0.00     0.144 C 
HETATM   11  C11 UNL     1      22.049   4.015  49.731  1.00  0.00     0.052 C 
HETATM   12  C12 UNL     1      21.911   2.606  49.343  1.00  0.00     0.122 C 
HETATM   13  N2  UNL     1      21.532   1.686  50.428  1.00  0.00    -0.388 N 
HETATM   14  C13 UNL     1      22.330   1.027  51.442  1.00  0.00     0.057 A 
HETATM   15  C14 UNL     1      21.710  -0.049  51.948  1.00  0.00     0.031 A 
HETATM   16  C15 UNL     1      22.377  -0.769  52.924  1.00  0.00     0.002 A 
HETATM   17  C16 UNL     1      23.648  -0.403  53.373  1.00  0.00     0.002 A 
HETATM   18  C17 UNL     1      24.305   0.691  52.873  1.00  0.00     0.034 A 
HETATM   19  C18 UNL     1      23.606   1.369  51.916  1.00  0.00     0.084 A 
HETATM   20  N3  UNL     1      24.515   2.454  51.576  1.00  0.00    -0.238 N 
HETATM   21  C19 UNL     1      25.827   2.399  52.032  1.00  0.00     0.499 C 
HETATM   22  O2  UNL     1      27.013   2.292  52.476  1.00  0.00    -0.390 OA
HETATM   23  H12 UNL     1      20.532   1.372  50.600  1.00  0.00     0.159 HD
ENDROOT
BRANCH   1  24
HETATM   24  C1  UNL     1      21.905   7.187  51.063  1.00  0.00     0.259 C 
HETATM   25  O1  UNL     1      20.913   7.439  50.331  1.00  0.00    -0.302 OA
ENDBRANCH   1  24
TORSDOF 1
ENDMDL
MODEL 3
REMARK VINA RESULT:      -8.4      2.989      6.339
REMARK  1 active torsions:
REMARK  status: ('A' for Active; 'I' for Inactive)
REMARK    1  A    between atoms: C1_2  and  C2_3 
ROOT
HETATM    1  C2  UNL     1      26.391   0.831  54.099  1.00  0.00     0.051 C 
HETATM    2  C3  UNL     1      25.557   1.315  53.191  1.00  0.00    -0.018 C 
HETATM    3  C4  UNL     1      24.212   0.789  52.871  1.00  0.00     0.001 A 
HETATM    4  C5  UNL     1      23.575  -0.406  53.131  1.00  0.00     0.014 A 
HETATM    5  C6  UNL     1      22.270  -0.534  52.647  1.00  0.00     0.001 A 
HETATM    6  C7  UNL     1      21.645   0.488  51.940  1.00  0.00     0.002 A 
HETATM    7  C8  UNL     1      22.312   1.689  51.688  1.00  0.00     0.032 A 
HETATM    8  C9  UNL     1      23.589   1.773  52.183  1.00  0.00     0.063 A 
HETATM    9  N1  UNL     1      24.435   2.912  52.031  1.00  0.00    -0.274 N 
HETATM   10  C10 UNL     1      25.799   2.496  52.296  1.00  0.00     0.144 C 
HETATM   11  C11 UNL     1      26.685   2.273  51.164  1.00  0.00     0.052 C 
HETATM   12  C12 UNL     1      26.423   2.848  49.839  1.00  0.00     0.122 C 
HETATM   13  N2  UNL     1      26.502   4.316  49.761  1.00  0.00    -0.388 N 
HETATM   14  C13 UNL     1      25.528   5.341  50.077  1.00  0.00     0.057 A 
HETATM   15  C14 UNL     1      25.805   6.503  49.466  1.00  0.00     0.031 A 
HETATM   16  C15 UNL     1      24.941   7.561  49.685  1.00  0.00     0.002 A 
HETATM   17  C16 UNL     1      23.818   7.439  50.507  1.00  0.00     0.002 A 
HETATM   18  C17 UNL     1      23.511   6.265  51.144  1.00  0.00     0.034 A 
HETATM   19  C18 UNL     1      24.393   5.253  50.898  1.00  0.00     0.084 A 
HETATM   20  N3  UNL     1      23.839   4.159  51.682  1.00  0.00    -0.238 N 
HETATM   21  C19 UNL     1      22.557   4.287  52.203  1.00  0.00     0.499 C 
HETATM   22  O2  UNL     1      21.381   4.463  52.652  1.00  0.00    -0.390 OA
HETATM   23  H12 UNL     1      27.367   4.834  49.427  1.00  0.00     0.159 HD
ENDROOT
BRANCH   1  24
HETATM   24  C1  UNL     1      27.702   1.422  54.342  1.00  0.00     0.259 C 
HETATM   25  O1  UNL     1      28.556   0.818  55.040  1.00  0.00    -0.302 OA
ENDBRANCH   1  24
TORSDOF 1
ENDMDL
MODEL 4
REMARK VINA RESULT:      -8.4      2.919      5.752
REMARK  1 active torsions:
REMARK  status: ('A' for Active; 'I' for Inactive)
REMARK    1  A    between atoms: C1_2  and  C2_3 
ROOT
HETATM    1  C2  UNL     1      20.667   0.023  51.976  1.00  0.00     0.051 C 
HETATM    2  C3  UNL     1      21.828   0.566  52.312  1.00  0.00    -0.018 C 
HETATM    3  C4  UNL     1      22.774   0.046  53.324  1.00  0.00     0.001 A 
HETATM    4  C5  UNL     1      22.656  -0.863  54.354  1.00  0.00     0.014 A 
HETATM    5  C6  UNL     1      23.805  -1.091  55.116  1.00  0.00     0.001 A 
HETATM    6  C7  UNL     1      25.004  -0.438  54.853  1.00  0.00     0.002 A 
HETATM    7  C8  UNL     1      25.098   0.479  53.804  1.00  0.00     0.032 A 
HETATM    8  C9  UNL     1      23.948   0.673  53.080  1.00  0.00     0.063 A 
HETATM    9  N1  UNL     1      23.837   1.566  51.974  1.00  0.00    -0.274 N 
HETATM   10  C10 UNL     1      22.428   1.817  51.739  1.00  0.00     0.144 C 
HETATM   11  C11 UNL     1      21.862   3.073  52.208  1.00  0.00     0.052 C 
HETATM   12  C12 UNL     1      22.695   4.246  52.499  1.00  0.00     0.122 C 
HETATM   13  N2  UNL     1      23.368   4.848  51.335  1.00  0.00    -0.388 N 
HETATM   14  C13 UNL     1      24.603   4.501  50.663  1.00  0.00     0.057 A 
HETATM   15  C14 UNL     1      25.094   5.527  49.952  1.00  0.00     0.031 A 
HETATM   16  C15 UNL     1      26.279   5.320  49.268  1.00  0.00     0.002 A 
HETATM   17  C16 UNL     1      26.951   4.095  49.309  1.00  0.00     0.002 A 
HETATM   18  C17 UNL     1      26.473   3.030  50.027  1.00  0.00     0.034 A 
HETATM   19  C18 UNL     1      25.302   3.283  50.682  1.00  0.00     0.084 A 
HETATM   20  N3  UNL     1      25.032   2.014  51.340  1.00  0.00    -0.238 N 
HETATM   21  C19 UNL     1      26.036   1.052  51.382  1.00  0.00     0.499 C 
HETATM   22  O2  UNL     1      26.992   0.215  51.389  1.00  0.00    -0.390 OA
HETATM   23  H12 UNL     1      22.982   5.688  50.813  1.00  0.00     0.159 HD
ENDROOT
BRANCH   1  24
HETATM   24  C1  UNL     1      19.801   0.612  50.961  1.00  0.00     0.259 C 
HETATM   25  O1  UNL     1      18.800   1.298  51.294  1.00  0.00    -0.302 OA
ENDBRANCH   1  24
TORSDOF 1
ENDMDL
MODEL 5
REMARK VINA RESULT:      -8.0      3.170      6.423
REMARK  1 active torsions:
REMARK  status: ('A' for Active; 'I' for Inactive)
REMARK    1  A    between atoms: C1_2  and  C2_3 
ROOT
HETATM    1  C2  UNL     1      22.236   0.633  51.967  1.00  0.00     0.051 C 
HETATM    2  C3  UNL     1      23.286   1.441  51.962  1.00  0.00    -0.018 C 
HETATM    3  C4  UNL     1      24.684   1.057  52.260  1.00  0.00     0.001 A 
HETATM    4  C5  UNL     1      25.257  -0.037  52.873  1.00  0.00     0.014 A 
HETATM    5  C6  UNL     1      26.651  -0.034  52.975  1.00  0.00     0.001 A 
HETATM    6  C7  UNL     1      27.421   1.015  52.484  1.00  0.00     0.002 A 
HETATM    7  C8  UNL     1      26.816   2.113  51.867  1.00  0.00     0.032 A 
HETATM    8  C9  UNL     1      25.448   2.068  51.787  1.00  0.00     0.063 A 
HETATM    9  N1  UNL     1      24.645   3.089  51.196  1.00  0.00    -0.274 N 
HETATM   10  C10 UNL     1      23.281   2.910  51.656  1.00  0.00     0.144 C 
HETATM   11  C11 UNL     1      22.787   3.784  52.709  1.00  0.00     0.052 C 
HETATM   12  C12 UNL     1      23.415   5.075  53.014  1.00  0.00     0.122 C 
HETATM   13  N2  UNL     1      23.309   6.095  51.957  1.00  0.00    -0.388 N 
HETATM   14  C13 UNL     1      24.102   6.320  50.767  1.00  0.00     0.057 A 
HETATM   15  C14 UNL     1      23.980   7.575  50.311  1.00  0.00     0.031 A 
HETATM   16  C15 UNL     1      24.698   7.916  49.178  1.00  0.00     0.002 A 
HETATM   17  C16 UNL     1      25.524   6.999  48.524  1.00  0.00     0.002 A 
HETATM   18  C17 UNL     1      25.668   5.710  48.967  1.00  0.00     0.034 A 
HETATM   19  C18 UNL     1      24.940   5.422  50.085  1.00  0.00     0.084 A 
HETATM   20  N3  UNL     1      25.271   4.026  50.323  1.00  0.00    -0.238 N 
HETATM   21  C19 UNL     1      26.331   3.459  49.624  1.00  0.00     0.499 C 
HETATM   22  O2  UNL     1      27.309   2.997  48.957  1.00  0.00    -0.390 OA
HETATM   23  H12 UNL     1      22.566   6.854  51.956  1.00  0.00     0.159 HD
ENDROOT
BRANCH   1  24
HETATM   24  C1  UNL     1      20.891   1.108  51.658  1.00  0.00     0.259 C 
HETATM   25  O1  UNL     1      20.079   1.371  52.582  1.00  0.00    -0.302 OA
ENDBRANCH   1  24
TORSDOF 1
ENDMDL
MODEL 6
REMARK VINA RESULT:      -8.0      4.084      7.563
REMARK  1 active torsions:
REMARK  status: ('A' for Active; 'I' for Inactive)
REMARK    1  A    between atoms: C1_2  and  C2_3 
ROOT
HETATM    1  C2  UNL     1      24.012   2.231  52.917  1.00  0.00     0.051 C 
HETATM    2  C3  UNL     1      23.985   2.558  51.633  1.00  0.00    -0.018 C 
HETATM    3  C4  UNL     1      23.021   2.063  50.627  1.00  0.00     0.001 A 
HETATM    4  C5  UNL     1      22.144   1.000  50.596  1.00  0.00     0.014 A 
HETATM    5  C6  UNL     1      21.382   0.854  49.433  1.00  0.00     0.001 A 
HETATM    6  C7  UNL     1      21.501   1.733  48.362  1.00  0.00     0.002 A 
HETATM    7  C8  UNL     1      22.398   2.803  48.417  1.00  0.00     0.032 A 
HETATM    8  C9  UNL     1      23.123   2.910  49.577  1.00  0.00     0.063 A 
HETATM    9  N1  UNL     1      24.089   3.929  49.828  1.00  0.00    -0.274 N 
HETATM   10  C10 UNL     1      24.925   3.493  50.930  1.00  0.00     0.144 C 
HETATM   11  C11 UNL     1      26.248   2.969  50.628  1.00  0.00     0.052 C 
HETATM   12  C12 UNL     1      26.933   3.254  49.361  1.00  0.00     0.122 C 
HETATM   13  N2  UNL     1      27.315   4.660  49.153  1.00  0.00    -0.388 N 
HETATM   14  C13 UNL     1      26.556   5.791  48.660  1.00  0.00     0.057 A 
HETATM   15  C14 UNL     1      27.351   6.769  48.201  1.00  0.00     0.031 A 
HETATM   16  C15 UNL     1      26.741   7.904  47.696  1.00  0.00     0.002 A 
HETATM   17  C16 UNL     1      25.351   8.040  47.658  1.00  0.00     0.002 A 
HETATM   18  C17 UNL     1      24.514   7.058  48.120  1.00  0.00     0.034 A 
HETATM   19  C18 UNL     1      25.163   5.960  48.609  1.00  0.00     0.084 A 
HETATM   20  N3  UNL     1      24.061   5.105  49.023  1.00  0.00    -0.238 N 
HETATM   21  C19 UNL     1      22.771   5.429  48.618  1.00  0.00     0.499 C 
HETATM   22  O2  UNL     1      21.616   5.776  48.218  1.00  0.00    -0.390 OA
HETATM   23  H12 UNL     1      28.288   5.034  49.358  1.00  0.00     0.159 HD
ENDROOT
BRANCH   1  24
HETATM   24  C1  UNL     1      25.007   2.775  53.835  1.00  0.00     0.259 C 
HETATM   25  O1  UNL     1      26.054   2.129  54.098  1.00  0.00    -0.302 OA
ENDBRANCH   1  24
TORSDOF 1
ENDMDL
MODEL 7
REMARK VINA RESULT:      -7.7      9.165     12.406
REMARK  1 active torsions:
REMARK  status: ('A' for Active; 'I' for Inactive)
REMARK    1  A    between atoms: C1_2  and  C2_3 
ROOT
HETATM    1  C2  UNL     1      31.017   5.334  47.946  1.00  0.00     0.051 C 
HETATM    2  C3  UNL     1      30.006   6.188  47.890  1.00  0.00    -0.018 C 
HETATM    3  C4  UNL     1      28.615   5.923  48.319  1.00  0.00     0.001 A 
HETATM    4  C5  UNL     1      27.907   4.770  48.582  1.00  0.00     0.014 A 
HETATM    5  C6  UNL     1      26.573   4.933  48.968  1.00  0.00     0.001 A 
HETATM    6  C7  UNL     1      25.989   6.190  49.081  1.00  0.00     0.002 A 
HETATM    7  C8  UNL     1      26.727   7.343  48.808  1.00  0.00     0.032 A 
HETATM    8  C9  UNL     1      28.032   7.139  48.435  1.00  0.00     0.063 A 
HETATM    9  N1  UNL     1      28.948   8.184  48.114  1.00  0.00    -0.274 N 
HETATM   10  C10 UNL     1      30.056   7.600  47.383  1.00  0.00     0.144 C 
HETATM   11  C11 UNL     1      30.093   7.762  45.937  1.00  0.00     0.052 C 
HETATM   12  C12 UNL     1      29.340   8.817  45.248  1.00  0.00     0.122 C 
HETATM   13  N2  UNL     1      29.779  10.193  45.531  1.00  0.00    -0.388 N 
HETATM   14  C13 UNL     1      29.465  11.088  46.626  1.00  0.00     0.057 A 
HETATM   15  C14 UNL     1      29.689  12.371  46.306  1.00  0.00     0.031 A 
HETATM   16  C15 UNL     1      29.420  13.326  47.271  1.00  0.00     0.002 A 
HETATM   17  C16 UNL     1      28.931  12.982  48.534  1.00  0.00     0.002 A 
HETATM   18  C17 UNL     1      28.693  11.679  48.888  1.00  0.00     0.034 A 
HETATM   19  C18 UNL     1      28.975  10.776  47.904  1.00  0.00     0.084 A 
HETATM   20  N3  UNL     1      28.643   9.509  48.538  1.00  0.00    -0.238 N 
HETATM   21  C19 UNL     1      27.937   9.523  49.737  1.00  0.00     0.499 C 
HETATM   22  O2  UNL     1      27.291   9.600  50.828  1.00  0.00    -0.390 OA
HETATM   23  H12 UNL     1      30.436  10.735  44.896  1.00  0.00     0.159 HD
ENDROOT
BRANCH   1  24
HETATM   24  C1  UNL     1      32.358   5.690  47.497  1.00  0.00     0.259 C 
HETATM   25  O1  UNL     1      33.227   6.075  48.322  1.00  0.00    -0.302 OA
ENDBRANCH   1  24
TORSDOF 1
ENDMDL
MODEL 8
REMARK VINA RESULT:      -7.5      3.268      6.404
REMARK  1 active torsions:
REMARK  status: ('A' for Active; 'I' for Inactive)
REMARK    1  A    between atoms: C1_2  and  C2_3 
ROOT
HETATM    1  C2  UNL     1      20.915   1.088  50.196  1.00  0.00     0.051 C 
HETATM    2  C3  UNL     1      21.904   1.781  50.741  1.00  0.00    -0.018 C 
HETATM    3  C4  UNL     1      22.852   1.291  51.766  1.00  0.00     0.001 A 
HETATM    4  C5  UNL     1      22.844   0.215  52.627  1.00  0.00     0.014 A 
HETATM    5  C6  UNL     1      23.949   0.087  53.474  1.00  0.00     0.001 A 
HETATM    6  C7  UNL     1      25.001   0.997  53.452  1.00  0.00     0.002 A 
HETATM    7  C8  UNL     1      24.984   2.081  52.570  1.00  0.00     0.032 A 
HETATM    8  C9  UNL     1      23.883   2.167  51.756  1.00  0.00     0.063 A 
HETATM    9  N1  UNL     1      23.677   3.197  50.791  1.00  0.00    -0.274 N 
HETATM   10  C10 UNL     1      22.271   3.204  50.436  1.00  0.00     0.144 C 
HETATM   11  C11 UNL     1      21.416   4.227  51.020  1.00  0.00     0.052 C 
HETATM   12  C12 UNL     1      21.956   5.473  51.578  1.00  0.00     0.122 C 
HETATM   13  N2  UNL     1      22.579   6.384  50.603  1.00  0.00    -0.388 N 
HETATM   14  C13 UNL     1      23.910   6.404  50.034  1.00  0.00     0.057 A 
HETATM   15  C14 UNL     1      24.230   7.612  49.546  1.00  0.00     0.031 A 
HETATM   16  C15 UNL     1      25.484   7.761  48.980  1.00  0.00     0.002 A 
HETATM   17  C16 UNL     1      26.394   6.702  48.913  1.00  0.00     0.002 A 
HETATM   18  C17 UNL     1      26.094   5.458  49.403  1.00  0.00     0.034 A 
HETATM   19  C18 UNL     1      24.847   5.362  49.949  1.00  0.00     0.084 A 
HETATM   20  N3  UNL     1      24.799   3.971  50.373  1.00  0.00    -0.238 N 
HETATM   21  C19 UNL     1      25.976   3.231  50.386  1.00  0.00     0.499 C 
HETATM   22  O2  UNL     1      27.083   2.607  50.377  1.00  0.00    -0.390 OA
HETATM   23  H12 UNL     1      22.069   7.210  50.172  1.00  0.00     0.159 HD
ENDROOT
BRANCH   1  24
HETATM   24  C1  UNL     1      20.030   1.661  49.188  1.00  0.00     0.259 C 
HETATM   25  O1  UNL     1      18.808   1.831  49.433  1.00  0.00    -0.302 OA
ENDBRANCH   1  24
TORSDOF 1
ENDMDL
MODEL 9
REMARK VINA RESULT:      -7.2      5.024      8.097
REMARK  1 active torsions:
REMARK  status: ('A' for Active; 'I' for Inactive)
REMARK    1  A    between atoms: C1_2  and  C2_3 
ROOT
HETATM    1  C2  UNL     1      21.277   4.017  47.706  1.00  0.00     0.051 C 
HETATM    2  C3  UNL     1      22.265   4.358  48.522  1.00  0.00    -0.018 C 
HETATM    3  C4  UNL     1      22.415   3.940  49.933  1.00  0.00     0.001 A 
HETATM    4  C5  UNL     1      21.548   3.400  50.859  1.00  0.00     0.014 A 
HETATM    5  C6  UNL     1      22.076   3.140  52.127  1.00  0.00     0.001 A 
HETATM    6  C7  UNL     1      23.403   3.412  52.441  1.00  0.00     0.002 A 
HETATM    7  C8  UNL     1      24.261   3.960  51.485  1.00  0.00     0.032 A 
HETATM    8  C9  UNL     1      23.704   4.197  50.254  1.00  0.00     0.063 A 
HETATM    9  N1  UNL     1      24.411   4.752  49.146  1.00  0.00    -0.274 N 
HETATM   10  C10 UNL     1      23.435   5.237  48.188  1.00  0.00     0.144 C 
HETATM   11  C11 UNL     1      23.170   6.666  48.134  1.00  0.00     0.052 C 
HETATM   12  C12 UNL     1      24.115   7.658  48.662  1.00  0.00     0.122 C 
HETATM   13  N2  UNL     1      25.399   7.750  47.948  1.00  0.00    -0.388 N 
HETATM   14  C13 UNL     1      26.611   6.965  48.061  1.00  0.00     0.057 A 
HETATM   15  C14 UNL     1      27.680   7.619  47.582  1.00  0.00     0.031 A 
HETATM   16  C15 UNL     1      28.902   6.974  47.641  1.00  0.00     0.002 A 
HETATM   17  C16 UNL     1      29.034   5.690  48.176  1.00  0.00     0.002 A 
HETATM   18  C17 UNL     1      27.960   4.998  48.673  1.00  0.00     0.034 A 
HETATM   19  C18 UNL     1      26.778   5.676  48.591  1.00  0.00     0.084 A 
HETATM   20  N3  UNL     1      25.836   4.730  49.170  1.00  0.00    -0.238 N 
HETATM   21  C19 UNL     1      26.328   3.619  49.845  1.00  0.00     0.499 C 
HETATM   22  O2  UNL     1      26.838   2.625  50.450  1.00  0.00    -0.390 OA
HETATM   23  H12 UNL     1      25.596   8.478  47.200  1.00  0.00     0.159 HD
ENDROOT
BRANCH   1  24
HETATM   24  C1  UNL     1      21.218   4.482  46.325  1.00  0.00     0.259 C 
HETATM   25  O1  UNL     1      21.016   3.670  45.385  1.00  0.00    -0.302 OA
ENDBRANCH   1  24
TORSDOF 1
ENDMDL
