MODEL 1
REMARK VINA RESULT:      -8.0      0.000      0.000
REMARK  2 active torsions:
REMARK  status: ('A' for Active; 'I' for Inactive)
REMARK    1  A    between atoms: C7_7  and  N1_8 
REMARK    2  A    between atoms: C12_15  and  N4_16 
REMARK       I    between atoms: N4_16  and  C13_17 
ROOT
HETATM    1  C1  UNL     1      22.700  -1.242  54.954  1.00  0.00     0.018 C 
HETATM    2  C2  UNL     1      23.571  -0.783  54.235  1.00  0.00    -0.078 C 
HETATM    3  C3  UNL     1      24.591  -0.221  53.370  1.00  0.00     0.019 A 
HETATM    4  C4  UNL     1      25.750  -0.926  53.128  1.00  0.00     0.021 A 
HETATM    5  C5  UNL     1      26.710  -0.381  52.304  1.00  0.00     0.004 A 
HETATM    6  C6  UNL     1      26.459   0.860  51.755  1.00  0.00     0.031 A 
HETATM    7  C7  UNL     1      25.337   1.616  51.948  1.00  0.00     0.053 A 
HETATM    8  C17 UNL     1      24.413   1.013  52.784  1.00  0.00     0.051 A 
ENDROOT
BRANCH   7   9
HETATM    9  N1  UNL     1      25.150   2.903  51.356  1.00  0.00    -0.281 N 
HETATM   10  N2  UNL     1      26.432   3.435  50.930  1.00  0.00    -0.291 N 
HETATM   11  C8  UNL     1      26.598   4.333  49.773  1.00  0.00     0.223 C 
HETATM   12  H5  UNL     1      27.288   3.199  51.435  1.00  0.00     0.188 HD
HETATM   13  N3  UNL     1      25.598   4.880  49.047  1.00  0.00    -0.247 NA
HETATM   14  C9  UNL     1      24.202   4.598  49.363  1.00  0.00     0.038 C 
HETATM   15  C10 UNL     1      23.304   4.103  48.467  1.00  0.00     0.029 C 
HETATM   16  C16 UNL     1      23.762   4.839  50.804  1.00  0.00     0.093 C 
HETATM   17  C11 UNL     1      22.513   2.979  49.097  1.00  0.00     0.029 C 
HETATM   18  C12 UNL     1      22.850   2.690  50.387  1.00  0.00     0.037 C 
HETATM   19  C15 UNL     1      23.808   3.369  51.315  1.00  0.00     0.164 C 
BRANCH  18  20
HETATM   20  N4  UNL     1      22.003   1.531  50.605  1.00  0.00    -0.329 N 
HETATM   21  C13 UNL     1      20.963   1.515  51.606  1.00  0.00     0.217 C 
HETATM   22  C14 UNL     1      20.090   0.339  51.840  1.00  0.00     0.117 C 
HETATM   23  O1  UNL     1      20.724   2.497  52.351  1.00  0.00    -0.274 OA
HETATM   24  H9  UNL     1      22.052   0.625  50.088  1.00  0.00     0.168 HD
ENDBRANCH  18  20
ENDBRANCH   7   9
TORSDOF 2
ENDMDL
MODEL 2
REMARK VINA RESULT:      -7.9      2.456      5.289
REMARK  2 active torsions:
REMARK  status: ('A' for Active; 'I' for Inactive)
REMARK    1  A    between atoms: C7_7  and  N1_8 
REMARK    2  A    between atoms: C12_15  and  N4_16 
REMARK       I    between atoms: N4_16  and  C13_17 
ROOT
HETATM    1  C1  UNL     1      26.578   3.545  49.470  1.00  0.00     0.018 C 
HETATM    2  C2  UNL     1      26.568   2.935  50.525  1.00  0.00    -0.078 C 
HETATM    3  C3  UNL     1      26.534   2.205  51.779  1.00  0.00     0.019 A 
HETATM    4  C4  UNL     1      27.563   2.347  52.684  1.00  0.00     0.021 A 
HETATM    5  C5  UNL     1      27.517   1.648  53.871  1.00  0.00     0.004 A 
HETATM    6  C6  UNL     1      26.428   0.832  54.096  1.00  0.00     0.031 A 
HETATM    7  C7  UNL     1      25.372   0.641  53.249  1.00  0.00     0.053 A 
HETATM    8  C17 UNL     1      25.479   1.371  52.076  1.00  0.00     0.051 A 
ENDROOT
BRANCH   7   9
HETATM    9  N1  UNL     1      24.282  -0.232  53.543  1.00  0.00    -0.281 N 
HETATM   10  N2  UNL     1      24.588  -1.014  54.727  1.00  0.00    -0.291 N 
HETATM   11  C8  UNL     1      23.566  -1.489  55.677  1.00  0.00     0.223 C 
HETATM   12  H5  UNL     1      25.552  -1.271  54.947  1.00  0.00     0.188 HD
HETATM   13  N3  UNL     1      22.228  -1.383  55.518  1.00  0.00    -0.247 NA
HETATM   14  C9  UNL     1      21.663  -0.746  54.333  1.00  0.00     0.038 C 
HETATM   15  C10 UNL     1      20.785   0.293  54.375  1.00  0.00     0.029 C 
HETATM   16  C16 UNL     1      22.139  -1.268  52.980  1.00  0.00     0.093 C 
HETATM   17  C11 UNL     1      21.197   1.357  53.382  1.00  0.00     0.029 C 
HETATM   18  C12 UNL     1      22.330   1.076  52.675  1.00  0.00     0.037 C 
HETATM   19  C15 UNL     1      23.178  -0.157  52.650  1.00  0.00     0.164 C 
BRANCH  18  20
HETATM   20  N4  UNL     1      22.474   2.323  51.944  1.00  0.00    -0.329 N 
HETATM   21  C13 UNL     1      22.424   2.380  50.503  1.00  0.00     0.217 C 
HETATM   22  C14 UNL     1      22.570   3.646  49.743  1.00  0.00     0.117 C 
HETATM   23  O1  UNL     1      22.254   1.361  49.789  1.00  0.00    -0.274 OA
HETATM   24  H9  UNL     1      22.624   3.268  52.361  1.00  0.00     0.168 HD
ENDBRANCH  18  20
ENDBRANCH   7   9
TORSDOF 2
ENDMDL
MODEL 3
REMARK VINA RESULT:      -7.9      2.238      4.755
REMARK  2 active torsions:
REMARK  status: ('A' for Active; 'I' for Inactive)
REMARK    1  A    between atoms: C7_7  and  N1_8 
REMARK    2  A    between atoms: C12_15  and  N4_16 
REMARK       I    between atoms: N4_16  and  C13_17 
ROOT
HETATM    1  C1  UNL     1      29.039  -2.099  53.078  1.00  0.00     0.018 C 
HETATM    2  C2  UNL     1      28.218  -1.205  53.198  1.00  0.00    -0.078 C 
HETATM    3  C3  UNL     1      27.226  -0.155  53.328  1.00  0.00     0.019 A 
HETATM    4  C4  UNL     1      27.622   1.129  53.636  1.00  0.00     0.021 A 
HETATM    5  C5  UNL     1      26.669   2.117  53.757  1.00  0.00     0.004 A 
HETATM    6  C6  UNL     1      25.349   1.766  53.559  1.00  0.00     0.031 A 
HETATM    7  C7  UNL     1      24.882   0.520  53.252  1.00  0.00     0.053 A 
HETATM    8  C17 UNL     1      25.888  -0.426  53.146  1.00  0.00     0.051 A 
ENDROOT
BRANCH   7   9
HETATM    9  N1  UNL     1      23.496   0.226  53.075  1.00  0.00    -0.281 N 
HETATM   10  N2  UNL     1      23.009  -0.539  54.209  1.00  0.00    -0.291 N 
HETATM   11  C8  UNL     1      21.625  -0.464  54.708  1.00  0.00     0.223 C 
HETATM   12  H5  UNL     1      23.630  -1.175  54.712  1.00  0.00     0.188 HD
HETATM   13  N3  UNL     1      20.607   0.202  54.121  1.00  0.00    -0.247 NA
HETATM   14  C9  UNL     1      20.815   0.950  52.885  1.00  0.00     0.038 C 
HETATM   15  C10 UNL     1      20.511   2.268  52.733  1.00  0.00     0.029 C 
HETATM   16  C16 UNL     1      21.456   0.193  51.725  1.00  0.00     0.093 C 
HETATM   17  C11 UNL     1      21.652   2.985  52.048  1.00  0.00     0.029 C 
HETATM   18  C12 UNL     1      22.723   2.198  51.738  1.00  0.00     0.037 C 
HETATM   19  C15 UNL     1      22.913   0.720  51.876  1.00  0.00     0.164 C 
BRANCH  18  20
HETATM   20  N4  UNL     1      23.628   3.212  51.226  1.00  0.00    -0.329 N 
HETATM   21  C13 UNL     1      23.847   3.405  49.813  1.00  0.00     0.217 C 
HETATM   22  C14 UNL     1      24.769   4.436  49.275  1.00  0.00     0.117 C 
HETATM   23  O1  UNL     1      23.274   2.712  48.936  1.00  0.00    -0.274 OA
HETATM   24  H9  UNL     1      24.193   3.879  51.797  1.00  0.00     0.168 HD
ENDBRANCH  18  20
ENDBRANCH   7   9
TORSDOF 2
ENDMDL
MODEL 4
REMARK VINA RESULT:      -7.8      2.238      4.470
REMARK  2 active torsions:
REMARK  status: ('A' for Active; 'I' for Inactive)
REMARK    1  A    between atoms: C7_7  and  N1_8 
REMARK    2  A    between atoms: C12_15  and  N4_16 
REMARK       I    between atoms: N4_16  and  C13_17 
ROOT
HETATM    1  C1  UNL     1      19.363   0.721  50.654  1.00  0.00     0.018 C 
HETATM    2  C2  UNL     1      20.099   0.364  51.559  1.00  0.00    -0.078 C 
HETATM    3  C3  UNL     1      20.994  -0.056  52.620  1.00  0.00     0.019 A 
HETATM    4  C4  UNL     1      20.508  -0.807  53.669  1.00  0.00     0.021 A 
HETATM    5  C5  UNL     1      21.369  -1.200  54.671  1.00  0.00     0.004 A 
HETATM    6  C6  UNL     1      22.691  -0.817  54.571  1.00  0.00     0.031 A 
HETATM    7  C7  UNL     1      23.244  -0.075  53.565  1.00  0.00     0.053 A 
HETATM    8  C17 UNL     1      22.327   0.287  52.592  1.00  0.00     0.051 A 
ENDROOT
BRANCH   7   9
HETATM    9  N1  UNL     1      24.622   0.296  53.534  1.00  0.00    -0.281 N 
HETATM   10  N2  UNL     1      25.451  -0.894  53.604  1.00  0.00    -0.291 N 
HETATM   11  C8  UNL     1      26.778  -1.002  52.972  1.00  0.00     0.223 C 
HETATM   12  H5  UNL     1      25.131  -1.722  54.111  1.00  0.00     0.188 HD
HETATM   13  N3  UNL     1      27.451   0.003  52.370  1.00  0.00    -0.247 NA
HETATM   14  C9  UNL     1      26.879   1.343  52.285  1.00  0.00     0.038 C 
HETATM   15  C10 UNL     1      26.713   2.027  51.120  1.00  0.00     0.029 C 
HETATM   16  C16 UNL     1      26.404   1.970  53.593  1.00  0.00     0.093 C 
HETATM   17  C11 UNL     1      25.334   2.644  51.076  1.00  0.00     0.029 C 
HETATM   18  C12 UNL     1      24.556   2.395  52.169  1.00  0.00     0.037 C 
HETATM   19  C15 UNL     1      24.879   1.692  53.450  1.00  0.00     0.164 C 
BRANCH  18  20
HETATM   20  N4  UNL     1      23.318   3.018  51.733  1.00  0.00    -0.329 N 
HETATM   21  C13 UNL     1      22.885   4.300  52.232  1.00  0.00     0.217 C 
HETATM   22  C14 UNL     1      21.623   4.947  51.796  1.00  0.00     0.117 C 
HETATM   23  O1  UNL     1      23.544   4.959  53.074  1.00  0.00    -0.274 OA
HETATM   24  H9  UNL     1      22.639   2.624  51.045  1.00  0.00     0.168 HD
ENDBRANCH  18  20
ENDBRANCH   7   9
TORSDOF 2
ENDMDL
MODEL 5
REMARK VINA RESULT:      -7.7      1.752      2.860
REMARK  2 active torsions:
REMARK  status: ('A' for Active; 'I' for Inactive)
REMARK    1  A    between atoms: C7_7  and  N1_8 
REMARK    2  A    between atoms: C12_15  and  N4_16 
REMARK       I    between atoms: N4_16  and  C13_17 
ROOT
HETATM    1  C1  UNL     1      27.268  -2.465  52.426  1.00  0.00     0.018 C 
HETATM    2  C2  UNL     1      26.871  -1.340  52.676  1.00  0.00    -0.078 C 
HETATM    3  C3  UNL     1      26.391   0.001  52.951  1.00  0.00     0.019 A 
HETATM    4  C4  UNL     1      26.879   0.695  54.037  1.00  0.00     0.021 A 
HETATM    5  C5  UNL     1      26.414   1.969  54.286  1.00  0.00     0.004 A 
HETATM    6  C6  UNL     1      25.472   2.491  53.424  1.00  0.00     0.031 A 
HETATM    7  C7  UNL     1      24.943   1.865  52.331  1.00  0.00     0.053 A 
HETATM    8  C17 UNL     1      25.450   0.591  52.136  1.00  0.00     0.051 A 
ENDROOT
BRANCH   7   9
HETATM    9  N1  UNL     1      23.958   2.464  51.488  1.00  0.00    -0.281 N 
HETATM   10  N2  UNL     1      24.610   3.213  50.429  1.00  0.00    -0.291 N 
HETATM   11  C8  UNL     1      24.035   3.395  49.085  1.00  0.00     0.223 C 
HETATM   12  H5  UNL     1      25.518   3.655  50.588  1.00  0.00     0.188 HD
HETATM   13  N3  UNL     1      22.798   3.016  48.696  1.00  0.00    -0.247 NA
HETATM   14  C9  UNL     1      21.891   2.352  49.627  1.00  0.00     0.038 C 
HETATM   15  C10 UNL     1      21.301   1.149  49.388  1.00  0.00     0.029 C 
HETATM   16  C16 UNL     1      21.643   3.052  50.961  1.00  0.00     0.093 C 
HETATM   17  C11 UNL     1      21.415   0.266  50.610  1.00  0.00     0.029 C 
HETATM   18  C12 UNL     1      22.069   0.829  51.667  1.00  0.00     0.037 C 
HETATM   19  C15 UNL     1      22.606   2.213  51.851  1.00  0.00     0.164 C 
BRANCH  18  20
HETATM   20  N4  UNL     1      22.087  -0.307  52.572  1.00  0.00    -0.329 N 
HETATM   21  C13 UNL     1      21.299  -0.341  53.780  1.00  0.00     0.217 C 
HETATM   22  C14 UNL     1      21.309  -1.494  54.714  1.00  0.00     0.117 C 
HETATM   23  O1  UNL     1      20.550   0.604  54.128  1.00  0.00    -0.274 OA
HETATM   24  H9  UNL     1      22.647  -1.180  52.454  1.00  0.00     0.168 HD
ENDBRANCH  18  20
ENDBRANCH   7   9
TORSDOF 2
ENDMDL
MODEL 6
REMARK VINA RESULT:      -7.7      1.056      2.218
REMARK  2 active torsions:
REMARK  status: ('A' for Active; 'I' for Inactive)
REMARK    1  A    between atoms: C7_7  and  N1_8 
REMARK    2  A    between atoms: C12_15  and  N4_16 
REMARK       I    between atoms: N4_16  and  C13_17 
ROOT
HETATM    1  C1  UNL     1      29.804  -0.919  53.501  1.00  0.00     0.018 C 
HETATM    2  C2  UNL     1      28.648  -0.548  53.393  1.00  0.00    -0.078 C 
HETATM    3  C3  UNL     1      27.280  -0.085  53.258  1.00  0.00     0.019 A 
HETATM    4  C4  UNL     1      26.254  -0.795  53.844  1.00  0.00     0.021 A 
HETATM    5  C5  UNL     1      24.959  -0.344  53.709  1.00  0.00     0.004 A 
HETATM    6  C6  UNL     1      24.752   0.812  52.984  1.00  0.00     0.031 A 
HETATM    7  C7  UNL     1      25.715   1.568  52.376  1.00  0.00     0.053 A 
HETATM    8  C17 UNL     1      26.992   1.061  52.550  1.00  0.00     0.051 A 
ENDROOT
BRANCH   7   9
HETATM    9  N1  UNL     1      25.425   2.750  51.629  1.00  0.00    -0.281 N 
HETATM   10  N2  UNL     1      26.651   3.282  51.062  1.00  0.00    -0.291 N 
HETATM   11  C8  UNL     1      26.707   4.020  49.788  1.00  0.00     0.223 C 
HETATM   12  H5  UNL     1      27.544   3.160  51.544  1.00  0.00     0.188 HD
HETATM   13  N3  UNL     1      25.643   4.411  49.053  1.00  0.00    -0.247 NA
HETATM   14  C9  UNL     1      24.282   4.107  49.485  1.00  0.00     0.038 C 
HETATM   15  C10 UNL     1      23.370   3.450  48.717  1.00  0.00     0.029 C 
HETATM   16  C16 UNL     1      23.903   4.521  50.904  1.00  0.00     0.093 C 
HETATM   17  C11 UNL     1      22.677   2.385  49.537  1.00  0.00     0.029 C 
HETATM   18  C12 UNL     1      23.095   2.292  50.832  1.00  0.00     0.037 C 
HETATM   19  C15 UNL     1      24.058   3.139  51.603  1.00  0.00     0.164 C 
BRANCH  18  20
HETATM   20  N4  UNL     1      22.327   1.134  51.252  1.00  0.00    -0.329 N 
HETATM   21  C13 UNL     1      21.167   1.247  52.102  1.00  0.00     0.217 C 
HETATM   22  C14 UNL     1      20.373   0.072  52.540  1.00  0.00     0.117 C 
HETATM   23  O1  UNL     1      20.746   2.349  52.533  1.00  0.00    -0.274 OA
HETATM   24  H9  UNL     1      22.522   0.140  50.999  1.00  0.00     0.168 HD
ENDBRANCH  18  20
ENDBRANCH   7   9
TORSDOF 2
ENDMDL
MODEL 7
REMARK VINA RESULT:      -7.7      2.302      6.312
REMARK  2 active torsions:
REMARK  status: ('A' for Active; 'I' for Inactive)
REMARK    1  A    between atoms: C7_7  and  N1_8 
REMARK    2  A    between atoms: C12_15  and  N4_16 
REMARK       I    between atoms: N4_16  and  C13_17 
ROOT
HETATM    1  C1  UNL     1      24.574   5.210  49.398  1.00  0.00     0.018 C 
HETATM    2  C2  UNL     1      23.820   4.252  49.361  1.00  0.00    -0.078 C 
HETATM    3  C3  UNL     1      22.927   3.110  49.340  1.00  0.00     0.019 A 
HETATM    4  C4  UNL     1      22.680   2.454  48.153  1.00  0.00     0.021 A 
HETATM    5  C5  UNL     1      21.829   1.370  48.148  1.00  0.00     0.004 A 
HETATM    6  C6  UNL     1      21.260   0.992  49.346  1.00  0.00     0.031 A 
HETATM    7  C7  UNL     1      21.456   1.591  50.559  1.00  0.00     0.053 A 
HETATM    8  C17 UNL     1      22.320   2.672  50.496  1.00  0.00     0.051 A 
ENDROOT
BRANCH   7   9
HETATM    9  N1  UNL     1      20.821   1.152  51.760  1.00  0.00    -0.281 N 
HETATM   10  N2  UNL     1      19.461   0.736  51.470  1.00  0.00    -0.291 N 
HETATM   11  C8  UNL     1      18.755  -0.321  52.216  1.00  0.00     0.223 C 
HETATM   12  H5  UNL     1      18.931   1.177  50.716  1.00  0.00     0.188 HD
HETATM   13  N3  UNL     1      19.208  -0.943  53.327  1.00  0.00    -0.247 NA
HETATM   14  C9  UNL     1      20.508  -0.603  53.898  1.00  0.00     0.038 C 
HETATM   15  C10 UNL     1      21.493  -1.510  54.138  1.00  0.00     0.029 C 
HETATM   16  C16 UNL     1      20.764   0.873  54.189  1.00  0.00     0.093 C 
HETATM   17  C11 UNL     1      22.818  -0.976  53.643  1.00  0.00     0.029 C 
HETATM   18  C12 UNL     1      22.762   0.260  53.067  1.00  0.00     0.037 C 
HETATM   19  C15 UNL     1      21.620   1.217  52.934  1.00  0.00     0.164 C 
BRANCH  18  20
HETATM   20  N4  UNL     1      24.140   0.383  52.625  1.00  0.00    -0.329 N 
HETATM   21  C13 UNL     1      24.911   1.584  52.838  1.00  0.00     0.217 C 
HETATM   22  C14 UNL     1      26.319   1.724  52.390  1.00  0.00     0.117 C 
HETATM   23  O1  UNL     1      24.446   2.596  53.416  1.00  0.00    -0.274 OA
HETATM   24  H9  UNL     1      24.695  -0.347  52.126  1.00  0.00     0.168 HD
ENDBRANCH  18  20
ENDBRANCH   7   9
TORSDOF 2
ENDMDL
MODEL 8
REMARK VINA RESULT:      -7.4      2.072      5.948
REMARK  2 active torsions:
REMARK  status: ('A' for Active; 'I' for Inactive)
REMARK    1  A    between atoms: C7_7  and  N1_8 
REMARK    2  A    between atoms: C12_15  and  N4_16 
REMARK       I    between atoms: N4_16  and  C13_17 
ROOT
HETATM    1  C1  UNL     1      21.120   3.642  47.595  1.00  0.00     0.018 C 
HETATM    2  C2  UNL     1      21.657   3.897  48.660  1.00  0.00    -0.078 C 
HETATM    3  C3  UNL     1      22.292   4.178  49.933  1.00  0.00     0.019 A 
HETATM    4  C4  UNL     1      22.421   5.482  50.362  1.00  0.00     0.021 A 
HETATM    5  C5  UNL     1      23.026   5.735  51.574  1.00  0.00     0.004 A 
HETATM    6  C6  UNL     1      23.476   4.656  52.307  1.00  0.00     0.031 A 
HETATM    7  C7  UNL     1      23.384   3.340  51.948  1.00  0.00     0.053 A 
HETATM    8  C17 UNL     1      22.767   3.155  50.722  1.00  0.00     0.051 A 
ENDROOT
BRANCH   7   9
HETATM    9  N1  UNL     1      23.887   2.273  52.753  1.00  0.00    -0.281 N 
HETATM   10  N2  UNL     1      22.842   1.287  52.965  1.00  0.00    -0.291 N 
HETATM   11  C8  UNL     1      23.103  -0.152  53.140  1.00  0.00     0.223 C 
HETATM   12  H5  UNL     1      21.861   1.569  53.002  1.00  0.00     0.188 HD
HETATM   13  N3  UNL     1      24.321  -0.726  53.259  1.00  0.00    -0.247 NA
HETATM   14  C9  UNL     1      25.537   0.079  53.209  1.00  0.00     0.038 C 
HETATM   15  C10 UNL     1      26.564  -0.147  52.345  1.00  0.00     0.029 C 
HETATM   16  C16 UNL     1      25.612   1.267  54.164  1.00  0.00     0.093 C 
HETATM   17  C11 UNL     1      27.008   1.156  51.720  1.00  0.00     0.029 C 
HETATM   18  C12 UNL     1      26.311   2.256  52.125  1.00  0.00     0.037 C 
HETATM   19  C15 UNL     1      25.242   2.400  53.162  1.00  0.00     0.164 C 
BRANCH  18  20
HETATM   20  N4  UNL     1      26.913   3.256  51.260  1.00  0.00    -0.329 N 
HETATM   21  C13 UNL     1      26.484   3.452  49.896  1.00  0.00     0.217 C 
HETATM   22  C14 UNL     1      27.089   4.468  49.001  1.00  0.00     0.117 C 
HETATM   23  O1  UNL     1      25.567   2.774  49.369  1.00  0.00    -0.274 OA
HETATM   24  H9  UNL     1      27.685   3.909  51.517  1.00  0.00     0.168 HD
ENDBRANCH  18  20
ENDBRANCH   7   9
TORSDOF 2
ENDMDL
MODEL 9
REMARK VINA RESULT:      -7.3      1.780      5.253
REMARK  2 active torsions:
REMARK  status: ('A' for Active; 'I' for Inactive)
REMARK    1  A    between atoms: C7_7  and  N1_8 
REMARK    2  A    between atoms: C12_15  and  N4_16 
REMARK       I    between atoms: N4_16  and  C13_17 
ROOT
HETATM    1  C1  UNL     1      22.896   5.138  47.836  1.00  0.00     0.018 C 
HETATM    2  C2  UNL     1      23.139   4.832  48.991  1.00  0.00    -0.078 C 
HETATM    3  C3  UNL     1      23.438   4.448  50.358  1.00  0.00     0.019 A 
HETATM    4  C4  UNL     1      22.778   5.059  51.402  1.00  0.00     0.021 A 
HETATM    5  C5  UNL     1      23.072   4.684  52.695  1.00  0.00     0.004 A 
HETATM    6  C6  UNL     1      24.023   3.702  52.881  1.00  0.00     0.031 A 
HETATM    7  C7  UNL     1      24.717   3.053  51.899  1.00  0.00     0.053 A 
HETATM    8  C17 UNL     1      24.376   3.475  50.624  1.00  0.00     0.051 A 
ENDROOT
BRANCH   7   9
HETATM    9  N1  UNL     1      25.700   2.052  52.166  1.00  0.00    -0.281 N 
HETATM   10  N2  UNL     1      26.977   2.685  52.444  1.00  0.00    -0.291 N 
HETATM   11  C8  UNL     1      27.989   2.114  53.351  1.00  0.00     0.223 C 
HETATM   12  H5  UNL     1      27.224   3.574  52.005  1.00  0.00     0.188 HD
HETATM   13  N3  UNL     1      27.933   0.895  53.931  1.00  0.00    -0.247 NA
HETATM   14  C9  UNL     1      26.799   0.006  53.700  1.00  0.00     0.038 C 
HETATM   15  C10 UNL     1      26.042  -0.535  54.693  1.00  0.00     0.029 C 
HETATM   16  C16 UNL     1      26.437  -0.279  52.245  1.00  0.00     0.093 C 
HETATM   17  C11 UNL     1      24.574  -0.398  54.355  1.00  0.00     0.029 C 
HETATM   18  C12 UNL     1      24.312   0.226  53.171  1.00  0.00     0.037 C 
HETATM   19  C15 UNL     1      25.241   0.708  52.102  1.00  0.00     0.164 C 
BRANCH  18  20
HETATM   20  N4  UNL     1      22.862   0.280  53.242  1.00  0.00    -0.329 N 
HETATM   21  C13 UNL     1      22.043   0.515  52.078  1.00  0.00     0.217 C 
HETATM   22  C14 UNL     1      20.562   0.574  52.136  1.00  0.00     0.117 C 
HETATM   23  O1  UNL     1      22.527   0.689  50.932  1.00  0.00    -0.274 OA
HETATM   24  H9  UNL     1      22.283   0.162  54.102  1.00  0.00     0.168 HD
ENDBRANCH  18  20
ENDBRANCH   7   9
TORSDOF 2
ENDMDL
