MODEL 1
REMARK VINA RESULT:     -10.1      0.000      0.000
REMARK  5 active torsions:
REMARK  status: ('A' for Active; 'I' for Inactive)
REMARK    1  A    between atoms: C3_5  and  C4_6 
REMARK    2  A    between atoms: C13_18  and  N3_19 
REMARK    3  A    between atoms: N3_19  and  C14_20 
REMARK    4  A    between atoms: C18_24  and  C19_25 
REMARK    5  A    between atoms: C19_25  and  O2_26 
ROOT
HETATM    1  C1  UNL     1      23.364   1.616  51.145  1.00  0.00     0.161 C 
HETATM    2  N1  UNL     1      23.932   0.811  52.219  1.00  0.00    -0.301 N 
HETATM    3  C2  UNL     1      25.264   0.816  52.151  1.00  0.00     0.260 A 
HETATM    4  O1  UNL     1      26.121   1.328  51.417  1.00  0.00    -0.267 OA
HETATM    5  C3  UNL     1      25.944   0.071  53.130  1.00  0.00     0.047 A 
HETATM    6  C10 UNL     1      25.257  -0.642  54.129  1.00  0.00     0.034 A 
HETATM    7  C11 UNL     1      23.870  -0.574  54.100  1.00  0.00     0.030 A 
HETATM    8  C12 UNL     1      23.151  -1.261  55.068  1.00  0.00     0.151 A 
HETATM    9  N2  UNL     1      21.812  -1.184  55.031  1.00  0.00    -0.074 NA
HETATM   10  C13 UNL     1      21.205  -0.445  54.060  1.00  0.00     0.728 A 
HETATM   11  N4  UNL     1      21.910   0.231  53.105  1.00  0.00    -0.044 NA
HETATM   12  C21 UNL     1      23.246   0.152  53.144  1.00  0.00     0.163 A 
ENDROOT
BRANCH  10  13
HETATM   13  N3  UNL     1      19.792  -0.495  54.188  1.00  0.00    -0.188 N 
HETATM   14  H9  UNL     1      19.572  -0.377  55.199  1.00  0.00     0.184 HD
BRANCH  13  15
HETATM   15  C14 UNL     1      18.754  -0.665  53.224  1.00  0.00     0.050 A 
HETATM   16  C15 UNL     1      17.779  -1.599  53.462  1.00  0.00     0.030 A 
HETATM   17  C16 UNL     1      16.804  -1.682  52.493  1.00  0.00     0.003 A 
HETATM   18  C17 UNL     1      16.684  -0.958  51.334  1.00  0.00     0.009 A 
HETATM   19  C18 UNL     1      17.702  -0.022  51.144  1.00  0.00    -0.033 A 
HETATM   20  C20 UNL     1      18.731   0.132  52.071  1.00  0.00     0.039 A 
BRANCH  19  21
HETATM   21  C19 UNL     1      17.645   0.811  49.913  1.00  0.00     0.203 C 
BRANCH  21  22
HETATM   22  O2  UNL     1      18.967   1.004  49.471  1.00  0.00    -0.396 OA
HETATM   23  H15 UNL     1      19.521   0.430  50.046  1.00  0.00     0.209 HD
ENDBRANCH  21  22
ENDBRANCH  19  21
ENDBRANCH  13  15
ENDBRANCH  10  13
BRANCH   5  24
HETATM   24  C4  UNL     1      27.408  -0.096  53.309  1.00  0.00     0.023 A 
HETATM   25  C5  UNL     1      28.175   0.958  53.807  1.00  0.00     0.046 A 
HETATM   26 CL1  UNL     1      27.475   2.494  54.245  1.00  0.00    -0.083 Cl
HETATM   27  C6  UNL     1      29.511   0.606  53.893  1.00  0.00     0.025 A 
HETATM   28  C7  UNL     1      30.115  -0.588  53.560  1.00  0.00     0.003 A 
HETATM   29  C8  UNL     1      29.208  -1.501  53.091  1.00  0.00     0.025 A 
HETATM   30  C9  UNL     1      27.853  -1.344  52.933  1.00  0.00     0.046 A 
HETATM   31 CL2  UNL     1      26.849  -2.611  52.322  1.00  0.00    -0.083 Cl
ENDBRANCH   5  24
TORSDOF 5
ENDMDL
MODEL 2
REMARK VINA RESULT:     -10.0      1.271      1.748
REMARK  5 active torsions:
REMARK  status: ('A' for Active; 'I' for Inactive)
REMARK    1  A    between atoms: C3_5  and  C4_6 
REMARK    2  A    between atoms: C13_18  and  N3_19 
REMARK    3  A    between atoms: N3_19  and  C14_20 
REMARK    4  A    between atoms: C18_24  and  C19_25 
REMARK    5  A    between atoms: C19_25  and  O2_26 
ROOT
HETATM    1  C1  UNL     1      23.460   1.703  51.130  1.00  0.00     0.161 C 
HETATM    2  N1  UNL     1      24.006   0.873  52.197  1.00  0.00    -0.301 N 
HETATM    3  C2  UNL     1      25.339   0.864  52.144  1.00  0.00     0.260 A 
HETATM    4  O1  UNL     1      26.211   1.379  51.429  1.00  0.00    -0.267 OA
HETATM    5  C3  UNL     1      25.999   0.095  53.118  1.00  0.00     0.047 A 
HETATM    6  C10 UNL     1      25.293  -0.628  54.096  1.00  0.00     0.034 A 
HETATM    7  C11 UNL     1      23.907  -0.544  54.052  1.00  0.00     0.030 A 
HETATM    8  C12 UNL     1      23.169  -1.239  54.999  1.00  0.00     0.151 A 
HETATM    9  N2  UNL     1      21.831  -1.147  54.948  1.00  0.00    -0.074 NA
HETATM   10  C13 UNL     1      21.244  -0.384  53.983  1.00  0.00     0.728 A 
HETATM   11  N4  UNL     1      21.968   0.300  53.049  1.00  0.00    -0.044 NA
HETATM   12  C21 UNL     1      23.303   0.206  53.102  1.00  0.00     0.163 A 
ENDROOT
BRANCH  10  13
HETATM   13  N3  UNL     1      19.829  -0.421  54.093  1.00  0.00    -0.188 N 
HETATM   14  H9  UNL     1      19.600  -0.362  55.107  1.00  0.00     0.184 HD
BRANCH  13  15
HETATM   15  C14 UNL     1      18.799  -0.516  53.111  1.00  0.00     0.050 A 
HETATM   16  C15 UNL     1      18.887   0.262  51.985  1.00  0.00     0.030 A 
HETATM   17  C16 UNL     1      17.864   0.091  51.079  1.00  0.00     0.003 A 
HETATM   18  C17 UNL     1      16.782  -0.748  51.157  1.00  0.00     0.009 A 
HETATM   19  C18 UNL     1      16.744  -1.516  52.322  1.00  0.00    -0.033 A 
HETATM   20  C20 UNL     1      17.735  -1.410  53.295  1.00  0.00     0.039 A 
BRANCH  19  21
HETATM   21  C19 UNL     1      15.605  -2.458  52.484  1.00  0.00     0.203 C 
BRANCH  21  22
HETATM   22  O2  UNL     1      15.973  -3.403  53.460  1.00  0.00    -0.396 OA
HETATM   23  H15 UNL     1      16.319  -2.877  54.215  1.00  0.00     0.209 HD
ENDBRANCH  21  22
ENDBRANCH  19  21
ENDBRANCH  13  15
ENDBRANCH  10  13
BRANCH   5  24
HETATM   24  C4  UNL     1      27.459  -0.091  53.311  1.00  0.00     0.023 A 
HETATM   25  C5  UNL     1      28.236   0.953  53.814  1.00  0.00     0.046 A 
HETATM   26 CL1  UNL     1      27.553   2.500  54.240  1.00  0.00    -0.083 Cl
HETATM   27  C6  UNL     1      29.567   0.584  53.913  1.00  0.00     0.025 A 
HETATM   28  C7  UNL     1      30.157  -0.620  53.589  1.00  0.00     0.003 A 
HETATM   29  C8  UNL     1      29.242  -1.521  53.114  1.00  0.00     0.025 A 
HETATM   30  C9  UNL     1      27.891  -1.346  52.943  1.00  0.00     0.046 A 
HETATM   31 CL2  UNL     1      26.875  -2.601  52.327  1.00  0.00    -0.083 Cl
ENDBRANCH   5  24
TORSDOF 5
ENDMDL
MODEL 3
REMARK VINA RESULT:      -9.6      1.644      3.281
REMARK  5 active torsions:
REMARK  status: ('A' for Active; 'I' for Inactive)
REMARK    1  A    between atoms: C3_5  and  C4_6 
REMARK    2  A    between atoms: C13_18  and  N3_19 
REMARK    3  A    between atoms: N3_19  and  C14_20 
REMARK    4  A    between atoms: C18_24  and  C19_25 
REMARK    5  A    between atoms: C19_25  and  O2_26 
ROOT
HETATM    1  C1  UNL     1      22.734  -0.904  54.801  1.00  0.00     0.161 C 
HETATM    2  N1  UNL     1      23.625  -0.267  53.841  1.00  0.00    -0.301 N 
HETATM    3  C2  UNL     1      24.898  -0.543  54.130  1.00  0.00     0.260 A 
HETATM    4  O1  UNL     1      25.497  -1.198  54.995  1.00  0.00    -0.267 OA
HETATM    5  C3  UNL     1      25.869   0.015  53.282  1.00  0.00     0.047 A 
HETATM    6  C10 UNL     1      25.519   0.824  52.186  1.00  0.00     0.034 A 
HETATM    7  C11 UNL     1      24.163   1.044  51.982  1.00  0.00     0.030 A 
HETATM    8  C12 UNL     1      23.771   1.835  50.911  1.00  0.00     0.151 A 
HETATM    9  N2  UNL     1      22.458   2.036  50.723  1.00  0.00    -0.074 NA
HETATM   10  C13 UNL     1      21.560   1.468  51.576  1.00  0.00     0.728 A 
HETATM   11  N4  UNL     1      21.941   0.690  52.632  1.00  0.00    -0.044 NA
HETATM   12  C21 UNL     1      23.253   0.491  52.817  1.00  0.00     0.163 A 
ENDROOT
BRANCH  10  13
HETATM   13  N3  UNL     1      20.228   1.804  51.215  1.00  0.00    -0.188 N 
HETATM   14  H9  UNL     1      20.207   2.832  51.050  1.00  0.00     0.184 HD
BRANCH  13  15
HETATM   15  C14 UNL     1      19.053   1.010  51.065  1.00  0.00     0.050 A 
HETATM   16  C15 UNL     1      18.306   1.145  49.923  1.00  0.00     0.030 A 
HETATM   17  C16 UNL     1      17.202   0.325  49.850  1.00  0.00     0.003 A 
HETATM   18  C17 UNL     1      16.758  -0.599  50.763  1.00  0.00     0.009 A 
HETATM   19  C18 UNL     1      17.556  -0.695  51.904  1.00  0.00    -0.033 A 
HETATM   20  C20 UNL     1      18.692   0.095  52.065  1.00  0.00     0.039 A 
BRANCH  19  21
HETATM   21  C19 UNL     1      17.149  -1.677  52.943  1.00  0.00     0.203 C 
BRANCH  21  22
HETATM   22  O2  UNL     1      17.681  -1.240  54.171  1.00  0.00    -0.396 OA
HETATM   23  H15 UNL     1      18.656  -1.283  54.063  1.00  0.00     0.209 HD
ENDBRANCH  21  22
ENDBRANCH  19  21
ENDBRANCH  13  15
ENDBRANCH  10  13
BRANCH   5  24
HETATM   24  C4  UNL     1      27.344  -0.128  53.351  1.00  0.00     0.023 A 
HETATM   25  C5  UNL     1      27.949  -1.324  52.960  1.00  0.00     0.046 A 
HETATM   26 CL1  UNL     1      27.029  -2.685  52.376  1.00  0.00    -0.083 Cl
HETATM   27  C6  UNL     1      29.324  -1.259  53.104  1.00  0.00     0.025 A 
HETATM   28  C7  UNL     1      30.098  -0.213  53.561  1.00  0.00     0.003 A 
HETATM   29  C8  UNL     1      29.335   0.874  53.897  1.00  0.00     0.025 A 
HETATM   30  C9  UNL     1      27.970   1.004  53.826  1.00  0.00     0.046 A 
HETATM   31 CL2  UNL     1      27.162   2.459  54.293  1.00  0.00    -0.083 Cl
ENDBRANCH   5  24
TORSDOF 5
ENDMDL
MODEL 4
REMARK VINA RESULT:      -9.1      5.125      9.266
REMARK  5 active torsions:
REMARK  status: ('A' for Active; 'I' for Inactive)
REMARK    1  A    between atoms: C3_5  and  C4_6 
REMARK    2  A    between atoms: C13_18  and  N3_19 
REMARK    3  A    between atoms: N3_19  and  C14_20 
REMARK    4  A    between atoms: C18_24  and  C19_25 
REMARK    5  A    between atoms: C19_25  and  O2_26 
ROOT
HETATM    1  C1  UNL     1      22.248   4.458  52.323  1.00  0.00     0.161 C 
HETATM    2  N1  UNL     1      23.121   4.404  51.158  1.00  0.00    -0.301 N 
HETATM    3  C2  UNL     1      22.526   4.964  50.103  1.00  0.00     0.260 A 
HETATM    4  O1  UNL     1      21.438   5.512  49.875  1.00  0.00    -0.267 OA
HETATM    5  C3  UNL     1      23.259   4.976  48.904  1.00  0.00     0.047 A 
HETATM    6  C10 UNL     1      24.550   4.425  48.819  1.00  0.00     0.034 A 
HETATM    7  C11 UNL     1      25.068   3.868  49.981  1.00  0.00     0.030 A 
HETATM    8  C12 UNL     1      26.340   3.316  49.944  1.00  0.00     0.151 A 
HETATM    9  N2  UNL     1      26.830   2.784  51.075  1.00  0.00    -0.074 NA
HETATM   10  C13 UNL     1      26.075   2.802  52.210  1.00  0.00     0.728 A 
HETATM   11  N4  UNL     1      24.823   3.344  52.250  1.00  0.00    -0.044 NA
HETATM   12  C21 UNL     1      24.337   3.874  51.119  1.00  0.00     0.163 A 
ENDROOT
BRANCH  10  13
HETATM   13  N3  UNL     1      26.763   2.189  53.291  1.00  0.00    -0.188 N 
HETATM   14  H9  UNL     1      26.515   2.721  54.151  1.00  0.00     0.184 HD
BRANCH  13  15
HETATM   15  C14 UNL     1      27.647   1.071  53.345  1.00  0.00     0.050 A 
HETATM   16  C15 UNL     1      28.935   1.268  53.772  1.00  0.00     0.030 A 
HETATM   17  C16 UNL     1      29.713   0.132  53.816  1.00  0.00     0.003 A 
HETATM   18  C17 UNL     1      29.368  -1.156  53.492  1.00  0.00     0.009 A 
HETATM   19  C18 UNL     1      28.047  -1.298  53.066  1.00  0.00    -0.033 A 
HETATM   20  C20 UNL     1      27.186  -0.204  52.988  1.00  0.00     0.039 A 
BRANCH  19  21
HETATM   21  C19 UNL     1      27.588  -2.664  52.699  1.00  0.00     0.203 C 
BRANCH  21  22
HETATM   22  O2  UNL     1      28.588  -3.569  53.103  1.00  0.00    -0.396 OA
HETATM   23  H15 UNL     1      28.385  -3.781  54.041  1.00  0.00     0.209 HD
ENDBRANCH  21  22
ENDBRANCH  19  21
ENDBRANCH  13  15
ENDBRANCH  10  13
BRANCH   5  24
HETATM   24  C4  UNL     1      22.863   5.536  47.588  1.00  0.00     0.023 A 
HETATM   25  C5  UNL     1      22.165   4.746  46.674  1.00  0.00     0.046 A 
HETATM   26 CL1  UNL     1      21.722   3.095  47.018  1.00  0.00    -0.083 Cl
HETATM   27  C6  UNL     1      21.896   5.446  45.510  1.00  0.00     0.025 A 
HETATM   28  C7  UNL     1      22.223   6.746  45.187  1.00  0.00     0.003 A 
HETATM   29  C8  UNL     1      22.903   7.364  46.202  1.00  0.00     0.025 A 
HETATM   30  C9  UNL     1      23.263   6.844  47.422  1.00  0.00     0.046 A 
HETATM   31 CL2  UNL     1      24.126   7.772  48.596  1.00  0.00    -0.083 Cl
ENDBRANCH   5  24
TORSDOF 5
ENDMDL
MODEL 5
REMARK VINA RESULT:      -9.0      5.146      9.050
REMARK  5 active torsions:
REMARK  status: ('A' for Active; 'I' for Inactive)
REMARK    1  A    between atoms: C3_5  and  C4_6 
REMARK    2  A    between atoms: C13_18  and  N3_19 
REMARK    3  A    between atoms: N3_19  and  C14_20 
REMARK    4  A    between atoms: C18_24  and  C19_25 
REMARK    5  A    between atoms: C19_25  and  O2_26 
ROOT
HETATM    1  C1  UNL     1      22.668   2.319  47.947  1.00  0.00     0.161 C 
HETATM    2  N1  UNL     1      22.858   2.677  49.347  1.00  0.00    -0.301 N 
HETATM    3  C2  UNL     1      22.368   1.726  50.143  1.00  0.00     0.260 A 
HETATM    4  O1  UNL     1      21.805   0.632  49.988  1.00  0.00    -0.267 OA
HETATM    5  C3  UNL     1      22.482   1.946  51.526  1.00  0.00     0.047 A 
HETATM    6  C10 UNL     1      23.080   3.108  52.045  1.00  0.00     0.034 A 
HETATM    7  C11 UNL     1      23.554   4.030  51.121  1.00  0.00     0.030 A 
HETATM    8  C12 UNL     1      24.154   5.191  51.588  1.00  0.00     0.151 A 
HETATM    9  N2  UNL     1      24.611   6.071  50.685  1.00  0.00    -0.074 NA
HETATM   10  C13 UNL     1      24.476   5.805  49.355  1.00  0.00     0.728 A 
HETATM   11  N4  UNL     1      23.885   4.665  48.892  1.00  0.00    -0.044 NA
HETATM   12  C21 UNL     1      23.429   3.787  49.796  1.00  0.00     0.163 A 
ENDROOT
BRANCH  10  13
HETATM   13  N3  UNL     1      25.014   6.857  48.566  1.00  0.00    -0.188 N 
HETATM   14  H9  UNL     1      24.250   7.550  48.421  1.00  0.00     0.184 HD
BRANCH  13  15
HETATM   15  C14 UNL     1      26.311   7.063  48.011  1.00  0.00     0.050 A 
HETATM   16  C15 UNL     1      26.514   8.143  47.191  1.00  0.00     0.030 A 
HETATM   17  C16 UNL     1      27.800   8.280  46.718  1.00  0.00     0.003 A 
HETATM   18  C17 UNL     1      28.891   7.484  46.959  1.00  0.00     0.009 A 
HETATM   19  C18 UNL     1      28.628   6.403  47.800  1.00  0.00    -0.033 A 
HETATM   20  C20 UNL     1      27.356   6.183  48.327  1.00  0.00     0.039 A 
BRANCH  19  21
HETATM   21  C19 UNL     1      29.759   5.491  48.119  1.00  0.00     0.203 C 
BRANCH  21  22
HETATM   22  O2  UNL     1      30.196   5.798  49.421  1.00  0.00    -0.396 OA
HETATM   23  H15 UNL     1      29.394   6.101  49.901  1.00  0.00     0.209 HD
ENDBRANCH  21  22
ENDBRANCH  19  21
ENDBRANCH  13  15
ENDBRANCH  10  13
BRANCH   5  24
HETATM   24  C4  UNL     1      22.042   1.066  52.638  1.00  0.00     0.023 A 
HETATM   25  C5  UNL     1      20.718   1.100  53.074  1.00  0.00     0.046 A 
HETATM   26 CL1  UNL     1      19.526   2.149  52.352  1.00  0.00    -0.083 Cl
HETATM   27  C6  UNL     1      20.513   0.214  54.119  1.00  0.00     0.025 A 
HETATM   28  C7  UNL     1      21.416  -0.633  54.725  1.00  0.00     0.003 A 
HETATM   29  C8  UNL     1      22.661  -0.530  54.166  1.00  0.00     0.025 A 
HETATM   30  C9  UNL     1      23.062   0.282  53.133  1.00  0.00     0.046 A 
HETATM   31 CL2  UNL     1      24.687   0.284  52.546  1.00  0.00    -0.083 Cl
ENDBRANCH   5  24
TORSDOF 5
ENDMDL
MODEL 6
REMARK VINA RESULT:      -8.9      6.942     10.607
REMARK  5 active torsions:
REMARK  status: ('A' for Active; 'I' for Inactive)
REMARK    1  A    between atoms: C3_5  and  C4_6 
REMARK    2  A    between atoms: C13_18  and  N3_19 
REMARK    3  A    between atoms: N3_19  and  C14_20 
REMARK    4  A    between atoms: C18_24  and  C19_25 
REMARK    5  A    between atoms: C19_25  and  O2_26 
ROOT
HETATM    1  C1  UNL     1      23.996   7.380  50.708  1.00  0.00     0.161 C 
HETATM    2  N1  UNL     1      24.536   6.046  50.478  1.00  0.00    -0.301 N 
HETATM    3  C2  UNL     1      23.764   5.124  51.056  1.00  0.00     0.260 A 
HETATM    4  O1  UNL     1      22.720   5.122  51.724  1.00  0.00    -0.267 OA
HETATM    5  C3  UNL     1      24.173   3.787  50.916  1.00  0.00     0.047 A 
HETATM    6  C10 UNL     1      25.336   3.438  50.205  1.00  0.00     0.034 A 
HETATM    7  C11 UNL     1      26.061   4.482  49.647  1.00  0.00     0.030 A 
HETATM    8  C12 UNL     1      27.214   4.185  48.934  1.00  0.00     0.151 A 
HETATM    9  N2  UNL     1      27.903   5.202  48.396  1.00  0.00    -0.074 NA
HETATM   10  C13 UNL     1      27.458   6.480  48.562  1.00  0.00     0.728 A 
HETATM   11  N4  UNL     1      26.325   6.777  49.263  1.00  0.00    -0.044 NA
HETATM   12  C21 UNL     1      25.639   5.758  49.799  1.00  0.00     0.163 A 
ENDROOT
BRANCH  10  13
HETATM   13  N3  UNL     1      28.324   7.409  47.927  1.00  0.00    -0.188 N 
HETATM   14  H9  UNL     1      28.435   7.098  46.939  1.00  0.00     0.184 HD
BRANCH  13  15
HETATM   15  C14 UNL     1      28.986   8.577  48.408  1.00  0.00     0.050 A 
HETATM   16  C15 UNL     1      30.214   8.442  49.002  1.00  0.00     0.030 A 
HETATM   17  C16 UNL     1      30.792   9.622  49.417  1.00  0.00     0.003 A 
HETATM   18  C17 UNL     1      30.302  10.899  49.313  1.00  0.00     0.009 A 
HETATM   19  C18 UNL     1      29.050  10.977  48.701  1.00  0.00    -0.033 A 
HETATM   20  C20 UNL     1      28.389   9.836  48.249  1.00  0.00     0.039 A 
BRANCH  19  21
HETATM   21  C19 UNL     1      28.448  12.327  48.542  1.00  0.00     0.203 C 
BRANCH  21  22
HETATM   22  O2  UNL     1      28.515  12.970  49.792  1.00  0.00    -0.396 OA
HETATM   23  H15 UNL     1      27.645  13.412  49.906  1.00  0.00     0.209 HD
ENDBRANCH  21  22
ENDBRANCH  19  21
ENDBRANCH  13  15
ENDBRANCH  10  13
BRANCH   5  24
HETATM   24  C4  UNL     1      23.514   2.563  51.435  1.00  0.00     0.023 A 
HETATM   25  C5  UNL     1      23.861   2.061  52.690  1.00  0.00     0.046 A 
HETATM   26 CL1  UNL     1      25.056   2.828  53.702  1.00  0.00    -0.083 Cl
HETATM   27  C6  UNL     1      23.141   0.916  52.987  1.00  0.00     0.025 A 
HETATM   28  C7  UNL     1      22.190   0.270  52.225  1.00  0.00     0.003 A 
HETATM   29  C8  UNL     1      21.981   0.904  51.030  1.00  0.00     0.025 A 
HETATM   30  C9  UNL     1      22.590   2.041  50.557  1.00  0.00     0.046 A 
HETATM   31 CL2  UNL     1      22.203   2.712  49.012  1.00  0.00    -0.083 Cl
ENDBRANCH   5  24
TORSDOF 5
ENDMDL
MODEL 7
REMARK VINA RESULT:      -8.8      5.984     10.331
REMARK  5 active torsions:
REMARK  status: ('A' for Active; 'I' for Inactive)
REMARK    1  A    between atoms: C3_5  and  C4_6 
REMARK    2  A    between atoms: C13_18  and  N3_19 
REMARK    3  A    between atoms: N3_19  and  C14_20 
REMARK    4  A    between atoms: C18_24  and  C19_25 
REMARK    5  A    between atoms: C19_25  and  O2_26 
ROOT
HETATM    1  C1  UNL     1      23.650   6.856  51.106  1.00  0.00     0.161 C 
HETATM    2  N1  UNL     1      24.204   5.541  50.809  1.00  0.00    -0.301 N 
HETATM    3  C2  UNL     1      23.471   4.585  51.381  1.00  0.00     0.260 A 
HETATM    4  O1  UNL     1      22.452   4.539  52.085  1.00  0.00    -0.267 OA
HETATM    5  C3  UNL     1      23.898   3.262  51.178  1.00  0.00     0.047 A 
HETATM    6  C10 UNL     1      25.040   2.960  50.414  1.00  0.00     0.034 A 
HETATM    7  C11 UNL     1      25.726   4.038  49.868  1.00  0.00     0.030 A 
HETATM    8  C12 UNL     1      26.858   3.788  49.105  1.00  0.00     0.151 A 
HETATM    9  N2  UNL     1      27.509   4.837  48.580  1.00  0.00    -0.074 NA
HETATM   10  C13 UNL     1      27.048   6.099  48.808  1.00  0.00     0.728 A 
HETATM   11  N4  UNL     1      25.935   6.349  49.559  1.00  0.00    -0.044 NA
HETATM   12  C21 UNL     1      25.288   5.299  50.082  1.00  0.00     0.163 A 
ENDROOT
BRANCH  10  13
HETATM   13  N3  UNL     1      27.874   7.066  48.176  1.00  0.00    -0.188 N 
HETATM   14  H9  UNL     1      27.367   7.393  47.327  1.00  0.00     0.184 HD
BRANCH  13  15
HETATM   15  C14 UNL     1      29.157   7.589  48.514  1.00  0.00     0.050 A 
HETATM   16  C15 UNL     1      29.242   8.872  48.990  1.00  0.00     0.030 A 
HETATM   17  C16 UNL     1      30.515   9.289  49.312  1.00  0.00     0.003 A 
HETATM   18  C17 UNL     1      31.694   8.593  49.220  1.00  0.00     0.009 A 
HETATM   19  C18 UNL     1      31.547   7.294  48.732  1.00  0.00    -0.033 A 
HETATM   20  C20 UNL     1      30.298   6.786  48.379  1.00  0.00     0.039 A 
BRANCH  19  21
HETATM   21  C19 UNL     1      32.776   6.467  48.606  1.00  0.00     0.203 C 
BRANCH  21  22
HETATM   22  O2  UNL     1      32.720   5.469  49.597  1.00  0.00    -0.396 OA
HETATM   23  H15 UNL     1      31.871   5.618  50.070  1.00  0.00     0.209 HD
ENDBRANCH  21  22
ENDBRANCH  19  21
ENDBRANCH  13  15
ENDBRANCH  10  13
BRANCH   5  24
HETATM   24  C4  UNL     1      23.280   2.007  51.675  1.00  0.00     0.023 A 
HETATM   25  C5  UNL     1      22.234   1.415  50.966  1.00  0.00     0.046 A 
HETATM   26 CL1  UNL     1      21.611   2.094  49.486  1.00  0.00    -0.083 Cl
HETATM   27  C6  UNL     1      21.794   0.263  51.595  1.00  0.00     0.025 A 
HETATM   28  C7  UNL     1      22.249  -0.314  52.762  1.00  0.00     0.003 A 
HETATM   29  C8  UNL     1      23.275   0.403  53.316  1.00  0.00     0.025 A 
HETATM   30  C9  UNL     1      23.848   1.561  52.849  1.00  0.00     0.046 A 
HETATM   31 CL2  UNL     1      25.147   2.341  53.679  1.00  0.00    -0.083 Cl
ENDBRANCH   5  24
TORSDOF 5
ENDMDL
MODEL 8
REMARK VINA RESULT:      -8.7      6.417      9.764
REMARK  5 active torsions:
REMARK  status: ('A' for Active; 'I' for Inactive)
REMARK    1  A    between atoms: C3_5  and  C4_6 
REMARK    2  A    between atoms: C13_18  and  N3_19 
REMARK    3  A    between atoms: N3_19  and  C14_20 
REMARK    4  A    between atoms: C18_24  and  C19_25 
REMARK    5  A    between atoms: C19_25  and  O2_26 
ROOT
HETATM    1  C1  UNL     1      23.485   6.726  50.998  1.00  0.00     0.161 C 
HETATM    2  N1  UNL     1      24.634   6.573  50.115  1.00  0.00    -0.301 N 
HETATM    3  C2  UNL     1      24.844   7.695  49.424  1.00  0.00     0.260 A 
HETATM    4  O1  UNL     1      24.315   8.813  49.351  1.00  0.00    -0.267 OA
HETATM    5  C3  UNL     1      25.925   7.684  48.525  1.00  0.00     0.047 A 
HETATM    6  C10 UNL     1      26.742   6.551  48.362  1.00  0.00     0.034 A 
HETATM    7  C11 UNL     1      26.428   5.441  49.135  1.00  0.00     0.030 A 
HETATM    8  C12 UNL     1      27.210   4.301  49.009  1.00  0.00     0.151 A 
HETATM    9  N2  UNL     1      26.898   3.236  49.764  1.00  0.00    -0.074 NA
HETATM   10  C13 UNL     1      25.840   3.303  50.620  1.00  0.00     0.728 A 
HETATM   11  N4  UNL     1      25.068   4.423  50.746  1.00  0.00    -0.044 NA
HETATM   12  C21 UNL     1      25.382   5.484  49.991  1.00  0.00     0.163 A 
ENDROOT
BRANCH  10  13
HETATM   13  N3  UNL     1      25.670   2.079  51.321  1.00  0.00    -0.188 N 
HETATM   14  H9  UNL     1      24.662   1.828  51.256  1.00  0.00     0.184 HD
BRANCH  13  15
HETATM   15  C14 UNL     1      26.593   1.246  52.020  1.00  0.00     0.050 A 
HETATM   16  C15 UNL     1      27.592   1.836  52.751  1.00  0.00     0.030 A 
HETATM   17  C16 UNL     1      28.423   0.959  53.412  1.00  0.00     0.003 A 
HETATM   18  C17 UNL     1      28.381  -0.412  53.432  1.00  0.00     0.009 A 
HETATM   19  C18 UNL     1      27.345  -0.957  52.673  1.00  0.00    -0.033 A 
HETATM   20  C20 UNL     1      26.455  -0.148  51.969  1.00  0.00     0.039 A 
BRANCH  19  21
HETATM   21  C19 UNL     1      27.224  -2.439  52.645  1.00  0.00     0.203 C 
BRANCH  21  22
HETATM   22  O2  UNL     1      28.463  -2.974  53.042  1.00  0.00    -0.396 OA
HETATM   23  H15 UNL     1      28.253  -3.835  53.465  1.00  0.00     0.209 HD
ENDBRANCH  21  22
ENDBRANCH  19  21
ENDBRANCH  13  15
ENDBRANCH  10  13
BRANCH   5  24
HETATM   24  C4  UNL     1      26.399   8.778  47.642  1.00  0.00     0.023 A 
HETATM   25  C5  UNL     1      25.853   8.935  46.368  1.00  0.00     0.046 A 
HETATM   26 CL1  UNL     1      24.605   7.882  45.755  1.00  0.00    -0.083 Cl
HETATM   27  C6  UNL     1      26.431  10.003  45.704  1.00  0.00     0.025 A 
HETATM   28  C7  UNL     1      27.417  10.862  46.140  1.00  0.00     0.003 A 
HETATM   29  C8  UNL     1      27.830  10.557  47.409  1.00  0.00     0.025 A 
HETATM   30  C9  UNL     1      27.384   9.546  48.225  1.00  0.00     0.046 A 
HETATM   31 CL2  UNL     1      28.019   9.302  49.813  1.00  0.00    -0.083 Cl
ENDBRANCH   5  24
TORSDOF 5
ENDMDL
MODEL 9
REMARK VINA RESULT:      -8.6      4.926      9.186
REMARK  5 active torsions:
REMARK  status: ('A' for Active; 'I' for Inactive)
REMARK    1  A    between atoms: C3_5  and  C4_6 
REMARK    2  A    between atoms: C13_18  and  N3_19 
REMARK    3  A    between atoms: N3_19  and  C14_20 
REMARK    4  A    between atoms: C18_24  and  C19_25 
REMARK    5  A    between atoms: C19_25  and  O2_26 
ROOT
HETATM    1  C1  UNL     1      27.110   4.336  49.236  1.00  0.00     0.161 C 
HETATM    2  N1  UNL     1      25.689   4.442  49.541  1.00  0.00    -0.301 N 
HETATM    3  C2  UNL     1      25.160   5.507  48.937  1.00  0.00     0.260 A 
HETATM    4  O1  UNL     1      25.569   6.409  48.192  1.00  0.00    -0.267 OA
HETATM    5  C3  UNL     1      23.789   5.732  49.151  1.00  0.00     0.047 A 
HETATM    6  C10 UNL     1      23.015   4.881  49.961  1.00  0.00     0.034 A 
HETATM    7  C11 UNL     1      23.674   3.804  50.539  1.00  0.00     0.030 A 
HETATM    8  C12 UNL     1      22.949   2.936  51.343  1.00  0.00     0.151 A 
HETATM    9  N2  UNL     1      23.596   1.897  51.893  1.00  0.00    -0.074 NA
HETATM   10  C13 UNL     1      24.926   1.726  51.649  1.00  0.00     0.728 A 
HETATM   11  N4  UNL     1      25.643   2.578  50.859  1.00  0.00    -0.044 NA
HETATM   12  C21 UNL     1      24.994   3.615  50.312  1.00  0.00     0.163 A 
ENDROOT
BRANCH  10  13
HETATM   13  N3  UNL     1      25.426   0.580  52.323  1.00  0.00    -0.188 N 
HETATM   14  H9  UNL     1      24.679  -0.145  52.286  1.00  0.00     0.184 HD
BRANCH  13  15
HETATM   15  C14 UNL     1      26.672   0.321  52.968  1.00  0.00     0.050 A 
HETATM   16  C15 UNL     1      27.161   1.247  53.853  1.00  0.00     0.030 A 
HETATM   17  C16 UNL     1      28.357   0.908  54.446  1.00  0.00     0.003 A 
HETATM   18  C17 UNL     1      29.111  -0.224  54.268  1.00  0.00     0.009 A 
HETATM   19  C18 UNL     1      28.566  -1.131  53.359  1.00  0.00    -0.033 A 
HETATM   20  C20 UNL     1      27.360  -0.872  52.709  1.00  0.00     0.039 A 
BRANCH  19  21
HETATM   21  C19 UNL     1      29.318  -2.389  53.110  1.00  0.00     0.203 C 
BRANCH  21  22
HETATM   22  O2  UNL     1      28.464  -3.462  53.425  1.00  0.00    -0.396 OA
HETATM   23  H15 UNL     1      28.173  -3.827  52.560  1.00  0.00     0.209 HD
ENDBRANCH  21  22
ENDBRANCH  19  21
ENDBRANCH  13  15
ENDBRANCH  10  13
BRANCH   5  24
HETATM   24  C4  UNL     1      22.938   6.818  48.604  1.00  0.00     0.023 A 
HETATM   25  C5  UNL     1      22.237   6.624  47.413  1.00  0.00     0.046 A 
HETATM   26 CL1  UNL     1      22.314   5.128  46.521  1.00  0.00    -0.083 Cl
HETATM   27  C6  UNL     1      21.511   7.752  47.072  1.00  0.00     0.025 A 
HETATM   28  C7  UNL     1      21.417   8.956  47.737  1.00  0.00     0.003 A 
HETATM   29  C8  UNL     1      22.169   8.963  48.881  1.00  0.00     0.025 A 
HETATM   30  C9  UNL     1      22.951   7.952  49.387  1.00  0.00     0.046 A 
HETATM   31 CL2  UNL     1      23.841   8.130  50.857  1.00  0.00    -0.083 Cl
ENDBRANCH   5  24
TORSDOF 5
ENDMDL
