MODEL 1
REMARK VINA RESULT:      -7.5      0.000      0.000
REMARK  6 active torsions:
REMARK  status: ('A' for Active; 'I' for Inactive)
REMARK    1  A    between atoms: C3_4  and  S1_5 
REMARK    2  A    between atoms: C3_4  and  C4_6 
REMARK    3  A    between atoms: C4_6  and  C5_7 
REMARK    4  A    between atoms: C5_7  and  C6_8 
REMARK    5  A    between atoms: C14_17  and  C15_18 
REMARK    6  A    between atoms: C15_18  and  O1_19 
ROOT
HETATM    1  C1  UNL     1      27.027   1.396  52.398  1.00  0.00     0.043 C 
HETATM    2  C2  UNL     1      25.705   1.122  52.316  1.00  0.00     0.028 C 
HETATM    3  N1  UNL     1      25.280   2.017  51.282  1.00  0.00    -0.371 N 
HETATM    4  C3  UNL     1      24.081   2.820  51.073  1.00  0.00     0.085 C 
HETATM    5  C8  UNL     1      23.043   1.770  50.967  1.00  0.00     0.071 C 
HETATM    6  C9  UNL     1      21.884   2.139  51.784  1.00  0.00     0.047 C 
HETATM    7  C10 UNL     1      21.111   0.840  51.606  1.00  0.00     0.074 C 
HETATM    8 CL1  UNL     1      19.412   1.287  51.845  1.00  0.00    -0.110 Cl
HETATM    9  C11 UNL     1      21.616  -0.097  52.569  1.00  0.00     0.003 C 
HETATM   10  C12 UNL     1      22.618  -0.617  53.267  1.00  0.00    -0.001 C 
HETATM   11  C13 UNL     1      24.050  -0.496  53.477  1.00  0.00     0.011 C 
HETATM   12  C14 UNL     1      25.213   0.073  53.205  1.00  0.00    -0.009 C 
HETATM   13  C16 UNL     1      21.355   0.641  50.156  1.00  0.00     0.023 C 
HETATM   14  C17 UNL     1      22.269   1.564  49.712  1.00  0.00     0.017 C 
HETATM   15 CL2  UNL     1      22.082   2.009  48.001  1.00  0.00    -0.089 Cl
HETATM   16  H3  UNL     1      25.907   2.161  50.443  1.00  0.00     0.161 HD
ENDROOT
BRANCH   4  17
HETATM   17  S1  UNL     1      23.775   3.772  52.573  1.00  0.00    -0.150 SA
HETATM   18  H4  UNL     1      22.802   3.192  53.409  1.00  0.00     0.104 HD
ENDBRANCH   4  17
BRANCH   4  19
HETATM   19  C4  UNL     1      24.163   3.697  49.891  1.00  0.00     0.043 C 
BRANCH  19  20
HETATM   20  C5  UNL     1      25.513   3.763  49.270  1.00  0.00     0.003 C 
BRANCH  20  21
HETATM   21  C6  UNL     1      26.234   5.055  49.242  1.00  0.00    -0.004 C 
HETATM   22  C7  UNL     1      27.640   4.892  48.623  1.00  0.00     0.005 C 
ENDBRANCH  20  21
ENDBRANCH  19  20
ENDBRANCH   4  19
BRANCH  12  23
HETATM   23  C15 UNL     1      26.414  -0.442  53.968  1.00  0.00     0.205 C 
BRANCH  23  24
HETATM   24  O1  UNL     1      25.969  -0.556  55.308  1.00  0.00    -0.396 OA
HETATM   25  H22 UNL     1      25.129  -1.078  55.374  1.00  0.00     0.209 HD
ENDBRANCH  23  24
ENDBRANCH  12  23
TORSDOF 6
ENDMDL
MODEL 2
REMARK VINA RESULT:      -7.2      1.290      1.600
REMARK  6 active torsions:
REMARK  status: ('A' for Active; 'I' for Inactive)
REMARK    1  A    between atoms: C3_4  and  S1_5 
REMARK    2  A    between atoms: C3_4  and  C4_6 
REMARK    3  A    between atoms: C4_6  and  C5_7 
REMARK    4  A    between atoms: C5_7  and  C6_8 
REMARK    5  A    between atoms: C14_17  and  C15_18 
REMARK    6  A    between atoms: C15_18  and  O1_19 
ROOT
HETATM    1  C1  UNL     1      25.747  -0.171  53.507  1.00  0.00     0.043 C 
HETATM    2  C2  UNL     1      24.447   0.082  53.237  1.00  0.00     0.028 C 
HETATM    3  N1  UNL     1      24.540   0.851  52.031  1.00  0.00    -0.371 N 
HETATM    4  C3  UNL     1      23.810   2.001  51.509  1.00  0.00     0.085 C 
HETATM    5  C8  UNL     1      22.446   1.442  51.371  1.00  0.00     0.071 C 
HETATM    6  C9  UNL     1      21.470   2.388  51.917  1.00  0.00     0.047 C 
HETATM    7  C10 UNL     1      20.249   1.488  51.790  1.00  0.00     0.074 C 
HETATM    8 CL1  UNL     1      18.875   2.602  51.667  1.00  0.00    -0.110 Cl
HETATM    9  C11 UNL     1      20.218   0.637  52.945  1.00  0.00     0.003 C 
HETATM   10  C12 UNL     1      20.838  -0.085  53.870  1.00  0.00    -0.001 C 
HETATM   11  C13 UNL     1      22.161  -0.496  54.306  1.00  0.00     0.011 C 
HETATM   12  C14 UNL     1      23.476  -0.493  54.163  1.00  0.00    -0.009 C 
HETATM   13  C16 UNL     1      20.534   0.928  50.445  1.00  0.00     0.023 C 
HETATM   14  C17 UNL     1      21.789   1.313  50.042  1.00  0.00     0.017 C 
HETATM   15 CL2  UNL     1      21.978   1.450  48.280  1.00  0.00    -0.089 Cl
HETATM   16  H3  UNL     1      25.251   0.569  51.301  1.00  0.00     0.161 HD
ENDROOT
BRANCH   4  17
HETATM   17  S1  UNL     1      23.778   3.271  52.788  1.00  0.00    -0.150 SA
HETATM   18  H4  UNL     1      24.966   4.024  52.852  1.00  0.00     0.104 HD
ENDBRANCH   4  17
BRANCH   4  19
HETATM   19  C4  UNL     1      24.369   2.525  50.249  1.00  0.00     0.043 C 
BRANCH  19  20
HETATM   20  C5  UNL     1      24.383   4.010  50.158  1.00  0.00     0.003 C 
BRANCH  20  21
HETATM   21  C6  UNL     1      25.438   4.675  49.361  1.00  0.00    -0.004 C 
HETATM   22  C7  UNL     1      26.752   3.863  49.394  1.00  0.00     0.005 C 
ENDBRANCH  20  21
ENDBRANCH  19  20
ENDBRANCH   4  19
BRANCH  12  23
HETATM   23  C15 UNL     1      24.271  -1.276  55.186  1.00  0.00     0.205 C 
BRANCH  23  24
HETATM   24  O1  UNL     1      23.294  -1.884  56.014  1.00  0.00    -0.396 OA
HETATM   25  H22 UNL     1      22.375  -1.714  55.685  1.00  0.00     0.209 HD
ENDBRANCH  23  24
ENDBRANCH  12  23
TORSDOF 6
ENDMDL
MODEL 3
REMARK VINA RESULT:      -7.0      1.276      2.010
REMARK  6 active torsions:
REMARK  status: ('A' for Active; 'I' for Inactive)
REMARK    1  A    between atoms: C3_4  and  S1_5 
REMARK    2  A    between atoms: C3_4  and  C4_6 
REMARK    3  A    between atoms: C4_6  and  C5_7 
REMARK    4  A    between atoms: C5_7  and  C6_8 
REMARK    5  A    between atoms: C14_17  and  C15_18 
REMARK    6  A    between atoms: C15_18  and  O1_19 
ROOT
HETATM    1  C1  UNL     1      27.090   2.051  52.069  1.00  0.00     0.043 C 
HETATM    2  C2  UNL     1      25.820   1.595  52.154  1.00  0.00     0.028 C 
HETATM    3  N1  UNL     1      25.169   2.339  51.117  1.00  0.00    -0.371 N 
HETATM    4  C3  UNL     1      23.852   2.952  50.992  1.00  0.00     0.085 C 
HETATM    5  C8  UNL     1      22.969   1.766  51.071  1.00  0.00     0.071 C 
HETATM    6  C9  UNL     1      21.859   2.041  51.988  1.00  0.00     0.047 C 
HETATM    7  C10 UNL     1      21.266   0.639  51.983  1.00  0.00     0.074 C 
HETATM    8 CL1  UNL     1      19.553   0.870  52.381  1.00  0.00    -0.110 Cl
HETATM    9  C11 UNL     1      21.994  -0.141  52.942  1.00  0.00     0.003 C 
HETATM   10  C12 UNL     1      23.126  -0.463  53.556  1.00  0.00    -0.001 C 
HETATM   11  C13 UNL     1      24.540  -0.133  53.595  1.00  0.00     0.011 C 
HETATM   12  C14 UNL     1      25.576   0.564  53.158  1.00  0.00    -0.009 C 
HETATM   13  C16 UNL     1      21.387   0.359  50.530  1.00  0.00     0.023 C 
HETATM   14  C17 UNL     1      22.110   1.357  49.927  1.00  0.00     0.017 C 
HETATM   15 CL2  UNL     1      21.687   1.635  48.222  1.00  0.00    -0.089 Cl
HETATM   16  H3  UNL     1      25.680   2.497  50.206  1.00  0.00     0.161 HD
ENDROOT
BRANCH   4  17
HETATM   17  S1  UNL     1      23.568   3.972  52.451  1.00  0.00    -0.150 SA
HETATM   18  H4  UNL     1      22.729   5.075  52.202  1.00  0.00     0.104 HD
ENDBRANCH   4  17
BRANCH   4  19
HETATM   19  C4  UNL     1      23.687   3.734  49.753  1.00  0.00     0.043 C 
BRANCH  19  20
HETATM   20  C5  UNL     1      22.930   5.004  49.927  1.00  0.00     0.003 C 
BRANCH  20  21
HETATM   21  C6  UNL     1      21.658   5.194  49.196  1.00  0.00    -0.004 C 
HETATM   22  C7  UNL     1      20.450   4.808  50.078  1.00  0.00     0.005 C 
ENDBRANCH  20  21
ENDBRANCH  19  20
ENDBRANCH   4  19
BRANCH  12  23
HETATM   23  C15 UNL     1      26.910   0.279  53.815  1.00  0.00     0.205 C 
BRANCH  23  24
HETATM   24  O1  UNL     1      26.583  -0.360  55.036  1.00  0.00    -0.396 OA
HETATM   25  H22 UNL     1      25.667  -0.133  55.337  1.00  0.00     0.209 HD
ENDBRANCH  23  24
ENDBRANCH  12  23
TORSDOF 6
ENDMDL
MODEL 4
REMARK VINA RESULT:      -6.8      2.818      4.447
REMARK  6 active torsions:
REMARK  status: ('A' for Active; 'I' for Inactive)
REMARK    1  A    between atoms: C3_4  and  S1_5 
REMARK    2  A    between atoms: C3_4  and  C4_6 
REMARK    3  A    between atoms: C4_6  and  C5_7 
REMARK    4  A    between atoms: C5_7  and  C6_8 
REMARK    5  A    between atoms: C14_17  and  C15_18 
REMARK    6  A    between atoms: C15_18  and  O1_19 
ROOT
HETATM    1  C1  UNL     1      19.903  -0.539  53.635  1.00  0.00     0.043 C 
HETATM    2  C2  UNL     1      21.081   0.036  53.304  1.00  0.00     0.028 C 
HETATM    3  N1  UNL     1      20.652   1.198  52.585  1.00  0.00    -0.371 N 
HETATM    4  C3  UNL     1      21.153   1.897  51.407  1.00  0.00     0.085 C 
HETATM    5  C8  UNL     1      22.483   2.345  51.878  1.00  0.00     0.071 C 
HETATM    6  C9  UNL     1      23.489   2.061  50.851  1.00  0.00     0.047 C 
HETATM    7  C10 UNL     1      24.707   2.460  51.671  1.00  0.00     0.074 C 
HETATM    8 CL1  UNL     1      25.930   2.923  50.473  1.00  0.00    -0.110 Cl
HETATM    9  C11 UNL     1      25.071   1.331  52.480  1.00  0.00     0.003 C 
HETATM   10  C12 UNL     1      24.741   0.273  53.210  1.00  0.00    -0.001 C 
HETATM   11  C13 UNL     1      23.590  -0.470  53.693  1.00  0.00     0.011 C 
HETATM   12  C14 UNL     1      22.282  -0.643  53.783  1.00  0.00    -0.009 C 
HETATM   13  C16 UNL     1      24.156   3.689  52.293  1.00  0.00     0.023 C 
HETATM   14  C17 UNL     1      22.817   3.790  52.007  1.00  0.00     0.017 C 
HETATM   15 CL2  UNL     1      22.209   5.459  51.941  1.00  0.00    -0.089 Cl
HETATM   16  H3  UNL     1      19.812   1.734  52.937  1.00  0.00     0.161 HD
ENDROOT
BRANCH   4  17
HETATM   17  S1  UNL     1      21.393   0.684  50.095  1.00  0.00    -0.150 SA
HETATM   18  H4  UNL     1      22.467   0.996  49.240  1.00  0.00     0.104 HD
ENDBRANCH   4  17
BRANCH   4  19
HETATM   19  C4  UNL     1      20.277   2.997  50.963  1.00  0.00     0.043 C 
BRANCH  19  20
HETATM   20  C5  UNL     1      20.183   3.147  49.486  1.00  0.00     0.003 C 
BRANCH  20  21
HETATM   21  C6  UNL     1      20.826   4.310  48.835  1.00  0.00    -0.004 C 
HETATM   22  C7  UNL     1      22.041   3.869  47.988  1.00  0.00     0.005 C 
ENDBRANCH  20  21
ENDBRANCH  19  20
ENDBRANCH   4  19
BRANCH  12  23
HETATM   23  C15 UNL     1      21.809  -1.838  54.582  1.00  0.00     0.205 C 
BRANCH  23  24
HETATM   24  O1  UNL     1      22.694  -1.907  55.687  1.00  0.00    -0.396 OA
HETATM   25  H22 UNL     1      23.307  -2.682  55.621  1.00  0.00     0.209 HD
ENDBRANCH  23  24
ENDBRANCH  12  23
TORSDOF 6
ENDMDL
MODEL 5
REMARK VINA RESULT:      -6.7      3.094      4.641
REMARK  6 active torsions:
REMARK  status: ('A' for Active; 'I' for Inactive)
REMARK    1  A    between atoms: C3_4  and  S1_5 
REMARK    2  A    between atoms: C3_4  and  C4_6 
REMARK    3  A    between atoms: C4_6  and  C5_7 
REMARK    4  A    between atoms: C5_7  and  C6_8 
REMARK    5  A    between atoms: C14_17  and  C15_18 
REMARK    6  A    between atoms: C15_18  and  O1_19 
ROOT
HETATM    1  C1  UNL     1      18.366   1.180  51.703  1.00  0.00     0.043 C 
HETATM    2  C2  UNL     1      19.674   1.081  52.027  1.00  0.00     0.028 C 
HETATM    3  N1  UNL     1      20.217   2.266  51.433  1.00  0.00    -0.371 N 
HETATM    4  C3  UNL     1      21.467   2.567  50.743  1.00  0.00     0.085 C 
HETATM    5  C8  UNL     1      22.458   2.322  51.815  1.00  0.00     0.071 C 
HETATM    6  C9  UNL     1      23.569   1.528  51.285  1.00  0.00     0.047 C 
HETATM    7  C10 UNL     1      24.289   1.312  52.608  1.00  0.00     0.074 C 
HETATM    8 CL1  UNL     1      25.986   1.051  52.164  1.00  0.00    -0.110 Cl
HETATM    9  C11 UNL     1      23.671   0.192  53.259  1.00  0.00     0.003 C 
HETATM   10  C12 UNL     1      22.596  -0.527  53.557  1.00  0.00    -0.001 C 
HETATM   11  C13 UNL     1      21.159  -0.580  53.346  1.00  0.00     0.011 C 
HETATM   12  C14 UNL     1      20.049  -0.079  52.832  1.00  0.00    -0.009 C 
HETATM   13  C16 UNL     1      24.143   2.683  53.159  1.00  0.00     0.023 C 
HETATM   14  C17 UNL     1      23.310   3.417  52.353  1.00  0.00     0.017 C 
HETATM   15 CL2  UNL     1      23.645   5.163  52.358  1.00  0.00    -0.089 Cl
HETATM   16  H3  UNL     1      19.662   3.164  51.488  1.00  0.00     0.161 HD
ENDROOT
BRANCH   4  17
HETATM   17  S1  UNL     1      21.706   1.331  49.453  1.00  0.00    -0.150 SA
HETATM   18  H4  UNL     1      22.930   0.643  49.565  1.00  0.00     0.104 HD
ENDBRANCH   4  17
BRANCH   4  19
HETATM   19  C4  UNL     1      21.515   3.933  50.190  1.00  0.00     0.043 C 
BRANCH  19  20
HETATM   20  C5  UNL     1      22.196   4.036  48.872  1.00  0.00     0.003 C 
BRANCH  20  21
HETATM   21  C6  UNL     1      23.341   4.960  48.719  1.00  0.00    -0.004 C 
HETATM   22  C7  UNL     1      24.671   4.258  49.073  1.00  0.00     0.005 C 
ENDBRANCH  20  21
ENDBRANCH  19  20
ENDBRANCH   4  19
BRANCH  12  23
HETATM   23  C15 UNL     1      18.771  -0.843  53.103  1.00  0.00     0.205 C 
BRANCH  23  24
HETATM   24  O1  UNL     1      19.139  -1.842  54.038  1.00  0.00    -0.396 OA
HETATM   25  H22 UNL     1      19.831  -2.451  53.673  1.00  0.00     0.209 HD
ENDBRANCH  23  24
ENDBRANCH  12  23
TORSDOF 6
ENDMDL
MODEL 6
REMARK VINA RESULT:      -6.4      2.409      4.141
REMARK  6 active torsions:
REMARK  status: ('A' for Active; 'I' for Inactive)
REMARK    1  A    between atoms: C3_4  and  S1_5 
REMARK    2  A    between atoms: C3_4  and  C4_6 
REMARK    3  A    between atoms: C4_6  and  C5_7 
REMARK    4  A    between atoms: C5_7  and  C6_8 
REMARK    5  A    between atoms: C14_17  and  C15_18 
REMARK    6  A    between atoms: C15_18  and  O1_19 
ROOT
HETATM    1  C1  UNL     1      25.039   4.137  49.326  1.00  0.00     0.043 C 
HETATM    2  C2  UNL     1      24.423   3.292  50.182  1.00  0.00     0.028 C 
HETATM    3  N1  UNL     1      23.046   3.455  49.820  1.00  0.00    -0.371 N 
HETATM    4  C3  UNL     1      21.802   3.497  50.580  1.00  0.00     0.085 C 
HETATM    5  C8  UNL     1      21.771   2.136  51.163  1.00  0.00     0.071 C 
HETATM    6  C9  UNL     1      21.423   2.218  52.584  1.00  0.00     0.047 C 
HETATM    7  C10 UNL     1      21.636   0.747  52.911  1.00  0.00     0.074 C 
HETATM    8 CL1  UNL     1      20.594   0.439  54.313  1.00  0.00    -0.110 Cl
HETATM    9  C11 UNL     1      23.036   0.559  53.163  1.00  0.00     0.003 C 
HETATM   10  C12 UNL     1      24.308   0.839  52.908  1.00  0.00    -0.001 C 
HETATM   11  C13 UNL     1      25.151   1.655  52.051  1.00  0.00     0.011 C 
HETATM   12  C14 UNL     1      25.296   2.540  51.079  1.00  0.00    -0.009 C 
HETATM   13  C16 UNL     1      20.999   0.164  51.704  1.00  0.00     0.023 C 
HETATM   14  C17 UNL     1      20.700   1.163  50.812  1.00  0.00     0.017 C 
HETATM   15 CL2  UNL     1      19.299   0.818  49.774  1.00  0.00    -0.089 Cl
HETATM   16  H3  UNL     1      22.796   3.545  48.798  1.00  0.00     0.161 HD
ENDROOT
BRANCH   4  17
HETATM   17  S1  UNL     1      22.004   4.685  51.920  1.00  0.00    -0.150 SA
HETATM   18  H4  UNL     1      23.345   5.050  52.140  1.00  0.00     0.104 HD
ENDBRANCH   4  17
BRANCH   4  19
HETATM   19  C4  UNL     1      20.623   3.817  49.754  1.00  0.00     0.043 C 
BRANCH  19  20
HETATM   20  C5  UNL     1      19.666   4.759  50.394  1.00  0.00     0.003 C 
BRANCH  20  21
HETATM   21  C6  UNL     1      18.225   4.422  50.417  1.00  0.00    -0.004 C 
HETATM   22  C7  UNL     1      17.889   3.507  51.615  1.00  0.00     0.005 C 
ENDBRANCH  20  21
ENDBRANCH  19  20
ENDBRANCH   4  19
BRANCH  12  23
HETATM   23  C15 UNL     1      26.714   2.937  50.729  1.00  0.00     0.205 C 
BRANCH  23  24
HETATM   24  O1  UNL     1      27.430   2.831  51.948  1.00  0.00    -0.396 OA
HETATM   25  H22 UNL     1      26.846   2.543  52.695  1.00  0.00     0.209 HD
ENDBRANCH  23  24
ENDBRANCH  12  23
TORSDOF 6
ENDMDL
MODEL 7
REMARK VINA RESULT:      -6.3      4.064      6.091
REMARK  6 active torsions:
REMARK  status: ('A' for Active; 'I' for Inactive)
REMARK    1  A    between atoms: C3_4  and  S1_5 
REMARK    2  A    between atoms: C3_4  and  C4_6 
REMARK    3  A    between atoms: C4_6  and  C5_7 
REMARK    4  A    between atoms: C5_7  and  C6_8 
REMARK    5  A    between atoms: C14_17  and  C15_18 
REMARK    6  A    between atoms: C15_18  and  O1_19 
ROOT
HETATM    1  C1  UNL     1      26.868   7.946  47.713  1.00  0.00     0.043 C 
HETATM    2  C2  UNL     1      26.354   6.790  48.190  1.00  0.00     0.028 C 
HETATM    3  N1  UNL     1      24.946   7.056  48.160  1.00  0.00    -0.371 N 
HETATM    4  C3  UNL     1      23.836   6.720  49.044  1.00  0.00     0.085 C 
HETATM    5  C8  UNL     1      23.835   5.242  48.960  1.00  0.00     0.071 C 
HETATM    6  C9  UNL     1      23.714   4.673  50.305  1.00  0.00     0.047 C 
HETATM    7  C10 UNL     1      23.910   3.217  49.908  1.00  0.00     0.074 C 
HETATM    8 CL1  UNL     1      23.084   2.287  51.172  1.00  0.00    -0.110 Cl
HETATM    9  C11 UNL     1      25.322   2.977  49.827  1.00  0.00     0.003 C 
HETATM   10  C12 UNL     1      26.551   3.379  49.526  1.00  0.00    -0.001 C 
HETATM   11  C13 UNL     1      27.287   4.515  48.999  1.00  0.00     0.011 C 
HETATM   12  C14 UNL     1      27.320   5.743  48.511  1.00  0.00    -0.009 C 
HETATM   13  C16 UNL     1      23.070   3.213  48.683  1.00  0.00     0.023 C 
HETATM   14  C17 UNL     1      22.682   4.495  48.387  1.00  0.00     0.017 C 
HETATM   15 CL2  UNL     1      21.124   4.607  47.537  1.00  0.00    -0.089 Cl
HETATM   16  H3  UNL     1      24.546   7.585  47.336  1.00  0.00     0.161 HD
ENDROOT
BRANCH   4  17
HETATM   17  S1  UNL     1      24.294   7.193  50.722  1.00  0.00    -0.150 SA
HETATM   18  H4  UNL     1      25.436   8.015  50.774  1.00  0.00     0.104 HD
ENDBRANCH   4  17
BRANCH   4  19
HETATM   19  C4  UNL     1      22.560   7.339  48.643  1.00  0.00     0.043 C 
BRANCH  19  20
HETATM   20  C5  UNL     1      21.750   7.859  49.777  1.00  0.00     0.003 C 
BRANCH  20  21
HETATM   21  C6  UNL     1      20.276   7.907  49.650  1.00  0.00    -0.004 C 
HETATM   22  C7  UNL     1      19.742   9.329  49.932  1.00  0.00     0.005 C 
ENDBRANCH  20  21
ENDBRANCH  19  20
ENDBRANCH   4  19
BRANCH  12  23
HETATM   23  C15 UNL     1      28.684   6.295  48.155  1.00  0.00     0.205 C 
BRANCH  23  24
HETATM   24  O1  UNL     1      29.575   5.666  49.060  1.00  0.00    -0.396 OA
HETATM   25  H22 UNL     1      30.040   6.324  49.637  1.00  0.00     0.209 HD
ENDBRANCH  23  24
ENDBRANCH  12  23
TORSDOF 6
ENDMDL
MODEL 8
REMARK VINA RESULT:      -6.3      7.877     10.844
REMARK  6 active torsions:
REMARK  status: ('A' for Active; 'I' for Inactive)
REMARK    1  A    between atoms: C3_4  and  S1_5 
REMARK    2  A    between atoms: C3_4  and  C4_6 
REMARK    3  A    between atoms: C4_6  and  C5_7 
REMARK    4  A    between atoms: C5_7  and  C6_8 
REMARK    5  A    between atoms: C14_17  and  C15_18 
REMARK    6  A    between atoms: C15_18  and  O1_19 
ROOT
HETATM    1  C1  UNL     1      27.932   4.990  48.626  1.00  0.00     0.043 C 
HETATM    2  C2  UNL     1      28.731   6.005  48.227  1.00  0.00     0.028 C 
HETATM    3  N1  UNL     1      29.859   5.301  47.693  1.00  0.00    -0.371 N 
HETATM    4  C3  UNL     1      31.298   5.537  47.713  1.00  0.00     0.085 C 
HETATM    5  C8  UNL     1      31.394   6.813  46.968  1.00  0.00     0.071 C 
HETATM    6  C9  UNL     1      32.286   7.732  47.680  1.00  0.00     0.047 C 
HETATM    7  C10 UNL     1      32.045   8.945  46.793  1.00  0.00     0.074 C 
HETATM    8 CL1  UNL     1      33.514   9.926  46.959  1.00  0.00    -0.110 Cl
HETATM    9  C11 UNL     1      30.850   9.589  47.258  1.00  0.00     0.003 C 
HETATM   10  C12 UNL     1      29.625   9.533  47.766  1.00  0.00    -0.001 C 
HETATM   11  C13 UNL     1      28.616   8.591  48.219  1.00  0.00     0.011 C 
HETATM   12  C14 UNL     1      28.203   7.352  48.426  1.00  0.00    -0.009 C 
HETATM   13  C16 UNL     1      32.073   8.260  45.477  1.00  0.00     0.023 C 
HETATM   14  C17 UNL     1      32.111   6.901  45.666  1.00  0.00     0.017 C 
HETATM   15 CL2  UNL     1      32.930   6.006  44.366  1.00  0.00    -0.089 Cl
HETATM   16  H3  UNL     1      29.690   4.424  47.126  1.00  0.00     0.161 HD
ENDROOT
BRANCH   4  17
HETATM   17  S1  UNL     1      31.791   5.838  49.421  1.00  0.00    -0.150 SA
HETATM   18  H4  UNL     1      31.671   7.188  49.803  1.00  0.00     0.104 HD
ENDBRANCH   4  17
BRANCH   4  19
HETATM   19  C4  UNL     1      32.079   4.439  47.117  1.00  0.00     0.043 C 
BRANCH  19  20
HETATM   20  C5  UNL     1      33.348   4.133  47.831  1.00  0.00     0.003 C 
BRANCH  20  21
HETATM   21  C6  UNL     1      34.639   4.451  47.181  1.00  0.00    -0.004 C 
HETATM   22  C7  UNL     1      34.993   3.397  46.108  1.00  0.00     0.005 C 
ENDBRANCH  20  21
ENDBRANCH  19  20
ENDBRANCH   4  19
BRANCH  12  23
HETATM   23  C15 UNL     1      26.822   7.188  49.023  1.00  0.00     0.205 C 
BRANCH  23  24
HETATM   24  O1  UNL     1      26.871   7.901  50.247  1.00  0.00    -0.396 OA
HETATM   25  H22 UNL     1      27.597   8.574  50.253  1.00  0.00     0.209 HD
ENDBRANCH  23  24
ENDBRANCH  12  23
TORSDOF 6
ENDMDL
MODEL 9
REMARK VINA RESULT:      -6.2      2.974      5.753
REMARK  6 active torsions:
REMARK  status: ('A' for Active; 'I' for Inactive)
REMARK    1  A    between atoms: C3_4  and  S1_5 
REMARK    2  A    between atoms: C3_4  and  C4_6 
REMARK    3  A    between atoms: C4_6  and  C5_7 
REMARK    4  A    between atoms: C5_7  and  C6_8 
REMARK    5  A    between atoms: C14_17  and  C15_18 
REMARK    6  A    between atoms: C15_18  and  O1_19 
ROOT
HETATM    1  C1  UNL     1      24.375   1.739  51.971  1.00  0.00     0.043 C 
HETATM    2  C2  UNL     1      24.534   2.820  51.174  1.00  0.00     0.028 C 
HETATM    3  N1  UNL     1      23.199   3.335  51.103  1.00  0.00    -0.371 N 
HETATM    4  C3  UNL     1      22.409   3.947  50.040  1.00  0.00     0.085 C 
HETATM    5  C8  UNL     1      23.189   5.176  49.768  1.00  0.00     0.071 C 
HETATM    6  C9  UNL     1      23.349   5.346  48.322  1.00  0.00     0.047 C 
HETATM    7  C10 UNL     1      24.293   6.538  48.380  1.00  0.00     0.074 C 
HETATM    8 CL1  UNL     1      24.047   7.388  46.843  1.00  0.00    -0.110 Cl
HETATM    9  C11 UNL     1      25.622   6.028  48.566  1.00  0.00     0.003 C 
HETATM   10  C12 UNL     1      26.462   5.148  49.096  1.00  0.00    -0.001 C 
HETATM   11  C13 UNL     1      26.504   3.982  49.961  1.00  0.00     0.011 C 
HETATM   12  C14 UNL     1      25.898   3.092  50.728  1.00  0.00    -0.009 C 
HETATM   13  C16 UNL     1      23.616   7.297  49.461  1.00  0.00     0.023 C 
HETATM   14  C17 UNL     1      22.618   6.529  50.008  1.00  0.00     0.017 C 
HETATM   15 CL2  UNL     1      21.259   7.464  50.671  1.00  0.00    -0.089 Cl
HETATM   16  H3  UNL     1      22.603   3.328  51.976  1.00  0.00     0.161 HD
ENDROOT
BRANCH   4  17
HETATM   17  S1  UNL     1      22.502   2.881  48.589  1.00  0.00    -0.150 SA
HETATM   18  H4  UNL     1      22.107   1.555  48.849  1.00  0.00     0.104 HD
ENDBRANCH   4  17
BRANCH   4  19
HETATM   19  C4  UNL     1      21.010   4.204  50.426  1.00  0.00     0.043 C 
BRANCH  19  20
HETATM   20  C5  UNL     1      20.680   3.820  51.825  1.00  0.00     0.003 C 
BRANCH  20  21
HETATM   21  C6  UNL     1      19.696   2.741  52.066  1.00  0.00    -0.004 C 
HETATM   22  C7  UNL     1      20.145   1.423  51.396  1.00  0.00     0.005 C 
ENDBRANCH  20  21
ENDBRANCH  19  20
ENDBRANCH   4  19
BRANCH  12  23
HETATM   23  C15 UNL     1      26.775   2.034  51.362  1.00  0.00     0.205 C 
BRANCH  23  24
HETATM   24  O1  UNL     1      27.755   2.761  52.082  1.00  0.00    -0.396 OA
HETATM   25  H22 UNL     1      28.501   2.180  52.380  1.00  0.00     0.209 HD
ENDBRANCH  23  24
ENDBRANCH  12  23
TORSDOF 6
ENDMDL
