MODEL 1
REMARK VINA RESULT:      -6.9      0.000      0.000
REMARK  3 active torsions:
REMARK  status: ('A' for Active; 'I' for Inactive)
REMARK    1  A    between atoms: O1_2  and  C2_3 
REMARK    2  A    between atoms: C10_14  and  C11_15 
REMARK    3  A    between atoms: C11_15  and  N3_16 
ROOT
HETATM    1  C2  UNL     1      27.453  -0.795  53.276  1.00  0.00     0.098 C 
HETATM    2  C3  UNL     1      26.739  -1.726  52.675  1.00  0.00     0.040 C 
HETATM    3  C4  UNL     1      25.753  -0.639  52.249  1.00  0.00     0.142 C 
HETATM    4  N1  UNL     1      26.554   0.316  51.563  1.00  0.00    -0.275 NA
HETATM    5  C5  UNL     1      27.380   1.189  52.016  1.00  0.00     0.200 C 
HETATM    6  N2  UNL     1      28.010   1.798  52.994  1.00  0.00    -0.354 N 
HETATM    7  C6  UNL     1      28.674   2.492  53.720  1.00  0.00     0.140 A 
HETATM    8  C7  UNL     1      27.993   1.547  54.532  1.00  0.00     0.170 A 
HETATM    9  C8  UNL     1      27.629   0.379  54.138  1.00  0.00     0.104 C 
HETATM   10  O2  UNL     1      26.802  -0.345  55.064  1.00  0.00    -0.350 OA
HETATM   11  C9  UNL     1      25.381  -0.601  54.787  1.00  0.00     0.184 C 
HETATM   12  C10 UNL     1      24.917  -0.232  53.396  1.00  0.00     0.056 C 
ENDROOT
BRANCH  12  13
HETATM   13  C11 UNL     1      24.528   1.199  53.334  1.00  0.00     0.126 C 
BRANCH  13  14
HETATM   14  N3  UNL     1      23.153   1.489  53.077  1.00  0.00    -0.409 N 
HETATM   15  C12 UNL     1      22.376   0.346  52.734  1.00  0.00     0.147 C 
HETATM   16  C13 UNL     1      21.364   0.497  51.665  1.00  0.00     0.291 C 
HETATM   17  N4  UNL     1      21.648   1.450  50.636  1.00  0.00     0.087 N 
HETATM   18  C14 UNL     1      21.533   0.893  49.306  1.00  0.00     0.310 C 
HETATM   19  C15 UNL     1      22.869   2.185  50.833  1.00  0.00     0.291 C 
HETATM   20  C16 UNL     1      22.832   2.628  52.309  1.00  0.00     0.147 C 
ENDBRANCH  13  14
ENDBRANCH  12  13
BRANCH   1  21
HETATM   21  O1  UNL     1      28.838  -0.865  53.033  1.00  0.00    -0.354 OA
HETATM   22  C1  UNL     1      29.578  -2.013  53.386  1.00  0.00     0.210 C 
ENDBRANCH   1  21
TORSDOF 3
ENDMDL
MODEL 2
REMARK VINA RESULT:      -6.4      3.323      6.347
REMARK  3 active torsions:
REMARK  status: ('A' for Active; 'I' for Inactive)
REMARK    1  A    between atoms: O1_2  and  C2_3 
REMARK    2  A    between atoms: C10_14  and  C11_15 
REMARK    3  A    between atoms: C11_15  and  N3_16 
ROOT
HETATM    1  C2  UNL     1      22.362   3.967  50.334  1.00  0.00     0.098 C 
HETATM    2  C3  UNL     1      21.331   3.840  51.146  1.00  0.00     0.040 C 
HETATM    3  C4  UNL     1      22.314   3.676  52.304  1.00  0.00     0.142 C 
HETATM    4  N1  UNL     1      23.135   4.836  52.238  1.00  0.00    -0.275 NA
HETATM    5  C5  UNL     1      24.083   5.138  51.427  1.00  0.00     0.200 C 
HETATM    6  N2  UNL     1      24.866   4.884  50.404  1.00  0.00    -0.354 N 
HETATM    7  C6  UNL     1      25.686   4.852  49.523  1.00  0.00     0.140 A 
HETATM    8  C7  UNL     1      24.898   3.676  49.419  1.00  0.00     0.170 A 
HETATM    9  C8  UNL     1      23.675   3.586  49.802  1.00  0.00     0.104 C 
HETATM   10  O2  UNL     1      23.123   2.258  49.765  1.00  0.00    -0.350 OA
HETATM   11  C9  UNL     1      22.808   1.523  50.998  1.00  0.00     0.184 C 
HETATM   12  C10 UNL     1      22.913   2.327  52.275  1.00  0.00     0.056 C 
ENDROOT
BRANCH  12  13
HETATM   13  C11 UNL     1      24.306   2.316  52.789  1.00  0.00     0.126 C 
BRANCH  13  14
HETATM   14  N3  UNL     1      25.121   1.198  52.434  1.00  0.00    -0.409 N 
HETATM   15  C12 UNL     1      25.107   0.145  53.393  1.00  0.00     0.147 C 
HETATM   16  C13 UNL     1      26.385  -0.544  53.680  1.00  0.00     0.291 C 
HETATM   17  N4  UNL     1      27.580   0.233  53.554  1.00  0.00     0.087 N 
HETATM   18  C14 UNL     1      28.420   0.169  54.730  1.00  0.00     0.310 C 
HETATM   19  C15 UNL     1      27.363   1.579  53.091  1.00  0.00     0.291 C 
HETATM   20  C16 UNL     1      26.403   1.437  51.894  1.00  0.00     0.147 C 
ENDBRANCH  13  14
ENDBRANCH  12  13
BRANCH   1  21
HETATM   21  O1  UNL     1      22.262   5.029  49.415  1.00  0.00    -0.354 OA
HETATM   22  C1  UNL     1      21.058   5.749  49.268  1.00  0.00     0.210 C 
ENDBRANCH   1  21
TORSDOF 3
ENDMDL
MODEL 3
REMARK VINA RESULT:      -6.2      2.678      6.318
REMARK  3 active torsions:
REMARK  status: ('A' for Active; 'I' for Inactive)
REMARK    1  A    between atoms: O1_2  and  C2_3 
REMARK    2  A    between atoms: C10_14  and  C11_15 
REMARK    3  A    between atoms: C11_15  and  N3_16 
ROOT
HETATM    1  C2  UNL     1      22.123   3.306  51.708  1.00  0.00     0.098 C 
HETATM    2  C3  UNL     1      22.795   3.916  52.665  1.00  0.00     0.040 C 
HETATM    3  C4  UNL     1      23.949   2.945  52.418  1.00  0.00     0.142 C 
HETATM    4  N1  UNL     1      24.237   3.084  51.031  1.00  0.00    -0.275 NA
HETATM    5  C5  UNL     1      23.602   2.651  50.002  1.00  0.00     0.200 C 
HETATM    6  N2  UNL     1      22.612   2.004  49.432  1.00  0.00    -0.354 N 
HETATM    7  C6  UNL     1      21.817   1.459  48.710  1.00  0.00     0.140 A 
HETATM    8  C7  UNL     1      21.364   1.302  50.046  1.00  0.00     0.170 A 
HETATM    9  C8  UNL     1      21.616   2.125  51.000  1.00  0.00     0.104 C 
HETATM   10  O2  UNL     1      21.208   1.685  52.307  1.00  0.00    -0.350 OA
HETATM   11  C9  UNL     1      22.192   1.316  53.335  1.00  0.00     0.184 C 
HETATM   12  C10 UNL     1      23.632   1.622  52.990  1.00  0.00     0.056 C 
ENDROOT
BRANCH  12  13
HETATM   13  C11 UNL     1      24.234   0.510  52.213  1.00  0.00     0.126 C 
BRANCH  13  14
HETATM   14  N3  UNL     1      25.450  -0.050  52.713  1.00  0.00    -0.409 N 
HETATM   15  C12 UNL     1      25.734   0.300  54.063  1.00  0.00     0.147 C 
HETATM   16  C13 UNL     1      27.139   0.607  54.414  1.00  0.00     0.291 C 
HETATM   17  N4  UNL     1      27.950   1.183  53.385  1.00  0.00     0.087 N 
HETATM   18  C14 UNL     1      28.615   2.397  53.806  1.00  0.00     0.310 C 
HETATM   19  C15 UNL     1      27.287   1.317  52.115  1.00  0.00     0.291 C 
HETATM   20  C16 UNL     1      26.592  -0.039  51.885  1.00  0.00     0.147 C 
ENDBRANCH  13  14
ENDBRANCH  12  13
BRANCH   1  21
HETATM   21  O1  UNL     1      21.491   4.167  50.791  1.00  0.00    -0.354 OA
HETATM   22  C1  UNL     1      21.399   5.552  51.041  1.00  0.00     0.210 C 
ENDBRANCH   1  21
TORSDOF 3
ENDMDL
MODEL 4
REMARK VINA RESULT:      -6.0      2.867      6.747
REMARK  3 active torsions:
REMARK  status: ('A' for Active; 'I' for Inactive)
REMARK    1  A    between atoms: O1_2  and  C2_3 
REMARK    2  A    between atoms: C10_14  and  C11_15 
REMARK    3  A    between atoms: C11_15  and  N3_16 
ROOT
HETATM    1  C2  UNL     1      21.498   3.288  50.742  1.00  0.00     0.098 C 
HETATM    2  C3  UNL     1      22.357   3.756  49.858  1.00  0.00     0.040 C 
HETATM    3  C4  UNL     1      23.296   2.607  50.222  1.00  0.00     0.142 C 
HETATM    4  N1  UNL     1      22.513   1.435  50.026  1.00  0.00    -0.275 NA
HETATM    5  C5  UNL     1      21.567   0.938  50.739  1.00  0.00     0.200 C 
HETATM    6  N2  UNL     1      20.770   0.943  51.781  1.00  0.00    -0.354 N 
HETATM    7  C6  UNL     1      19.963   0.742  52.653  1.00  0.00     0.140 A 
HETATM    8  C7  UNL     1      20.610   1.972  52.941  1.00  0.00     0.170 A 
HETATM    9  C8  UNL     1      21.116   2.752  52.053  1.00  0.00     0.104 C 
HETATM   10  O2  UNL     1      21.875   3.856  52.574  1.00  0.00    -0.350 OA
HETATM   11  C9  UNL     1      23.336   3.923  52.424  1.00  0.00     0.184 C 
HETATM   12  C10 UNL     1      23.942   2.871  51.523  1.00  0.00     0.056 C 
ENDROOT
BRANCH  12  13
HETATM   13  C11 UNL     1      24.217   1.624  52.281  1.00  0.00     0.126 C 
BRANCH  13  14
HETATM   14  N3  UNL     1      25.409   0.911  51.950  1.00  0.00    -0.409 N 
HETATM   15  C12 UNL     1      25.588  -0.292  52.691  1.00  0.00     0.147 C 
HETATM   16  C13 UNL     1      26.954  -0.619  53.155  1.00  0.00     0.291 C 
HETATM   17  N4  UNL     1      27.820   0.483  53.445  1.00  0.00     0.087 N 
HETATM   18  C14 UNL     1      28.418   0.398  54.760  1.00  0.00     0.310 C 
HETATM   19  C15 UNL     1      27.244   1.774  53.172  1.00  0.00     0.291 C 
HETATM   20  C16 UNL     1      26.607   1.637  51.776  1.00  0.00     0.147 C 
ENDBRANCH  13  14
ENDBRANCH  12  13
BRANCH   1  21
HETATM   21  O1  UNL     1      20.165   3.222  50.291  1.00  0.00    -0.354 OA
HETATM   22  C1  UNL     1      19.384   4.389  50.163  1.00  0.00     0.210 C 
ENDBRANCH   1  21
TORSDOF 3
ENDMDL
MODEL 5
REMARK VINA RESULT:      -5.9      4.515      7.056
REMARK  3 active torsions:
REMARK  status: ('A' for Active; 'I' for Inactive)
REMARK    1  A    between atoms: O1_2  and  C2_3 
REMARK    2  A    between atoms: C10_14  and  C11_15 
REMARK    3  A    between atoms: C11_15  and  N3_16 
ROOT
HETATM    1  C2  UNL     1      22.359   3.910  51.593  1.00  0.00     0.098 C 
HETATM    2  C3  UNL     1      21.730   4.552  50.629  1.00  0.00     0.040 C 
HETATM    3  C4  UNL     1      23.003   4.458  49.789  1.00  0.00     0.142 C 
HETATM    4  N1  UNL     1      23.302   3.067  49.755  1.00  0.00    -0.275 NA
HETATM    5  C5  UNL     1      23.795   2.299  50.660  1.00  0.00     0.200 C 
HETATM    6  N2  UNL     1      24.276   2.075  51.860  1.00  0.00    -0.354 N 
HETATM    7  C6  UNL     1      24.753   1.652  52.882  1.00  0.00     0.140 A 
HETATM    8  C7  UNL     1      24.440   3.021  53.088  1.00  0.00     0.170 A 
HETATM    9  C8  UNL     1      23.500   3.651  52.478  1.00  0.00     0.104 C 
HETATM   10  O2  UNL     1      23.471   5.070  52.708  1.00  0.00    -0.350 OA
HETATM   11  C9  UNL     1      23.817   6.028  51.649  1.00  0.00     0.184 C 
HETATM   12  C10 UNL     1      24.004   5.429  50.272  1.00  0.00     0.056 C 
ENDROOT
BRANCH  12  13
HETATM   13  C11 UNL     1      25.396   4.943  50.096  1.00  0.00     0.126 C 
BRANCH  13  14
HETATM   14  N3  UNL     1      26.055   5.286  48.876  1.00  0.00    -0.409 N 
HETATM   15  C12 UNL     1      27.416   4.873  48.818  1.00  0.00     0.147 C 
HETATM   16  C13 UNL     1      28.393   5.800  48.204  1.00  0.00     0.291 C 
HETATM   17  N4  UNL     1      28.121   7.199  48.328  1.00  0.00     0.087 N 
HETATM   18  C14 UNL     1      29.239   7.945  48.863  1.00  0.00     0.310 C 
HETATM   19  C15 UNL     1      26.877   7.503  48.985  1.00  0.00     0.291 C 
HETATM   20  C16 UNL     1      25.842   6.569  48.327  1.00  0.00     0.147 C 
ENDBRANCH  13  14
ENDBRANCH  12  13
BRANCH   1  21
HETATM   21  O1  UNL     1      21.621   2.868  52.186  1.00  0.00    -0.354 OA
HETATM   22  C1  UNL     1      20.218   2.949  52.304  1.00  0.00     0.210 C 
ENDBRANCH   1  21
TORSDOF 3
ENDMDL
MODEL 6
REMARK VINA RESULT:      -5.8      9.358     10.688
REMARK  3 active torsions:
REMARK  status: ('A' for Active; 'I' for Inactive)
REMARK    1  A    between atoms: O1_2  and  C2_3 
REMARK    2  A    between atoms: C10_14  and  C11_15 
REMARK    3  A    between atoms: C11_15  and  N3_16 
ROOT
HETATM    1  C2  UNL     1      33.381   5.173  47.829  1.00  0.00     0.098 C 
HETATM    2  C3  UNL     1      32.482   4.270  47.488  1.00  0.00     0.040 C 
HETATM    3  C4  UNL     1      31.587   5.406  46.996  1.00  0.00     0.142 C 
HETATM    4  N1  UNL     1      32.395   6.114  46.063  1.00  0.00    -0.275 NA
HETATM    5  C5  UNL     1      33.376   6.921  46.257  1.00  0.00     0.200 C 
HETATM    6  N2  UNL     1      34.204   7.581  47.032  1.00  0.00    -0.354 N 
HETATM    7  C6  UNL     1      35.042   8.279  47.543  1.00  0.00     0.140 A 
HETATM    8  C7  UNL     1      34.371   7.583  48.581  1.00  0.00     0.170 A 
HETATM    9  C8  UNL     1      33.817   6.431  48.444  1.00  0.00     0.104 C 
HETATM   10  O2  UNL     1      33.044   5.990  49.573  1.00  0.00    -0.350 OA
HETATM   11  C9  UNL     1      31.579   5.899  49.513  1.00  0.00     0.184 C 
HETATM   12  C10 UNL     1      30.974   6.105  48.143  1.00  0.00     0.056 C 
ENDROOT
BRANCH  12  13
HETATM   13  C11 UNL     1      30.757   7.549  47.875  1.00  0.00     0.126 C 
BRANCH  13  14
HETATM   14  N3  UNL     1      30.251   8.341  48.951  1.00  0.00    -0.409 N 
HETATM   15  C12 UNL     1      28.833   8.471  48.955  1.00  0.00     0.147 C 
HETATM   16  C13 UNL     1      28.264   9.792  49.305  1.00  0.00     0.291 C 
HETATM   17  N4  UNL     1      29.043  10.942  48.965  1.00  0.00     0.087 N 
HETATM   18  C14 UNL     1      28.298  11.924  48.207  1.00  0.00     0.310 C 
HETATM   19  C15 UNL     1      30.323  10.637  48.382  1.00  0.00     0.291 C 
HETATM   20  C16 UNL     1      30.918   9.538  49.285  1.00  0.00     0.147 C 
ENDBRANCH  13  14
ENDBRANCH  12  13
BRANCH   1  21
HETATM   21  O1  UNL     1      34.700   4.867  47.443  1.00  0.00    -0.354 OA
HETATM   22  C1  UNL     1      35.033   3.587  46.955  1.00  0.00     0.210 C 
ENDBRANCH   1  21
TORSDOF 3
ENDMDL
MODEL 7
REMARK VINA RESULT:      -5.8      4.018      5.641
REMARK  3 active torsions:
REMARK  status: ('A' for Active; 'I' for Inactive)
REMARK    1  A    between atoms: O1_2  and  C2_3 
REMARK    2  A    between atoms: C10_14  and  C11_15 
REMARK    3  A    between atoms: C11_15  and  N3_16 
ROOT
HETATM    1  C2  UNL     1      24.235   4.329  50.942  1.00  0.00     0.098 C 
HETATM    2  C3  UNL     1      25.318   3.643  50.636  1.00  0.00     0.040 C 
HETATM    3  C4  UNL     1      24.436   2.410  50.447  1.00  0.00     0.142 C 
HETATM    4  N1  UNL     1      23.458   2.817  49.497  1.00  0.00    -0.275 NA
HETATM    5  C5  UNL     1      22.432   3.578  49.634  1.00  0.00     0.200 C 
HETATM    6  N2  UNL     1      21.636   4.343  50.344  1.00  0.00    -0.354 N 
HETATM    7  C6  UNL     1      20.779   5.056  50.800  1.00  0.00     0.140 A 
HETATM    8  C7  UNL     1      21.716   4.796  51.834  1.00  0.00     0.170 A 
HETATM    9  C8  UNL     1      22.960   4.538  51.638  1.00  0.00     0.104 C 
HETATM   10  O2  UNL     1      23.689   4.134  52.810  1.00  0.00    -0.350 OA
HETATM   11  C9  UNL     1      24.174   2.756  52.976  1.00  0.00     0.184 C 
HETATM   12  C10 UNL     1      24.029   1.870  51.760  1.00  0.00     0.056 C 
ENDROOT
BRANCH  12  13
HETATM   13  C11 UNL     1      22.683   1.244  51.722  1.00  0.00     0.126 C 
BRANCH  13  14
HETATM   14  N3  UNL     1      22.005   1.085  52.969  1.00  0.00    -0.409 N 
HETATM   15  C12 UNL     1      22.144  -0.211  53.542  1.00  0.00     0.147 C 
HETATM   16  C13 UNL     1      20.956  -0.809  54.190  1.00  0.00     0.291 C 
HETATM   17  N4  UNL     1      19.678  -0.442  53.662  1.00  0.00     0.087 N 
HETATM   18  C14 UNL     1      18.852  -1.585  53.339  1.00  0.00     0.310 C 
HETATM   19  C15 UNL     1      19.734   0.528  52.600  1.00  0.00     0.291 C 
HETATM   20  C16 UNL     1      20.704   1.614  53.105  1.00  0.00     0.147 C 
ENDBRANCH  13  14
ENDBRANCH  12  13
BRANCH   1  21
HETATM   21  O1  UNL     1      24.134   5.584  50.312  1.00  0.00    -0.354 OA
HETATM   22  C1  UNL     1      24.943   6.665  50.716  1.00  0.00     0.210 C 
ENDBRANCH   1  21
TORSDOF 3
ENDMDL
MODEL 8
REMARK VINA RESULT:      -5.7      3.544      7.107
REMARK  3 active torsions:
REMARK  status: ('A' for Active; 'I' for Inactive)
REMARK    1  A    between atoms: O1_2  and  C2_3 
REMARK    2  A    between atoms: C10_14  and  C11_15 
REMARK    3  A    between atoms: C11_15  and  N3_16 
ROOT
HETATM    1  C2  UNL     1      22.056   4.670  49.470  1.00  0.00     0.098 C 
HETATM    2  C3  UNL     1      22.696   4.634  48.317  1.00  0.00     0.040 C 
HETATM    3  C4  UNL     1      23.362   3.336  48.773  1.00  0.00     0.142 C 
HETATM    4  N1  UNL     1      22.275   2.480  49.108  1.00  0.00    -0.275 NA
HETATM    5  C5  UNL     1      21.496   2.485  50.129  1.00  0.00     0.200 C 
HETATM    6  N2  UNL     1      21.088   2.968  51.279  1.00  0.00    -0.354 N 
HETATM    7  C6  UNL     1      20.564   3.230  52.331  1.00  0.00     0.140 A 
HETATM    8  C7  UNL     1      21.569   4.204  52.096  1.00  0.00     0.170 A 
HETATM    9  C8  UNL     1      21.967   4.571  50.931  1.00  0.00     0.104 C 
HETATM   10  O2  UNL     1      23.113   5.439  50.924  1.00  0.00    -0.350 OA
HETATM   11  C9  UNL     1      24.420   4.982  50.432  1.00  0.00     0.184 C 
HETATM   12  C10 UNL     1      24.420   3.628  49.760  1.00  0.00     0.056 C 
ENDROOT
BRANCH  12  13
HETATM   13  C11 UNL     1      24.573   2.543  50.763  1.00  0.00     0.126 C 
BRANCH  13  14
HETATM   14  N3  UNL     1      25.416   2.809  51.885  1.00  0.00    -0.409 N 
HETATM   15  C12 UNL     1      26.784   2.478  51.672  1.00  0.00     0.147 C 
HETATM   16  C13 UNL     1      27.524   1.850  52.789  1.00  0.00     0.291 C 
HETATM   17  N4  UNL     1      26.766   1.032  53.686  1.00  0.00     0.087 N 
HETATM   18  C14 UNL     1      27.340  -0.284  53.869  1.00  0.00     0.310 C 
HETATM   19  C15 UNL     1      25.356   0.994  53.403  1.00  0.00     0.291 C 
HETATM   20  C16 UNL     1      24.958   2.465  53.174  1.00  0.00     0.147 C 
ENDBRANCH  13  14
ENDBRANCH  12  13
BRANCH   1  21
HETATM   21  O1  UNL     1      20.683   4.963  49.373  1.00  0.00    -0.354 OA
HETATM   22  C1  UNL     1      20.231   6.295  49.271  1.00  0.00     0.210 C 
ENDBRANCH   1  21
TORSDOF 3
ENDMDL
MODEL 9
REMARK VINA RESULT:      -5.6      3.573      7.325
REMARK  3 active torsions:
REMARK  status: ('A' for Active; 'I' for Inactive)
REMARK    1  A    between atoms: O1_2  and  C2_3 
REMARK    2  A    between atoms: C10_14  and  C11_15 
REMARK    3  A    between atoms: C11_15  and  N3_16 
ROOT
HETATM    1  C2  UNL     1      19.426   1.878  50.672  1.00  0.00     0.098 C 
HETATM    2  C3  UNL     1      19.301   0.706  51.264  1.00  0.00     0.040 C 
HETATM    3  C4  UNL     1      20.607   0.987  52.005  1.00  0.00     0.142 C 
HETATM    4  N1  UNL     1      20.385   2.233  52.654  1.00  0.00    -0.275 NA
HETATM    5  C5  UNL     1      20.355   3.426  52.178  1.00  0.00     0.200 C 
HETATM    6  N2  UNL     1      20.444   4.287  51.192  1.00  0.00    -0.354 N 
HETATM    7  C6  UNL     1      20.497   5.239  50.455  1.00  0.00     0.140 A 
HETATM    8  C7  UNL     1      20.660   4.072  49.663  1.00  0.00     0.170 A 
HETATM    9  C8  UNL     1      20.171   2.921  49.958  1.00  0.00     0.104 C 
HETATM   10  O2  UNL     1      20.603   1.842  49.111  1.00  0.00    -0.350 OA
HETATM   11  C9  UNL     1      21.497   0.786  49.607  1.00  0.00     0.184 C 
HETATM   12  C10 UNL     1      21.757   0.807  51.097  1.00  0.00     0.056 C 
ENDROOT
BRANCH  12  13
HETATM   13  C11 UNL     1      22.883   1.719  51.421  1.00  0.00     0.126 C 
BRANCH  13  14
HETATM   14  N3  UNL     1      23.545   1.516  52.670  1.00  0.00    -0.409 N 
HETATM   15  C12 UNL     1      24.298   2.640  53.114  1.00  0.00     0.147 C 
HETATM   16  C13 UNL     1      25.613   2.383  53.743  1.00  0.00     0.291 C 
HETATM   17  N4  UNL     1      26.330   1.229  53.295  1.00  0.00     0.087 N 
HETATM   18  C14 UNL     1      27.687   1.530  52.895  1.00  0.00     0.310 C 
HETATM   19  C15 UNL     1      25.622   0.434  52.327  1.00  0.00     0.291 C 
HETATM   20  C16 UNL     1      24.198   0.287  52.899  1.00  0.00     0.147 C 
ENDBRANCH  13  14
ENDBRANCH  12  13
BRANCH   1  21
HETATM   21  O1  UNL     1      18.251   2.653  50.644  1.00  0.00    -0.354 OA
HETATM   22  C1  UNL     1      17.151   2.271  49.849  1.00  0.00     0.210 C 
ENDBRANCH   1  21
TORSDOF 3
ENDMDL
