MODEL 1
REMARK VINA RESULT:      -8.3      0.000      0.000
REMARK  9 active torsions:
REMARK  status: ('A' for Active; 'I' for Inactive)
REMARK    1  A    between atoms: C2_2  and  N1_3 
REMARK    2  A    between atoms: C2_2  and  C14_20 
REMARK    3  A    between atoms: N1_3  and  C3_4 
REMARK    4  A    between atoms: C3_4  and  C4_5 
REMARK    5  A    between atoms: C5_6  and  N2_7 
REMARK    6  A    between atoms: C5_6  and  P1_10 
REMARK    7  A    between atoms: N2_7  and  C6_8 
REMARK    8  A    between atoms: C6_8  and  N3_9 
REMARK    9  A    between atoms: P1_10  and  C7_11 
ROOT
HETATM    1  C4  UNL     1      27.249   1.773  52.430  1.00  0.00     0.036 C 
HETATM    2  C5  UNL     1      27.348   0.701  53.233  1.00  0.00     0.073 C 
ENDROOT
BRANCH   2   3
HETATM    3  N2  UNL     1      28.290   0.668  54.276  1.00  0.00    -0.188 NA
BRANCH   3   4
HETATM    4  C6  UNL     1      29.091   1.638  54.452  1.00  0.00     0.093 C 
BRANCH   4   5
HETATM    5  N3  UNL     1      30.021   2.412  54.888  1.00  0.00    -0.241 NA
HETATM    6  H9  UNL     1      30.387   3.157  54.241  1.00  0.00     0.199 HD
ENDBRANCH   4   5
ENDBRANCH   3   4
ENDBRANCH   2   3
BRANCH   2   7
HETATM    7  P1  UNL     1      26.254  -0.713  52.968  1.00  0.00    -0.020 P 
HETATM    8  H10 UNL     1      26.254  -1.155  51.573  1.00  0.00     0.070 HD
BRANCH   7   9
HETATM    9  C7  UNL     1      24.523  -0.380  53.465  1.00  0.00     0.058 C 
HETATM   10  N4  UNL     1      23.910   0.383  52.628  1.00  0.00    -0.286 NA
HETATM   11  C8  UNL     1      22.619   0.995  52.430  1.00  0.00     0.190 C 
HETATM   12  C9  UNL     1      21.508  -0.022  52.318  1.00  0.00     0.212 C 
HETATM   13  F1  UNL     1      20.452   0.582  51.654  1.00  0.00    -0.243 F 
HETATM   14  C10 UNL     1      21.016  -0.481  53.647  1.00  0.00     0.011 C 
HETATM   15  C11 UNL     1      21.526  -0.953  54.783  1.00  0.00    -0.001 C 
HETATM   16  C12 UNL     1      22.894  -1.248  55.258  1.00  0.00     0.002 C 
HETATM   17  C13 UNL     1      24.084  -1.005  54.708  1.00  0.00     0.032 C 
ENDBRANCH   7   9
ENDBRANCH   2   7
BRANCH   1  18
HETATM   18  C3  UNL     1      26.404   2.177  51.252  1.00  0.00     0.300 C 
BRANCH  18  19
HETATM   19  N1  UNL     1      26.777   3.487  50.824  1.00  0.00     0.095 N 
HETATM   20  H5  UNL     1      26.389   4.190  51.473  1.00  0.00     0.317 HD
BRANCH  19  21
HETATM   21  C2  UNL     1      26.312   3.778  49.485  1.00  0.00     0.249 C 
HETATM   22  C1  UNL     1      24.807   3.715  49.380  1.00  0.00     0.048 C 
BRANCH  21  23
HETATM   23  C14 UNL     1      26.877   4.995  48.896  1.00  0.00    -0.026 A 
HETATM   24  C15 UNL     1      26.050   6.083  48.717  1.00  0.00     0.009 A 
HETATM   25  C16 UNL     1      26.533   7.250  48.167  1.00  0.00     0.001 A 
HETATM   26  C17 UNL     1      27.868   7.312  47.795  1.00  0.00     0.000 A 
HETATM   27  C18 UNL     1      28.708   6.223  47.971  1.00  0.00     0.001 A 
HETATM   28  C19 UNL     1      28.195   5.058  48.529  1.00  0.00     0.009 A 
ENDBRANCH  21  23
ENDBRANCH  19  21
ENDBRANCH  18  19
ENDBRANCH   1  18
TORSDOF 9
ENDMDL
MODEL 2
REMARK VINA RESULT:      -8.1      1.743      2.264
REMARK  9 active torsions:
REMARK  status: ('A' for Active; 'I' for Inactive)
REMARK    1  A    between atoms: C2_2  and  N1_3 
REMARK    2  A    between atoms: C2_2  and  C14_20 
REMARK    3  A    between atoms: N1_3  and  C3_4 
REMARK    4  A    between atoms: C3_4  and  C4_5 
REMARK    5  A    between atoms: C5_6  and  N2_7 
REMARK    6  A    between atoms: C5_6  and  P1_10 
REMARK    7  A    between atoms: N2_7  and  C6_8 
REMARK    8  A    between atoms: C6_8  and  N3_9 
REMARK    9  A    between atoms: P1_10  and  C7_11 
ROOT
HETATM    1  C4  UNL     1      26.893   0.879  51.967  1.00  0.00     0.036 C 
HETATM    2  C5  UNL     1      26.535  -0.252  52.595  1.00  0.00     0.073 C 
ENDROOT
BRANCH   2   3
HETATM    3  N2  UNL     1      26.783  -1.508  52.013  1.00  0.00    -0.188 NA
BRANCH   3   4
HETATM    4  C6  UNL     1      27.441  -2.392  52.644  1.00  0.00     0.093 C 
BRANCH   4   5
HETATM    5  N3  UNL     1      28.369  -3.167  53.082  1.00  0.00    -0.241 NA
HETATM    6  H9  UNL     1      28.990  -2.808  53.853  1.00  0.00     0.199 HD
ENDBRANCH   4   5
ENDBRANCH   3   4
ENDBRANCH   2   3
BRANCH   2   7
HETATM    7  P1  UNL     1      25.726  -0.157  54.209  1.00  0.00    -0.020 P 
HETATM    8  H10 UNL     1      26.102  -1.271  55.079  1.00  0.00     0.070 HD
BRANCH   7   9
HETATM    9  C7  UNL     1      23.899  -0.113  54.090  1.00  0.00     0.058 C 
HETATM   10  N4  UNL     1      23.483   0.769  53.249  1.00  0.00    -0.286 NA
HETATM   11  C8  UNL     1      22.249   1.290  52.712  1.00  0.00     0.190 C 
HETATM   12  C9  UNL     1      21.433   0.232  52.008  1.00  0.00     0.212 C 
HETATM   13  F1  UNL     1      20.576   0.878  51.132  1.00  0.00    -0.243 F 
HETATM   14  C10 UNL     1      20.609  -0.577  52.948  1.00  0.00     0.011 C 
HETATM   15  C11 UNL     1      20.779  -1.260  54.079  1.00  0.00    -0.001 C 
HETATM   16  C12 UNL     1      21.936  -1.533  54.957  1.00  0.00     0.002 C 
HETATM   17  C13 UNL     1      23.181  -1.056  54.939  1.00  0.00     0.032 C 
ENDBRANCH   7   9
ENDBRANCH   2   7
BRANCH   1  18
HETATM   18  C3  UNL     1      26.805   2.355  52.247  1.00  0.00     0.300 C 
BRANCH  18  19
HETATM   19  N1  UNL     1      25.525   2.842  51.841  1.00  0.00     0.095 N 
HETATM   20  H5  UNL     1      24.785   2.208  52.185  1.00  0.00     0.317 HD
BRANCH  19  21
HETATM   21  C2  UNL     1      25.414   2.955  50.403  1.00  0.00     0.249 C 
HETATM   22  C1  UNL     1      24.022   2.634  49.913  1.00  0.00     0.048 C 
BRANCH  21  23
HETATM   23  C14 UNL     1      25.942   4.204  49.848  1.00  0.00    -0.026 A 
HETATM   24  C15 UNL     1      27.114   4.157  49.124  1.00  0.00     0.009 A 
HETATM   25  C16 UNL     1      27.652   5.305  48.582  1.00  0.00     0.001 A 
HETATM   26  C17 UNL     1      26.992   6.510  48.778  1.00  0.00     0.000 A 
HETATM   27  C18 UNL     1      25.812   6.567  49.504  1.00  0.00     0.001 A 
HETATM   28  C19 UNL     1      25.292   5.395  50.040  1.00  0.00     0.009 A 
ENDBRANCH  21  23
ENDBRANCH  19  21
ENDBRANCH  18  19
ENDBRANCH   1  18
TORSDOF 9
ENDMDL
MODEL 3
REMARK VINA RESULT:      -8.1      2.467      6.725
REMARK  9 active torsions:
REMARK  status: ('A' for Active; 'I' for Inactive)
REMARK    1  A    between atoms: C2_2  and  N1_3 
REMARK    2  A    between atoms: C2_2  and  C14_20 
REMARK    3  A    between atoms: N1_3  and  C3_4 
REMARK    4  A    between atoms: C3_4  and  C4_5 
REMARK    5  A    between atoms: C5_6  and  N2_7 
REMARK    6  A    between atoms: C5_6  and  P1_10 
REMARK    7  A    between atoms: N2_7  and  C6_8 
REMARK    8  A    between atoms: C6_8  and  N3_9 
REMARK    9  A    between atoms: P1_10  and  C7_11 
ROOT
HETATM    1  C4  UNL     1      26.052  -0.838  53.830  1.00  0.00     0.036 C 
HETATM    2  C5  UNL     1      27.156  -0.179  53.442  1.00  0.00     0.073 C 
ENDROOT
BRANCH   2   3
HETATM    3  N2  UNL     1      28.303  -0.877  53.026  1.00  0.00    -0.188 NA
BRANCH   3   4
HETATM    4  C6  UNL     1      28.290  -2.144  52.940  1.00  0.00     0.093 C 
BRANCH   4   5
HETATM    5  N3  UNL     1      28.525  -3.398  53.100  1.00  0.00    -0.241 NA
HETATM    6  H9  UNL     1      27.803  -4.084  52.758  1.00  0.00     0.199 HD
ENDBRANCH   4   5
ENDBRANCH   3   4
ENDBRANCH   2   3
BRANCH   2   7
HETATM    7  P1  UNL     1      27.163   1.629  53.453  1.00  0.00    -0.020 P 
HETATM    8  H10 UNL     1      26.794   2.172  54.761  1.00  0.00     0.070 HD
BRANCH   7   9
HETATM    9  C7  UNL     1      26.047   2.354  52.196  1.00  0.00     0.058 C 
HETATM   10  N4  UNL     1      24.895   2.663  52.680  1.00  0.00    -0.286 NA
HETATM   11  C8  UNL     1      23.636   3.233  52.264  1.00  0.00     0.190 C 
HETATM   12  C9  UNL     1      23.786   4.636  51.726  1.00  0.00     0.212 C 
HETATM   13  F1  UNL     1      22.553   5.259  51.829  1.00  0.00    -0.243 F 
HETATM   14  C10 UNL     1      24.197   4.659  50.294  1.00  0.00     0.011 C 
HETATM   15  C11 UNL     1      25.135   4.111  49.524  1.00  0.00    -0.001 C 
HETATM   16  C12 UNL     1      26.254   3.175  49.765  1.00  0.00     0.002 C 
HETATM   17  C13 UNL     1      26.597   2.481  50.851  1.00  0.00     0.032 C 
ENDBRANCH   7   9
ENDBRANCH   2   7
BRANCH   1  18
HETATM   18  C3  UNL     1      24.680  -0.468  54.324  1.00  0.00     0.300 C 
BRANCH  18  19
HETATM   19  N1  UNL     1      23.798  -0.315  53.211  1.00  0.00     0.095 N 
HETATM   20  H5  UNL     1      23.660   0.689  53.012  1.00  0.00     0.317 HD
BRANCH  19  21
HETATM   21  C2  UNL     1      22.508  -0.927  53.447  1.00  0.00     0.249 C 
HETATM   22  C1  UNL     1      22.177  -1.006  54.919  1.00  0.00     0.048 C 
BRANCH  21  23
HETATM   23  C14 UNL     1      21.415  -0.373  52.644  1.00  0.00    -0.026 A 
HETATM   24  C15 UNL     1      21.719   0.202  51.429  1.00  0.00     0.009 A 
HETATM   25  C16 UNL     1      20.727   0.737  50.637  1.00  0.00     0.001 A 
HETATM   26  C17 UNL     1      19.414   0.689  51.084  1.00  0.00     0.000 A 
HETATM   27  C18 UNL     1      19.099   0.113  52.305  1.00  0.00     0.001 A 
HETATM   28  C19 UNL     1      20.119  -0.420  53.085  1.00  0.00     0.009 A 
ENDBRANCH  21  23
ENDBRANCH  19  21
ENDBRANCH  18  19
ENDBRANCH   1  18
TORSDOF 9
ENDMDL
MODEL 4
REMARK VINA RESULT:      -8.0      2.364      3.255
REMARK  9 active torsions:
REMARK  status: ('A' for Active; 'I' for Inactive)
REMARK    1  A    between atoms: C2_2  and  N1_3 
REMARK    2  A    between atoms: C2_2  and  C14_20 
REMARK    3  A    between atoms: N1_3  and  C3_4 
REMARK    4  A    between atoms: C3_4  and  C4_5 
REMARK    5  A    between atoms: C5_6  and  N2_7 
REMARK    6  A    between atoms: C5_6  and  P1_10 
REMARK    7  A    between atoms: N2_7  and  C6_8 
REMARK    8  A    between atoms: C6_8  and  N3_9 
REMARK    9  A    between atoms: P1_10  and  C7_11 
ROOT
HETATM    1  C4  UNL     1      26.711   0.374  51.756  1.00  0.00     0.036 C 
HETATM    2  C5  UNL     1      26.368  -0.626  52.584  1.00  0.00     0.073 C 
ENDROOT
BRANCH   2   3
HETATM    3  N2  UNL     1      26.652  -1.963  52.254  1.00  0.00    -0.188 NA
BRANCH   3   4
HETATM    4  C6  UNL     1      27.697  -2.529  52.702  1.00  0.00     0.093 C 
BRANCH   4   5
HETATM    5  N3  UNL     1      28.520  -3.330  53.281  1.00  0.00    -0.241 NA
HETATM    6  H9  UNL     1      28.816  -4.195  52.760  1.00  0.00     0.199 HD
ENDBRANCH   4   5
ENDBRANCH   3   4
ENDBRANCH   2   3
BRANCH   2   7
HETATM    7  P1  UNL     1      25.532  -0.245  54.141  1.00  0.00    -0.020 P 
HETATM    8  H10 UNL     1      25.779  -1.265  55.161  1.00  0.00     0.070 HD
BRANCH   7   9
HETATM    9  C7  UNL     1      23.721  -0.052  53.949  1.00  0.00     0.058 C 
HETATM   10  N4  UNL     1      23.411   0.925  53.170  1.00  0.00    -0.286 NA
HETATM   11  C8  UNL     1      22.246   1.581  52.628  1.00  0.00     0.190 C 
HETATM   12  C9  UNL     1      21.390   0.650  51.802  1.00  0.00     0.212 C 
HETATM   13  F1  UNL     1      20.626   1.429  50.949  1.00  0.00    -0.243 F 
HETATM   14  C10 UNL     1      20.464  -0.167  52.635  1.00  0.00     0.011 C 
HETATM   15  C11 UNL     1      20.530  -0.951  53.710  1.00  0.00    -0.001 C 
HETATM   16  C12 UNL     1      21.620  -1.383  54.610  1.00  0.00     0.002 C 
HETATM   17  C13 UNL     1      22.896  -1.003  54.685  1.00  0.00     0.032 C 
ENDBRANCH   7   9
ENDBRANCH   2   7
BRANCH   1  18
HETATM   18  C3  UNL     1      26.586   1.874  51.750  1.00  0.00     0.300 C 
BRANCH  18  19
HETATM   19  N1  UNL     1      25.327   2.245  51.187  1.00  0.00     0.095 N 
HETATM   20  H5  UNL     1      24.957   1.468  50.616  1.00  0.00     0.317 HD
BRANCH  19  21
HETATM   21  C2  UNL     1      25.426   3.428  50.360  1.00  0.00     0.249 C 
HETATM   22  C1  UNL     1      26.754   3.515  49.647  1.00  0.00     0.048 C 
BRANCH  21  23
HETATM   23  C14 UNL     1      24.283   3.645  49.469  1.00  0.00    -0.026 A 
HETATM   24  C15 UNL     1      23.435   2.586  49.219  1.00  0.00     0.009 A 
HETATM   25  C16 UNL     1      22.347   2.739  48.387  1.00  0.00     0.001 A 
HETATM   26  C17 UNL     1      22.118   3.978  47.805  1.00  0.00     0.000 A 
HETATM   27  C18 UNL     1      22.965   5.048  48.050  1.00  0.00     0.001 A 
HETATM   28  C19 UNL     1      24.055   4.867  48.893  1.00  0.00     0.009 A 
ENDBRANCH  21  23
ENDBRANCH  19  21
ENDBRANCH  18  19
ENDBRANCH   1  18
TORSDOF 9
ENDMDL
MODEL 5
REMARK VINA RESULT:      -8.0      2.421      6.044
REMARK  9 active torsions:
REMARK  status: ('A' for Active; 'I' for Inactive)
REMARK    1  A    between atoms: C2_2  and  N1_3 
REMARK    2  A    between atoms: C2_2  and  C14_20 
REMARK    3  A    between atoms: N1_3  and  C3_4 
REMARK    4  A    between atoms: C3_4  and  C4_5 
REMARK    5  A    between atoms: C5_6  and  N2_7 
REMARK    6  A    between atoms: C5_6  and  P1_10 
REMARK    7  A    between atoms: N2_7  and  C6_8 
REMARK    8  A    between atoms: C6_8  and  N3_9 
REMARK    9  A    between atoms: P1_10  and  C7_11 
ROOT
HETATM    1  C4  UNL     1      25.980  -0.242  54.761  1.00  0.00     0.036 C 
HETATM    2  C5  UNL     1      26.744   0.521  53.963  1.00  0.00     0.073 C 
ENDROOT
BRANCH   2   3
HETATM    3  N2  UNL     1      27.883   1.173  54.467  1.00  0.00    -0.188 NA
BRANCH   3   4
HETATM    4  C6  UNL     1      28.558   1.955  53.728  1.00  0.00     0.093 C 
BRANCH   4   5
HETATM    5  N3  UNL     1      28.969   2.960  53.039  1.00  0.00    -0.241 NA
HETATM    6  H9  UNL     1      29.272   2.788  52.045  1.00  0.00     0.199 HD
ENDBRANCH   4   5
ENDBRANCH   3   4
ENDBRANCH   2   3
BRANCH   2   7
HETATM    7  P1  UNL     1      26.302   0.708  52.221  1.00  0.00    -0.020 P 
HETATM    8  H10 UNL     1      27.460   0.556  51.339  1.00  0.00     0.070 HD
BRANCH   7   9
HETATM    9  C7  UNL     1      25.511   2.319  51.855  1.00  0.00     0.058 C 
HETATM   10  N4  UNL     1      25.827   2.769  50.690  1.00  0.00    -0.286 NA
HETATM   11  C8  UNL     1      25.573   3.903  49.836  1.00  0.00     0.190 C 
HETATM   12  C9  UNL     1      24.109   4.057  49.499  1.00  0.00     0.212 C 
HETATM   13  F1  UNL     1      24.022   4.804  48.336  1.00  0.00    -0.243 F 
HETATM   14  C10 UNL     1      23.347   4.768  50.563  1.00  0.00     0.011 C 
HETATM   15  C11 UNL     1      23.181   4.690  51.883  1.00  0.00    -0.001 C 
HETATM   16  C12 UNL     1      23.715   3.808  52.942  1.00  0.00     0.002 C 
HETATM   17  C13 UNL     1      24.654   2.862  52.903  1.00  0.00     0.032 C 
ENDBRANCH   7   9
ENDBRANCH   2   7
BRANCH   1  18
HETATM   18  C3  UNL     1      24.732  -1.070  54.607  1.00  0.00     0.300 C 
BRANCH  18  19
HETATM   19  N1  UNL     1      23.596  -0.209  54.520  1.00  0.00     0.095 N 
HETATM   20  H5  UNL     1      23.186  -0.077  55.459  1.00  0.00     0.317 HD
BRANCH  19  21
HETATM   21  C2  UNL     1      22.579  -0.734  53.634  1.00  0.00     0.249 C 
HETATM   22  C1  UNL     1      21.605  -1.633  54.357  1.00  0.00     0.048 C 
BRANCH  21  23
HETATM   23  C14 UNL     1      21.918   0.275  52.802  1.00  0.00    -0.026 A 
HETATM   24  C15 UNL     1      20.926   1.046  53.369  1.00  0.00     0.009 A 
HETATM   25  C16 UNL     1      20.273   2.007  52.627  1.00  0.00     0.001 A 
HETATM   26  C17 UNL     1      20.633   2.187  51.299  1.00  0.00     0.000 A 
HETATM   27  C18 UNL     1      21.630   1.416  50.721  1.00  0.00     0.001 A 
HETATM   28  C19 UNL     1      22.272   0.454  51.491  1.00  0.00     0.009 A 
ENDBRANCH  21  23
ENDBRANCH  19  21
ENDBRANCH  18  19
ENDBRANCH   1  18
TORSDOF 9
ENDMDL
MODEL 6
REMARK VINA RESULT:      -8.0      3.461      5.913
REMARK  9 active torsions:
REMARK  status: ('A' for Active; 'I' for Inactive)
REMARK    1  A    between atoms: C2_2  and  N1_3 
REMARK    2  A    between atoms: C2_2  and  C14_20 
REMARK    3  A    between atoms: N1_3  and  C3_4 
REMARK    4  A    between atoms: C3_4  and  C4_5 
REMARK    5  A    between atoms: C5_6  and  N2_7 
REMARK    6  A    between atoms: C5_6  and  P1_10 
REMARK    7  A    between atoms: N2_7  and  C6_8 
REMARK    8  A    between atoms: C6_8  and  N3_9 
REMARK    9  A    between atoms: P1_10  and  C7_11 
ROOT
HETATM    1  C4  UNL     1      24.955   2.830  51.874  1.00  0.00     0.036 C 
HETATM    2  C5  UNL     1      23.721   3.236  51.536  1.00  0.00     0.073 C 
ENDROOT
BRANCH   2   3
HETATM    3  N2  UNL     1      23.161   4.392  52.108  1.00  0.00    -0.188 NA
BRANCH   3   4
HETATM    4  C6  UNL     1      23.682   5.531  51.901  1.00  0.00     0.093 C 
BRANCH   4   5
HETATM    5  N3  UNL     1      24.290   6.657  52.032  1.00  0.00    -0.241 NA
HETATM    6  H9  UNL     1      25.329   6.681  51.863  1.00  0.00     0.199 HD
ENDBRANCH   4   5
ENDBRANCH   3   4
ENDBRANCH   2   3
BRANCH   2   7
HETATM    7  P1  UNL     1      22.771   2.283  50.330  1.00  0.00    -0.020 P 
HETATM    8  H10 UNL     1      21.954   3.142  49.471  1.00  0.00     0.070 HD
BRANCH   7   9
HETATM    9  C7  UNL     1      21.674   1.040  51.107  1.00  0.00     0.058 C 
HETATM   10  N4  UNL     1      22.281   0.336  51.998  1.00  0.00    -0.286 NA
HETATM   11  C8  UNL     1      22.024  -0.740  52.923  1.00  0.00     0.190 C 
HETATM   12  C9  UNL     1      20.951  -0.395  53.928  1.00  0.00     0.212 C 
HETATM   13  F1  UNL     1      21.120  -1.224  55.024  1.00  0.00    -0.243 F 
HETATM   14  C10 UNL     1      19.576  -0.608  53.395  1.00  0.00     0.011 C 
HETATM   15  C11 UNL     1      18.870  -0.278  52.315  1.00  0.00    -0.001 C 
HETATM   16  C12 UNL     1      19.158   0.495  51.088  1.00  0.00     0.002 C 
HETATM   17  C13 UNL     1      20.297   1.013  50.626  1.00  0.00     0.032 C 
ENDBRANCH   7   9
ENDBRANCH   2   7
BRANCH   1  18
HETATM   18  C3  UNL     1      25.869   1.694  51.501  1.00  0.00     0.300 C 
BRANCH  18  19
HETATM   19  N1  UNL     1      25.448   0.505  52.170  1.00  0.00     0.095 N 
HETATM   20  H5  UNL     1      24.419   0.501  52.262  1.00  0.00     0.317 HD
BRANCH  19  21
HETATM   21  C2  UNL     1      26.036   0.381  53.487  1.00  0.00     0.249 C 
HETATM   22  C1  UNL     1      25.159  -0.409  54.429  1.00  0.00     0.048 C 
BRANCH  21  23
HETATM   23  C14 UNL     1      27.431  -0.070  53.490  1.00  0.00    -0.026 A 
HETATM   24  C15 UNL     1      28.409   0.828  53.859  1.00  0.00     0.009 A 
HETATM   25  C16 UNL     1      29.736   0.453  53.878  1.00  0.00     0.001 A 
HETATM   26  C17 UNL     1      30.069  -0.846  53.519  1.00  0.00     0.000 A 
HETATM   27  C18 UNL     1      29.091  -1.755  53.147  1.00  0.00     0.001 A 
HETATM   28  C19 UNL     1      27.762  -1.351  53.136  1.00  0.00     0.009 A 
ENDBRANCH  21  23
ENDBRANCH  19  21
ENDBRANCH  18  19
ENDBRANCH   1  18
TORSDOF 9
ENDMDL
MODEL 7
REMARK VINA RESULT:      -7.8      2.760      5.325
REMARK  9 active torsions:
REMARK  status: ('A' for Active; 'I' for Inactive)
REMARK    1  A    between atoms: C2_2  and  N1_3 
REMARK    2  A    between atoms: C2_2  and  C14_20 
REMARK    3  A    between atoms: N1_3  and  C3_4 
REMARK    4  A    between atoms: C3_4  and  C4_5 
REMARK    5  A    between atoms: C5_6  and  N2_7 
REMARK    6  A    between atoms: C5_6  and  P1_10 
REMARK    7  A    between atoms: N2_7  and  C6_8 
REMARK    8  A    between atoms: C6_8  and  N3_9 
REMARK    9  A    between atoms: P1_10  and  C7_11 
ROOT
HETATM    1  C4  UNL     1      21.980   0.755  51.529  1.00  0.00     0.036 C 
HETATM    2  C5  UNL     1      22.854   0.421  52.492  1.00  0.00     0.073 C 
ENDROOT
BRANCH   2   3
HETATM    3  N2  UNL     1      22.868  -0.876  53.034  1.00  0.00    -0.188 NA
BRANCH   3   4
HETATM    4  C6  UNL     1      22.157  -1.157  54.049  1.00  0.00     0.093 C 
BRANCH   4   5
HETATM    5  N3  UNL     1      21.199  -1.253  54.901  1.00  0.00    -0.241 NA
HETATM    6  H9  UNL     1      21.355  -1.847  55.756  1.00  0.00     0.199 HD
ENDBRANCH   4   5
ENDBRANCH   3   4
ENDBRANCH   2   3
BRANCH   2   7
HETATM    7  P1  UNL     1      24.027   1.657  53.096  1.00  0.00    -0.020 P 
HETATM    8  H10 UNL     1      23.902   2.929  52.383  1.00  0.00     0.070 HD
BRANCH   7   9
HETATM    9  C7  UNL     1      25.769   1.103  52.980  1.00  0.00     0.058 C 
HETATM   10  N4  UNL     1      26.604   2.054  53.218  1.00  0.00    -0.286 NA
HETATM   11  C8  UNL     1      28.026   2.286  53.288  1.00  0.00     0.190 C 
HETATM   12  C9  UNL     1      28.701   1.430  54.333  1.00  0.00     0.212 C 
HETATM   13  F1  UNL     1      29.895   2.047  54.673  1.00  0.00    -0.243 F 
HETATM   14  C10 UNL     1      29.013   0.060  53.839  1.00  0.00     0.011 C 
HETATM   15  C11 UNL     1      28.381  -0.938  53.224  1.00  0.00    -0.001 C 
HETATM   16  C12 UNL     1      27.003  -1.142  52.729  1.00  0.00     0.002 C 
HETATM   17  C13 UNL     1      25.971  -0.301  52.641  1.00  0.00     0.032 C 
ENDBRANCH   7   9
ENDBRANCH   2   7
BRANCH   1  18
HETATM   18  C3  UNL     1      21.662   1.987  50.725  1.00  0.00     0.300 C 
BRANCH  18  19
HETATM   19  N1  UNL     1      22.628   2.140  49.685  1.00  0.00     0.095 N 
HETATM   20  H5  UNL     1      23.520   1.702  49.968  1.00  0.00     0.317 HD
BRANCH  19  21
HETATM   21  C2  UNL     1      22.871   3.530  49.364  1.00  0.00     0.249 C 
HETATM   22  C1  UNL     1      22.042   4.463  50.215  1.00  0.00     0.048 C 
BRANCH  21  23
HETATM   23  C14 UNL     1      24.287   3.906  49.316  1.00  0.00    -0.026 A 
HETATM   24  C15 UNL     1      24.614   5.185  48.920  1.00  0.00     0.009 A 
HETATM   25  C16 UNL     1      25.931   5.586  48.858  1.00  0.00     0.001 A 
HETATM   26  C17 UNL     1      26.924   4.679  49.202  1.00  0.00     0.000 A 
HETATM   27  C18 UNL     1      26.604   3.391  49.601  1.00  0.00     0.001 A 
HETATM   28  C19 UNL     1      25.268   3.012  49.656  1.00  0.00     0.009 A 
ENDBRANCH  21  23
ENDBRANCH  19  21
ENDBRANCH  18  19
ENDBRANCH   1  18
TORSDOF 9
ENDMDL
MODEL 8
REMARK VINA RESULT:      -7.8      3.087      6.606
REMARK  9 active torsions:
REMARK  status: ('A' for Active; 'I' for Inactive)
REMARK    1  A    between atoms: C2_2  and  N1_3 
REMARK    2  A    between atoms: C2_2  and  C14_20 
REMARK    3  A    between atoms: N1_3  and  C3_4 
REMARK    4  A    between atoms: C3_4  and  C4_5 
REMARK    5  A    between atoms: C5_6  and  N2_7 
REMARK    6  A    between atoms: C5_6  and  P1_10 
REMARK    7  A    between atoms: N2_7  and  C6_8 
REMARK    8  A    between atoms: C6_8  and  N3_9 
REMARK    9  A    between atoms: P1_10  and  C7_11 
ROOT
HETATM    1  C4  UNL     1      23.827   1.330  53.252  1.00  0.00     0.036 C 
HETATM    2  C5  UNL     1      22.663   0.809  52.833  1.00  0.00     0.073 C 
ENDROOT
BRANCH   2   3
HETATM    3  N2  UNL     1      22.426  -0.575  52.904  1.00  0.00    -0.188 NA
BRANCH   3   4
HETATM    4  C6  UNL     1      22.074  -1.114  53.999  1.00  0.00     0.093 C 
BRANCH   4   5
HETATM    5  N3  UNL     1      22.039  -1.798  55.087  1.00  0.00    -0.241 NA
HETATM    6  H9  UNL     1      21.846  -2.830  55.016  1.00  0.00     0.199 HD
ENDBRANCH   4   5
ENDBRANCH   3   4
ENDBRANCH   2   3
BRANCH   2   7
HETATM    7  P1  UNL     1      21.386   1.903  52.171  1.00  0.00    -0.020 P 
HETATM    8  H10 UNL     1      20.367   1.168  51.420  1.00  0.00     0.070 HD
BRANCH   7   9
HETATM    9  C7  UNL     1      22.062   3.215  51.087  1.00  0.00     0.058 C 
HETATM   10  N4  UNL     1      21.796   4.397  51.521  1.00  0.00    -0.286 NA
HETATM   11  C8  UNL     1      22.016   5.780  51.172  1.00  0.00     0.190 C 
HETATM   12  C9  UNL     1      23.482   6.134  51.106  1.00  0.00     0.212 C 
HETATM   13  F1  UNL     1      23.590   7.505  51.267  1.00  0.00    -0.243 F 
HETATM   14  C10 UNL     1      24.101   5.772  49.801  1.00  0.00     0.011 C 
HETATM   15  C11 UNL     1      24.175   4.709  49.000  1.00  0.00    -0.001 C 
HETATM   16  C12 UNL     1      23.641   3.332  49.058  1.00  0.00     0.002 C 
HETATM   17  C13 UNL     1      22.791   2.757  49.909  1.00  0.00     0.032 C 
ENDBRANCH   7   9
ENDBRANCH   2   7
BRANCH   1  18
HETATM   18  C3  UNL     1      24.438   2.703  53.337  1.00  0.00     0.300 C 
BRANCH  18  19
HETATM   19  N1  UNL     1      25.862   2.591  53.350  1.00  0.00     0.095 N 
HETATM   20  H5  UNL     1      26.286   3.520  53.201  1.00  0.00     0.317 HD
BRANCH  19  21
HETATM   21  C2  UNL     1      26.349   1.685  52.332  1.00  0.00     0.249 C 
HETATM   22  C1  UNL     1      26.666   2.400  51.040  1.00  0.00     0.048 C 
BRANCH  21  23
HETATM   23  C14 UNL     1      27.426   0.795  52.773  1.00  0.00    -0.026 A 
HETATM   24  C15 UNL     1      27.240  -0.566  52.662  1.00  0.00     0.009 A 
HETATM   25  C16 UNL     1      28.223  -1.445  53.064  1.00  0.00     0.001 A 
HETATM   26  C17 UNL     1      29.405  -0.935  53.583  1.00  0.00     0.000 A 
HETATM   27  C18 UNL     1      29.601   0.433  53.698  1.00  0.00     0.001 A 
HETATM   28  C19 UNL     1      28.593   1.297  53.285  1.00  0.00     0.009 A 
ENDBRANCH  21  23
ENDBRANCH  19  21
ENDBRANCH  18  19
ENDBRANCH   1  18
TORSDOF 9
ENDMDL
MODEL 9
REMARK VINA RESULT:      -7.7      2.719      6.995
REMARK  9 active torsions:
REMARK  status: ('A' for Active; 'I' for Inactive)
REMARK    1  A    between atoms: C2_2  and  N1_3 
REMARK    2  A    between atoms: C2_2  and  C14_20 
REMARK    3  A    between atoms: N1_3  and  C3_4 
REMARK    4  A    between atoms: C3_4  and  C4_5 
REMARK    5  A    between atoms: C5_6  and  N2_7 
REMARK    6  A    between atoms: C5_6  and  P1_10 
REMARK    7  A    between atoms: N2_7  and  C6_8 
REMARK    8  A    between atoms: C6_8  and  N3_9 
REMARK    9  A    between atoms: P1_10  and  C7_11 
ROOT
HETATM    1  C4  UNL     1      24.027   2.914  49.760  1.00  0.00     0.036 C 
HETATM    2  C5  UNL     1      25.148   2.861  50.498  1.00  0.00     0.073 C 
ENDROOT
BRANCH   2   3
HETATM    3  N2  UNL     1      26.414   2.912  49.889  1.00  0.00    -0.188 NA
BRANCH   3   4
HETATM    4  C6  UNL     1      26.909   4.023  49.524  1.00  0.00     0.093 C 
BRANCH   4   5
HETATM    5  N3  UNL     1      27.708   4.994  49.257  1.00  0.00    -0.241 NA
HETATM    6  H9  UNL     1      27.526   5.925  49.713  1.00  0.00     0.199 HD
ENDBRANCH   4   5
ENDBRANCH   3   4
ENDBRANCH   2   3
BRANCH   2   7
HETATM    7  P1  UNL     1      25.023   2.722  52.296  1.00  0.00    -0.020 P 
HETATM    8  H10 UNL     1      25.168   4.019  52.959  1.00  0.00     0.070 HD
BRANCH   7   9
HETATM    9  C7  UNL     1      26.256   1.571  53.010  1.00  0.00     0.058 C 
HETATM   10  N4  UNL     1      25.834   0.356  53.040  1.00  0.00    -0.286 NA
HETATM   11  C8  UNL     1      26.271  -0.957  53.448  1.00  0.00     0.190 C 
HETATM   12  C9  UNL     1      27.514  -1.407  52.718  1.00  0.00     0.212 C 
HETATM   13  F1  UNL     1      27.563  -2.789  52.784  1.00  0.00    -0.243 F 
HETATM   14  C10 UNL     1      28.763  -0.870  53.329  1.00  0.00     0.011 C 
HETATM   15  C11 UNL     1      29.247   0.306  53.722  1.00  0.00    -0.001 C 
HETATM   16  C12 UNL     1      28.725   1.689  53.728  1.00  0.00     0.002 C 
HETATM   17  C13 UNL     1      27.516   2.171  53.438  1.00  0.00     0.032 C 
ENDBRANCH   7   9
ENDBRANCH   2   7
BRANCH   1  18
HETATM   18  C3  UNL     1      22.546   2.888  50.025  1.00  0.00     0.300 C 
BRANCH  18  19
HETATM   19  N1  UNL     1      22.117   1.538  50.205  1.00  0.00     0.095 N 
HETATM   20  H5  UNL     1      21.862   1.128  49.292  1.00  0.00     0.317 HD
BRANCH  19  21
HETATM   21  C2  UNL     1      20.982   1.439  51.096  1.00  0.00     0.249 C 
HETATM   22  C1  UNL     1      19.739   0.961  50.383  1.00  0.00     0.048 C 
BRANCH  21  23
HETATM   23  C14 UNL     1      21.245   0.708  52.339  1.00  0.00    -0.026 A 
HETATM   24  C15 UNL     1      22.245  -0.241  52.344  1.00  0.00     0.009 A 
HETATM   25  C16 UNL     1      22.530  -0.955  53.488  1.00  0.00     0.001 A 
HETATM   26  C17 UNL     1      21.793  -0.701  54.636  1.00  0.00     0.000 A 
HETATM   27  C18 UNL     1      20.786   0.251  54.641  1.00  0.00     0.001 A 
HETATM   28  C19 UNL     1      20.519   0.958  53.474  1.00  0.00     0.009 A 
ENDBRANCH  21  23
ENDBRANCH  19  21
ENDBRANCH  18  19
ENDBRANCH   1  18
TORSDOF 9
ENDMDL
