MODEL 1
REMARK VINA RESULT:      -6.8      0.000      0.000
REMARK  5 active torsions:
REMARK  status: ('A' for Active; 'I' for Inactive)
REMARK    1  A    between atoms: O1_2  and  C2_3 
REMARK    2  A    between atoms: C5_8  and  N2_9 
REMARK    3  A    between atoms: C10_14  and  C11_15 
REMARK    4  A    between atoms: C11_15  and  C12_16 
REMARK    5  A    between atoms: C12_16  and  N3_17 
ROOT
HETATM    1  C2  UNL     1      27.051  -0.578  53.201  1.00  0.00     0.080 C 
HETATM    2  C3  UNL     1      27.685   0.319  52.397  1.00  0.00     0.065 C 
HETATM    3  C4  UNL     1      26.803   1.499  52.655  1.00  0.00     0.069 C 
HETATM    4  N1  UNL     1      25.972   2.036  51.737  1.00  0.00    -0.212 NA
HETATM    5  S1  UNL     1      24.225   1.583  51.606  1.00  0.00     0.029 SA
HETATM    6  C5  UNL     1      23.826   0.402  52.933  1.00  0.00     0.094 C 
HETATM    7  C13 UNL     1      24.667  -0.207  53.803  1.00  0.00     0.050 C 
HETATM    8  C14 UNL     1      26.075  -0.183  54.277  1.00  0.00     0.204 C 
HETATM    9  O2  UNL     1      26.436   0.977  54.939  1.00  0.00    -0.369 OA
HETATM   10  C15 UNL     1      26.925   1.971  54.097  1.00  0.00     0.229 C 
ENDROOT
BRANCH   6  11
HETATM   11  N2  UNL     1      22.450   0.128  53.004  1.00  0.00    -0.342 N 
HETATM   12  C6  UNL     1      22.225  -0.844  54.048  1.00  0.00     0.092 A 
HETATM   13  C7  UNL     1      21.002  -1.294  54.377  1.00  0.00     0.017 A 
HETATM   14  C8  UNL     1      19.821  -0.809  53.672  1.00  0.00    -0.001 A 
HETATM   15  C9  UNL     1      20.094   0.074  52.726  1.00  0.00    -0.001 A 
HETATM   16  C10 UNL     1      21.371   0.682  52.220  1.00  0.00     0.114 A 
BRANCH  16  17
HETATM   17  C11 UNL     1      21.459   0.302  50.777  1.00  0.00     0.059 C 
BRANCH  17  18
HETATM   18  C12 UNL     1      20.711   1.165  49.825  1.00  0.00     0.269 C 
BRANCH  18  19
HETATM   19  N3  UNL     1      21.480   1.156  48.565  1.00  0.00     0.078 N 
HETATM   20  H14 UNL     1      22.467   1.384  48.830  1.00  0.00     0.312 HD
HETATM   21  H15 UNL     1      21.483   0.152  48.269  1.00  0.00     0.312 HD
ENDBRANCH  18  19
ENDBRANCH  17  18
ENDBRANCH  16  17
ENDBRANCH   6  11
BRANCH   1  22
HETATM   22  O1  UNL     1      27.289  -1.975  53.058  1.00  0.00    -0.357 OA
HETATM   23  C1  UNL     1      28.620  -2.459  53.086  1.00  0.00     0.209 C 
ENDBRANCH   1  22
TORSDOF 5
ENDMDL
MODEL 2
REMARK VINA RESULT:      -6.8      1.372      2.755
REMARK  5 active torsions:
REMARK  status: ('A' for Active; 'I' for Inactive)
REMARK    1  A    between atoms: O1_2  and  C2_3 
REMARK    2  A    between atoms: C5_8  and  N2_9 
REMARK    3  A    between atoms: C10_14  and  C11_15 
REMARK    4  A    between atoms: C11_15  and  C12_16 
REMARK    5  A    between atoms: C12_16  and  N3_17 
ROOT
HETATM    1  C2  UNL     1      27.568  -0.573  53.379  1.00  0.00     0.080 C 
HETATM    2  C3  UNL     1      28.568   0.260  52.980  1.00  0.00     0.065 C 
HETATM    3  C4  UNL     1      27.832   1.556  53.105  1.00  0.00     0.069 C 
HETATM    4  N1  UNL     1      27.469   2.322  52.055  1.00  0.00    -0.212 NA
HETATM    5  S1  UNL     1      25.837   2.220  51.280  1.00  0.00     0.029 SA
HETATM    6  C5  UNL     1      24.826   1.017  52.200  1.00  0.00     0.094 C 
HETATM    7  C13 UNL     1      25.205   0.184  53.198  1.00  0.00     0.050 C 
HETATM    8  C14 UNL     1      26.340  -0.102  54.113  1.00  0.00     0.204 C 
HETATM    9  O2  UNL     1      26.605   0.903  55.027  1.00  0.00    -0.369 OA
HETATM   10  C15 UNL     1      27.500   1.861  54.559  1.00  0.00     0.229 C 
ENDROOT
BRANCH   6  11
HETATM   11  N2  UNL     1      23.491   1.002  51.765  1.00  0.00    -0.342 N 
HETATM   12  C6  UNL     1      23.341   1.960  50.695  1.00  0.00     0.092 A 
HETATM   13  C7  UNL     1      22.179   2.163  50.052  1.00  0.00     0.017 A 
HETATM   14  C8  UNL     1      20.988   1.405  50.420  1.00  0.00    -0.001 A 
HETATM   15  C9  UNL     1      21.189   0.549  51.408  1.00  0.00    -0.001 A 
HETATM   16  C10 UNL     1      22.390   0.194  52.236  1.00  0.00     0.114 A 
BRANCH  16  17
HETATM   17  C11 UNL     1      22.017   0.507  53.649  1.00  0.00     0.059 C 
BRANCH  17  18
HETATM   18  C12 UNL     1      20.621   0.181  54.046  1.00  0.00     0.269 C 
BRANCH  18  19
HETATM   19  N3  UNL     1      20.664  -1.164  54.652  1.00  0.00     0.078 N 
HETATM   20  H14 UNL     1      21.006  -1.807  53.899  1.00  0.00     0.312 HD
HETATM   21  H15 UNL     1      21.435  -1.107  55.357  1.00  0.00     0.312 HD
ENDBRANCH  18  19
ENDBRANCH  17  18
ENDBRANCH  16  17
ENDBRANCH   6  11
BRANCH   1  22
HETATM   22  O1  UNL     1      27.638  -1.970  53.113  1.00  0.00    -0.357 OA
HETATM   23  C1  UNL     1      28.897  -2.618  53.132  1.00  0.00     0.209 C 
ENDBRANCH   1  22
TORSDOF 5
ENDMDL
MODEL 3
REMARK VINA RESULT:      -6.8      3.939      6.464
REMARK  5 active torsions:
REMARK  status: ('A' for Active; 'I' for Inactive)
REMARK    1  A    between atoms: O1_2  and  C2_3 
REMARK    2  A    between atoms: C5_8  and  N2_9 
REMARK    3  A    between atoms: C10_14  and  C11_15 
REMARK    4  A    between atoms: C11_15  and  C12_16 
REMARK    5  A    between atoms: C12_16  and  N3_17 
ROOT
HETATM    1  C2  UNL     1      23.402   4.652  48.986  1.00  0.00     0.080 C 
HETATM    2  C3  UNL     1      22.665   5.570  49.670  1.00  0.00     0.065 C 
HETATM    3  C4  UNL     1      23.554   5.715  50.864  1.00  0.00     0.069 C 
HETATM    4  N1  UNL     1      23.230   5.288  52.102  1.00  0.00    -0.212 NA
HETATM    5  S1  UNL     1      23.723   3.671  52.746  1.00  0.00     0.029 SA
HETATM    6  C5  UNL     1      24.749   2.832  51.497  1.00  0.00     0.094 C 
HETATM    7  C13 UNL     1      25.009   3.212  50.224  1.00  0.00     0.050 C 
HETATM    8  C14 UNL     1      24.847   4.357  49.290  1.00  0.00     0.204 C 
HETATM    9  O2  UNL     1      25.570   5.484  49.637  1.00  0.00    -0.369 OA
HETATM   10  C15 UNL     1      24.884   6.351  50.483  1.00  0.00     0.229 C 
ENDROOT
BRANCH   6  11
HETATM   11  N2  UNL     1      25.312   1.641  51.985  1.00  0.00    -0.342 N 
HETATM   12  C6  UNL     1      24.271   0.859  52.610  1.00  0.00     0.092 A 
HETATM   13  C7  UNL     1      24.491  -0.350  53.154  1.00  0.00     0.017 A 
HETATM   14  C8  UNL     1      25.826  -0.936  53.137  1.00  0.00    -0.001 A 
HETATM   15  C9  UNL     1      26.734  -0.170  52.557  1.00  0.00    -0.001 A 
HETATM   16  C10 UNL     1      26.680   1.184  51.910  1.00  0.00     0.114 A 
BRANCH  16  17
HETATM   17  C11 UNL     1      27.614   2.048  52.696  1.00  0.00     0.059 C 
BRANCH  17  18
HETATM   18  C12 UNL     1      28.626   1.337  53.521  1.00  0.00     0.269 C 
BRANCH  18  19
HETATM   19  N3  UNL     1      29.395   2.381  54.226  1.00  0.00     0.078 N 
HETATM   20  H14 UNL     1      29.777   1.924  55.088  1.00  0.00     0.312 HD
HETATM   21  H15 UNL     1      30.218   2.562  53.605  1.00  0.00     0.312 HD
ENDBRANCH  18  19
ENDBRANCH  17  18
ENDBRANCH  16  17
ENDBRANCH   6  11
BRANCH   1  22
HETATM   22  O1  UNL     1      22.825   3.907  47.919  1.00  0.00    -0.357 OA
HETATM   23  C1  UNL     1      22.020   2.779  48.215  1.00  0.00     0.209 C 
ENDBRANCH   1  22
TORSDOF 5
ENDMDL
MODEL 4
REMARK VINA RESULT:      -6.7      3.247      5.193
REMARK  5 active torsions:
REMARK  status: ('A' for Active; 'I' for Inactive)
REMARK    1  A    between atoms: O1_2  and  C2_3 
REMARK    2  A    between atoms: C5_8  and  N2_9 
REMARK    3  A    between atoms: C10_14  and  C11_15 
REMARK    4  A    between atoms: C11_15  and  C12_16 
REMARK    5  A    between atoms: C12_16  and  N3_17 
ROOT
HETATM    1  C2  UNL     1      24.276   4.346  50.225  1.00  0.00     0.080 C 
HETATM    2  C3  UNL     1      23.772   4.327  48.960  1.00  0.00     0.065 C 
HETATM    3  C4  UNL     1      22.374   3.912  49.291  1.00  0.00     0.069 C 
HETATM    4  N1  UNL     1      21.847   2.712  48.971  1.00  0.00    -0.212 NA
HETATM    5  S1  UNL     1      21.838   1.306  50.110  1.00  0.00     0.029 SA
HETATM    6  C5  UNL     1      22.558   1.834  51.697  1.00  0.00     0.094 C 
HETATM    7  C13 UNL     1      23.166   3.005  52.001  1.00  0.00     0.050 C 
HETATM    8  C14 UNL     1      23.415   4.366  51.460  1.00  0.00     0.204 C 
HETATM    9  O2  UNL     1      22.278   5.142  51.317  1.00  0.00    -0.369 OA
HETATM   10  C15 UNL     1      21.653   4.995  50.082  1.00  0.00     0.229 C 
ENDROOT
BRANCH   6  11
HETATM   11  N2  UNL     1      22.436   0.848  52.690  1.00  0.00    -0.342 N 
HETATM   12  C6  UNL     1      21.178   1.032  53.374  1.00  0.00     0.092 A 
HETATM   13  C7  UNL     1      20.759   0.228  54.365  1.00  0.00     0.017 A 
HETATM   14  C8  UNL     1      21.582  -0.893  54.806  1.00  0.00    -0.001 A 
HETATM   15  C9  UNL     1      22.722  -1.004  54.145  1.00  0.00    -0.001 A 
HETATM   16  C10 UNL     1      23.352  -0.215  53.034  1.00  0.00     0.114 A 
BRANCH  16  17
HETATM   17  C11 UNL     1      24.644   0.300  53.582  1.00  0.00     0.059 C 
BRANCH  17  18
HETATM   18  C12 UNL     1      25.674  -0.723  53.902  1.00  0.00     0.269 C 
BRANCH  18  19
HETATM   19  N3  UNL     1      26.158  -0.416  55.262  1.00  0.00     0.078 N 
HETATM   20  H14 UNL     1      26.486  -1.327  55.662  1.00  0.00     0.312 HD
HETATM   21  H15 UNL     1      27.019   0.159  55.108  1.00  0.00     0.312 HD
ENDBRANCH  18  19
ENDBRANCH  17  18
ENDBRANCH  16  17
ENDBRANCH   6  11
BRANCH   1  22
HETATM   22  O1  UNL     1      25.683   4.350  50.446  1.00  0.00    -0.357 OA
HETATM   23  C1  UNL     1      26.441   3.200  50.114  1.00  0.00     0.209 C 
ENDBRANCH   1  22
TORSDOF 5
ENDMDL
MODEL 5
REMARK VINA RESULT:      -6.6      3.386      6.378
REMARK  5 active torsions:
REMARK  status: ('A' for Active; 'I' for Inactive)
REMARK    1  A    between atoms: O1_2  and  C2_3 
REMARK    2  A    between atoms: C5_8  and  N2_9 
REMARK    3  A    between atoms: C10_14  and  C11_15 
REMARK    4  A    between atoms: C11_15  and  C12_16 
REMARK    5  A    between atoms: C12_16  and  N3_17 
ROOT
HETATM    1  C2  UNL     1      20.952   4.921  51.121  1.00  0.00     0.080 C 
HETATM    2  C3  UNL     1      20.395   4.738  49.893  1.00  0.00     0.065 C 
HETATM    3  C4  UNL     1      20.046   3.290  50.028  1.00  0.00     0.069 C 
HETATM    4  N1  UNL     1      20.649   2.300  49.339  1.00  0.00    -0.212 NA
HETATM    5  S1  UNL     1      22.045   1.353  49.994  1.00  0.00     0.029 SA
HETATM    6  C5  UNL     1      22.385   1.913  51.693  1.00  0.00     0.094 C 
HETATM    7  C13 UNL     1      21.845   2.959  52.361  1.00  0.00     0.050 C 
HETATM    8  C14 UNL     1      20.757   3.968  52.270  1.00  0.00     0.204 C 
HETATM    9  O2  UNL     1      19.480   3.438  52.327  1.00  0.00    -0.369 OA
HETATM   10  C15 UNL     1      18.967   3.083  51.083  1.00  0.00     0.229 C 
ENDROOT
BRANCH   6  11
HETATM   11  N2  UNL     1      23.346   1.114  52.333  1.00  0.00    -0.342 N 
HETATM   12  C6  UNL     1      24.626   1.330  51.701  1.00  0.00     0.092 A 
HETATM   13  C7  UNL     1      25.754   0.722  52.105  1.00  0.00     0.017 A 
HETATM   14  C8  UNL     1      25.731  -0.208  53.227  1.00  0.00    -0.001 A 
HETATM   15  C9  UNL     1      24.531  -0.368  53.759  1.00  0.00    -0.001 A 
HETATM   16  C10 UNL     1      23.180   0.209  53.447  1.00  0.00     0.114 A 
BRANCH  16  17
HETATM   17  C11 UNL     1      22.308  -0.957  53.111  1.00  0.00     0.059 C 
BRANCH  17  18
HETATM   18  C12 UNL     1      21.437  -1.463  54.206  1.00  0.00     0.269 C 
BRANCH  18  19
HETATM   19  N3  UNL     1      20.838  -0.274  54.843  1.00  0.00     0.078 N 
HETATM   20  H14 UNL     1      21.206   0.551  54.313  1.00  0.00     0.312 HD
HETATM   21  H15 UNL     1      19.820  -0.339  54.608  1.00  0.00     0.312 HD
ENDBRANCH  18  19
ENDBRANCH  17  18
ENDBRANCH  16  17
ENDBRANCH   6  11
BRANCH   1  22
HETATM   22  O1  UNL     1      21.767   6.059  51.386  1.00  0.00    -0.357 OA
HETATM   23  C1  UNL     1      23.050   6.147  50.793  1.00  0.00     0.209 C 
ENDBRANCH   1  22
TORSDOF 5
ENDMDL
MODEL 6
REMARK VINA RESULT:      -6.6      3.715      6.350
REMARK  5 active torsions:
REMARK  status: ('A' for Active; 'I' for Inactive)
REMARK    1  A    between atoms: O1_2  and  C2_3 
REMARK    2  A    between atoms: C5_8  and  N2_9 
REMARK    3  A    between atoms: C10_14  and  C11_15 
REMARK    4  A    between atoms: C11_15  and  C12_16 
REMARK    5  A    between atoms: C12_16  and  N3_17 
ROOT
HETATM    1  C2  UNL     1      21.304   0.173  52.738  1.00  0.00     0.080 C 
HETATM    2  C3  UNL     1      20.354   0.835  53.454  1.00  0.00     0.065 C 
HETATM    3  C4  UNL     1      20.098   1.951  52.492  1.00  0.00     0.069 C 
HETATM    4  N1  UNL     1      20.437   3.238  52.721  1.00  0.00    -0.212 NA
HETATM    5  S1  UNL     1      21.990   3.964  52.141  1.00  0.00     0.029 SA
HETATM    6  C5  UNL     1      22.896   2.714  51.176  1.00  0.00     0.094 C 
HETATM    7  C13 UNL     1      22.608   1.401  51.013  1.00  0.00     0.050 C 
HETATM    8  C14 UNL     1      21.542   0.399  51.269  1.00  0.00     0.204 C 
HETATM    9  O2  UNL     1      20.375   0.611  50.556  1.00  0.00    -0.369 OA
HETATM   10  C15 UNL     1      19.463   1.435  51.209  1.00  0.00     0.229 C 
ENDROOT
BRANCH   6  11
HETATM   11  N2  UNL     1      24.034   3.249  50.550  1.00  0.00    -0.342 N 
HETATM   12  C6  UNL     1      25.204   2.570  51.055  1.00  0.00     0.092 A 
HETATM   13  C7  UNL     1      26.449   2.843  50.629  1.00  0.00     0.017 A 
HETATM   14  C8  UNL     1      26.676   3.866  49.615  1.00  0.00    -0.001 A 
HETATM   15  C9  UNL     1      25.568   4.454  49.198  1.00  0.00    -0.001 A 
HETATM   16  C10 UNL     1      24.117   4.291  49.553  1.00  0.00     0.114 A 
BRANCH  16  17
HETATM   17  C11 UNL     1      23.675   5.619  50.076  1.00  0.00     0.059 C 
BRANCH  17  18
HETATM   18  C12 UNL     1      24.750   6.524  50.564  1.00  0.00     0.269 C 
BRANCH  18  19
HETATM   19  N3  UNL     1      24.419   6.843  51.966  1.00  0.00     0.078 N 
HETATM   20  H14 UNL     1      25.331   7.067  52.431  1.00  0.00     0.312 HD
HETATM   21  H15 UNL     1      23.893   7.746  51.910  1.00  0.00     0.312 HD
ENDBRANCH  18  19
ENDBRANCH  17  18
ENDBRANCH  16  17
ENDBRANCH   6  11
BRANCH   1  22
HETATM   22  O1  UNL     1      22.142  -0.794  53.364  1.00  0.00    -0.357 OA
HETATM   23  C1  UNL     1      21.604  -1.630  54.372  1.00  0.00     0.209 C 
ENDBRANCH   1  22
TORSDOF 5
ENDMDL
MODEL 7
REMARK VINA RESULT:      -6.5      3.352      6.387
REMARK  5 active torsions:
REMARK  status: ('A' for Active; 'I' for Inactive)
REMARK    1  A    between atoms: O1_2  and  C2_3 
REMARK    2  A    between atoms: C5_8  and  N2_9 
REMARK    3  A    between atoms: C10_14  and  C11_15 
REMARK    4  A    between atoms: C11_15  and  C12_16 
REMARK    5  A    between atoms: C12_16  and  N3_17 
ROOT
HETATM    1  C2  UNL     1      20.758   2.755  50.769  1.00  0.00     0.080 C 
HETATM    2  C3  UNL     1      20.546   3.980  51.323  1.00  0.00     0.065 C 
HETATM    3  C4  UNL     1      21.949   4.494  51.252  1.00  0.00     0.069 C 
HETATM    4  N1  UNL     1      22.731   4.707  52.331  1.00  0.00    -0.212 NA
HETATM    5  S1  UNL     1      23.906   3.480  52.952  1.00  0.00     0.029 SA
HETATM    6  C5  UNL     1      23.881   2.034  51.847  1.00  0.00     0.094 C 
HETATM    7  C13 UNL     1      23.043   1.774  50.815  1.00  0.00     0.050 C 
HETATM    8  C14 UNL     1      21.990   2.405  49.978  1.00  0.00     0.204 C 
HETATM    9  O2  UNL     1      22.439   3.445  49.183  1.00  0.00    -0.369 OA
HETATM   10  C15 UNL     1      22.390   4.687  49.808  1.00  0.00     0.229 C 
ENDROOT
BRANCH   6  11
HETATM   11  N2  UNL     1      24.886   1.105  52.164  1.00  0.00    -0.342 N 
HETATM   12  C6  UNL     1      24.409   0.251  53.226  1.00  0.00     0.092 A 
HETATM   13  C7  UNL     1      25.136  -0.758  53.736  1.00  0.00     0.017 A 
HETATM   14  C8  UNL     1      26.474  -1.036  53.227  1.00  0.00    -0.001 A 
HETATM   15  C9  UNL     1      26.854  -0.217  52.261  1.00  0.00    -0.001 A 
HETATM   16  C10 UNL     1      26.196   0.947  51.577  1.00  0.00     0.114 A 
BRANCH  16  17
HETATM   17  C11 UNL     1      27.082   2.123  51.832  1.00  0.00     0.059 C 
BRANCH  17  18
HETATM   18  C12 UNL     1      28.012   2.006  52.988  1.00  0.00     0.269 C 
BRANCH  18  19
HETATM   19  N3  UNL     1      27.365   2.706  54.114  1.00  0.00     0.078 N 
HETATM   20  H14 UNL     1      26.510   2.147  54.346  1.00  0.00     0.312 HD
HETATM   21  H15 UNL     1      28.024   2.573  54.916  1.00  0.00     0.312 HD
ENDBRANCH  18  19
ENDBRANCH  17  18
ENDBRANCH  16  17
ENDBRANCH   6  11
BRANCH   1  22
HETATM   22  O1  UNL     1      19.795   1.716  50.915  1.00  0.00    -0.357 OA
HETATM   23  C1  UNL     1      18.508   2.027  51.417  1.00  0.00     0.209 C 
ENDBRANCH   1  22
TORSDOF 5
ENDMDL
MODEL 8
REMARK VINA RESULT:      -6.5      3.520      4.857
REMARK  5 active torsions:
REMARK  status: ('A' for Active; 'I' for Inactive)
REMARK    1  A    between atoms: O1_2  and  C2_3 
REMARK    2  A    between atoms: C5_8  and  N2_9 
REMARK    3  A    between atoms: C10_14  and  C11_15 
REMARK    4  A    between atoms: C11_15  and  C12_16 
REMARK    5  A    between atoms: C12_16  and  N3_17 
ROOT
HETATM    1  C2  UNL     1      25.272   0.441  52.836  1.00  0.00     0.080 C 
HETATM    2  C3  UNL     1      26.450   0.176  52.208  1.00  0.00     0.065 C 
HETATM    3  C4  UNL     1      26.932   1.582  52.050  1.00  0.00     0.069 C 
HETATM    4  N1  UNL     1      27.031   2.218  50.864  1.00  0.00    -0.212 NA
HETATM    5  S1  UNL     1      25.725   3.282  50.205  1.00  0.00     0.029 SA
HETATM    6  C5  UNL     1      24.380   3.383  51.427  1.00  0.00     0.094 C 
HETATM    7  C13 UNL     1      24.231   2.685  52.578  1.00  0.00     0.050 C 
HETATM    8  C14 UNL     1      24.959   1.762  53.487  1.00  0.00     0.204 C 
HETATM    9  O2  UNL     1      26.050   2.327  54.122  1.00  0.00    -0.369 OA
HETATM   10  C15 UNL     1      27.236   2.213  53.402  1.00  0.00     0.229 C 
ENDROOT
BRANCH   6  11
HETATM   11  N2  UNL     1      23.402   4.323  51.065  1.00  0.00    -0.342 N 
HETATM   12  C6  UNL     1      22.693   3.832  49.907  1.00  0.00     0.092 A 
HETATM   13  C7  UNL     1      21.677   4.499  49.334  1.00  0.00     0.017 A 
HETATM   14  C8  UNL     1      21.239   5.783  49.869  1.00  0.00    -0.001 A 
HETATM   15  C9  UNL     1      21.931   6.180  50.924  1.00  0.00    -0.001 A 
HETATM   16  C10 UNL     1      23.079   5.586  51.688  1.00  0.00     0.114 A 
BRANCH  16  17
HETATM   17  C11 UNL     1      24.194   6.576  51.583  1.00  0.00     0.059 C 
BRANCH  17  18
HETATM   18  C12 UNL     1      24.712   6.838  50.214  1.00  0.00     0.269 C 
BRANCH  18  19
HETATM   19  N3  UNL     1      26.173   7.001  50.346  1.00  0.00     0.078 N 
HETATM   20  H14 UNL     1      26.326   7.474  51.269  1.00  0.00     0.312 HD
HETATM   21  H15 UNL     1      26.535   6.025  50.457  1.00  0.00     0.312 HD
ENDBRANCH  18  19
ENDBRANCH  17  18
ENDBRANCH  16  17
ENDBRANCH   6  11
BRANCH   1  22
HETATM   22  O1  UNL     1      24.249  -0.548  52.909  1.00  0.00    -0.357 OA
HETATM   23  C1  UNL     1      23.446  -0.631  54.072  1.00  0.00     0.209 C 
ENDBRANCH   1  22
TORSDOF 5
ENDMDL
MODEL 9
REMARK VINA RESULT:      -6.4      3.215      5.995
REMARK  5 active torsions:
REMARK  status: ('A' for Active; 'I' for Inactive)
REMARK    1  A    between atoms: O1_2  and  C2_3 
REMARK    2  A    between atoms: C5_8  and  N2_9 
REMARK    3  A    between atoms: C10_14  and  C11_15 
REMARK    4  A    between atoms: C11_15  and  C12_16 
REMARK    5  A    between atoms: C12_16  and  N3_17 
ROOT
HETATM    1  C2  UNL     1      20.981   3.125  50.657  1.00  0.00     0.080 C 
HETATM    2  C3  UNL     1      20.964   4.426  51.057  1.00  0.00     0.065 C 
HETATM    3  C4  UNL     1      22.439   4.666  51.073  1.00  0.00     0.069 C 
HETATM    4  N1  UNL     1      23.161   4.863  52.197  1.00  0.00    -0.212 NA
HETATM    5  S1  UNL     1      24.027   3.527  53.056  1.00  0.00     0.029 SA
HETATM    6  C5  UNL     1      23.814   1.987  52.110  1.00  0.00     0.094 C 
HETATM    7  C13 UNL     1      23.026   1.760  51.033  1.00  0.00     0.050 C 
HETATM    8  C14 UNL     1      22.182   2.465  50.033  1.00  0.00     0.204 C 
HETATM    9  O2  UNL     1      22.881   3.303  49.183  1.00  0.00    -0.369 OA
HETATM   10  C15 UNL     1      23.021   4.600  49.668  1.00  0.00     0.229 C 
ENDROOT
BRANCH   6  11
HETATM   11  N2  UNL     1      24.595   0.937  52.621  1.00  0.00    -0.342 N 
HETATM   12  C6  UNL     1      25.751   0.765  51.773  1.00  0.00     0.092 A 
HETATM   13  C7  UNL     1      26.705  -0.151  52.013  1.00  0.00     0.017 A 
HETATM   14  C8  UNL     1      26.606  -1.035  53.169  1.00  0.00    -0.001 A 
HETATM   15  C9  UNL     1      25.524  -0.831  53.902  1.00  0.00    -0.001 A 
HETATM   16  C10 UNL     1      24.368   0.121  53.791  1.00  0.00     0.114 A 
BRANCH  16  17
HETATM   17  C11 UNL     1      23.148  -0.733  53.664  1.00  0.00     0.059 C 
BRANCH  17  18
HETATM   18  C12 UNL     1      22.455  -1.079  54.934  1.00  0.00     0.269 C 
BRANCH  18  19
HETATM   19  N3  UNL     1      21.031  -1.261  54.594  1.00  0.00     0.078 N 
HETATM   20  H14 UNL     1      21.010  -1.534  53.583  1.00  0.00     0.312 HD
HETATM   21  H15 UNL     1      20.743  -2.113  55.130  1.00  0.00     0.312 HD
ENDBRANCH  18  19
ENDBRANCH  17  18
ENDBRANCH  16  17
ENDBRANCH   6  11
BRANCH   1  22
HETATM   22  O1  UNL     1      19.829   2.302  50.814  1.00  0.00    -0.357 OA
HETATM   23  C1  UNL     1      19.546   1.311  49.842  1.00  0.00     0.209 C 
ENDBRANCH   1  22
TORSDOF 5
ENDMDL
