MODEL 1
REMARK VINA RESULT:      -8.2      0.000      0.000
REMARK  4 active torsions:
REMARK  status: ('A' for Active; 'I' for Inactive)
REMARK    1  A    between atoms: N1_1  and  C1_2 
REMARK    2  A    between atoms: C1_2  and  C2_3 
REMARK    3  A    between atoms: C2_3  and  C3_4 
REMARK    4  A    between atoms: C4_5  and  C5_6 
ROOT
HETATM    1  C5  UNL     1      25.778   1.002  52.179  1.00  0.00    -0.053 C 
HETATM    2  C6  UNL     1      24.548   0.885  52.679  1.00  0.00    -0.019 C 
HETATM    3  C7  UNL     1      23.158   1.097  53.029  1.00  0.00     0.029 C 
HETATM    4  C8  UNL     1      22.217   0.157  52.369  1.00  0.00     0.023 C 
HETATM    5  C9  UNL     1      22.033   0.693  50.946  1.00  0.00     0.123 C 
HETATM    6  N2  UNL     1      21.459   2.068  51.088  1.00  0.00    -0.383 N 
HETATM    7  C10 UNL     1      20.287   2.173  51.921  1.00  0.00     0.148 C 
HETATM    8  C11 UNL     1      19.526   3.443  51.806  1.00  0.00     0.187 C 
HETATM    9  O1  UNL     1      20.286   4.520  51.356  1.00  0.00    -0.384 OA
HETATM   10  C12 UNL     1      20.892   4.183  50.124  1.00  0.00     0.220 C 
HETATM   11  C13 UNL     1      21.986   3.263  50.469  1.00  0.00     0.017 C 
HETATM   12  C14 UNL     1      23.080   3.860  50.077  1.00  0.00     0.070 C 
HETATM   13  C15 UNL     1      24.454   4.166  49.795  1.00  0.00     0.003 C 
HETATM   14  C16 UNL     1      25.765   3.927  49.798  1.00  0.00     0.004 C 
HETATM   15 BR1  UNL     1      26.561   5.446  48.905  1.00  0.00    -0.052 Br
HETATM   16  C17 UNL     1      26.585   2.930  50.438  1.00  0.00     0.002 C 
HETATM   17  C18 UNL     1      25.859   2.123  51.259  1.00  0.00     0.054 C 
ENDROOT
BRANCH   1  18
HETATM   18  C4  UNL     1      26.762  -0.055  52.525  1.00  0.00     0.008 C 
HETATM   19  C3  UNL     1      27.915   0.135  53.108  1.00  0.00     0.010 C 
BRANCH  19  20
HETATM   20  C2  UNL     1      28.852  -0.960  53.428  1.00  0.00     0.076 C 
BRANCH  20  21
HETATM   21  C1  UNL     1      28.660  -2.220  53.088  1.00  0.00    -0.025 C 
BRANCH  21  22
HETATM   22  N1  UNL     1      28.552  -3.505  53.094  1.00  0.00    -0.258 NA
HETATM   23  H1  UNL     1      27.764  -3.900  53.688  1.00  0.00     0.197 HD
ENDBRANCH  21  22
ENDBRANCH  20  21
ENDBRANCH  19  20
ENDBRANCH   1  18
TORSDOF 4
ENDMDL
MODEL 2
REMARK VINA RESULT:      -7.7      3.217      5.219
REMARK  4 active torsions:
REMARK  status: ('A' for Active; 'I' for Inactive)
REMARK    1  A    between atoms: N1_1  and  C1_2 
REMARK    2  A    between atoms: C1_2  and  C2_3 
REMARK    3  A    between atoms: C2_3  and  C3_4 
REMARK    4  A    between atoms: C4_5  and  C5_6 
ROOT
HETATM    1  C5  UNL     1      25.966   3.600  49.833  1.00  0.00    -0.053 C 
HETATM    2  C6  UNL     1      24.745   4.042  49.536  1.00  0.00    -0.019 C 
HETATM    3  C7  UNL     1      23.310   4.209  49.426  1.00  0.00     0.029 C 
HETATM    4  C8  UNL     1      22.773   5.362  50.194  1.00  0.00     0.023 C 
HETATM    5  C9  UNL     1      22.696   4.886  51.647  1.00  0.00     0.123 C 
HETATM    6  N2  UNL     1      21.765   3.714  51.654  1.00  0.00    -0.383 N 
HETATM    7  C10 UNL     1      20.484   3.929  51.029  1.00  0.00     0.148 C 
HETATM    8  C11 UNL     1      19.447   2.906  51.316  1.00  0.00     0.187 C 
HETATM    9  O1  UNL     1      19.960   1.664  51.677  1.00  0.00    -0.384 OA
HETATM   10  C12 UNL     1      20.832   1.820  52.780  1.00  0.00     0.220 C 
HETATM   11  C13 UNL     1      22.055   2.418  52.226  1.00  0.00     0.017 C 
HETATM   12  C14 UNL     1      23.003   1.550  52.457  1.00  0.00     0.070 C 
HETATM   13  C15 UNL     1      24.275   0.887  52.522  1.00  0.00     0.003 C 
HETATM   14  C16 UNL     1      25.583   0.769  52.296  1.00  0.00     0.004 C 
HETATM   15 BR1  UNL     1      26.090  -0.912  53.106  1.00  0.00    -0.052 Br
HETATM   16  C17 UNL     1      26.518   1.516  51.492  1.00  0.00     0.002 C 
HETATM   17  C18 UNL     1      25.902   2.492  50.770  1.00  0.00     0.054 C 
ENDROOT
BRANCH   1  18
HETATM   18  C4  UNL     1      27.121   4.359  49.290  1.00  0.00     0.008 C 
HETATM   19  C3  UNL     1      27.054   5.477  48.619  1.00  0.00     0.010 C 
BRANCH  19  20
HETATM   20  C2  UNL     1      28.242   6.187  48.104  1.00  0.00     0.076 C 
BRANCH  20  21
HETATM   21  C1  UNL     1      29.478   5.933  48.488  1.00  0.00    -0.025 C 
BRANCH  21  22
HETATM   22  N1  UNL     1      30.570   5.821  49.166  1.00  0.00    -0.258 NA
HETATM   23  H1  UNL     1      30.453   5.726  50.218  1.00  0.00     0.197 HD
ENDBRANCH  21  22
ENDBRANCH  20  21
ENDBRANCH  19  20
ENDBRANCH   1  18
TORSDOF 4
ENDMDL
MODEL 3
REMARK VINA RESULT:      -7.7      2.747      4.114
REMARK  4 active torsions:
REMARK  status: ('A' for Active; 'I' for Inactive)
REMARK    1  A    between atoms: N1_1  and  C1_2 
REMARK    2  A    between atoms: C1_2  and  C2_3 
REMARK    3  A    between atoms: C2_3  and  C3_4 
REMARK    4  A    between atoms: C4_5  and  C5_6 
ROOT
HETATM    1  C5  UNL     1      24.508   0.289  52.703  1.00  0.00    -0.053 C 
HETATM    2  C6  UNL     1      24.594   1.351  51.902  1.00  0.00    -0.019 C 
HETATM    3  C7  UNL     1      24.294   2.467  51.028  1.00  0.00     0.029 C 
HETATM    4  C8  UNL     1      24.513   3.799  51.648  1.00  0.00     0.023 C 
HETATM    5  C9  UNL     1      23.285   4.046  52.529  1.00  0.00     0.123 C 
HETATM    6  N2  UNL     1      22.102   4.031  51.612  1.00  0.00    -0.383 N 
HETATM    7  C10 UNL     1      22.192   4.894  50.461  1.00  0.00     0.148 C 
HETATM    8  C11 UNL     1      20.919   5.137  49.736  1.00  0.00     0.187 C 
HETATM    9  O1  UNL     1      19.967   4.138  49.912  1.00  0.00    -0.384 OA
HETATM   10  C12 UNL     1      19.732   3.952  51.295  1.00  0.00     0.220 C 
HETATM   11  C13 UNL     1      20.911   3.232  51.795  1.00  0.00     0.017 C 
HETATM   12  C14 UNL     1      20.458   2.094  52.249  1.00  0.00     0.070 C 
HETATM   13  C15 UNL     1      20.363   0.788  52.838  1.00  0.00     0.003 C 
HETATM   14  C16 UNL     1      20.852  -0.315  53.405  1.00  0.00     0.004 C 
HETATM   15 BR1  UNL     1      19.311  -1.424  53.770  1.00  0.00    -0.052 Br
HETATM   16  C17 UNL     1      22.189  -0.816  53.597  1.00  0.00     0.002 C 
HETATM   17  C18 UNL     1      23.122  -0.019  53.008  1.00  0.00     0.054 C 
ENDROOT
BRANCH   1  18
HETATM   18  C4  UNL     1      25.776  -0.281  53.223  1.00  0.00     0.008 C 
HETATM   19  C3  UNL     1      26.915  -0.322  52.584  1.00  0.00     0.010 C 
BRANCH  19  20
HETATM   20  C2  UNL     1      28.145  -0.904  53.156  1.00  0.00     0.076 C 
BRANCH  20  21
HETATM   21  C1  UNL     1      28.492  -2.170  53.028  1.00  0.00    -0.025 C 
BRANCH  21  22
HETATM   22  N1  UNL     1      28.545  -3.458  53.101  1.00  0.00    -0.258 NA
HETATM   23  H1  UNL     1      29.456  -3.902  52.781  1.00  0.00     0.197 HD
ENDBRANCH  21  22
ENDBRANCH  20  21
ENDBRANCH  19  20
ENDBRANCH   1  18
TORSDOF 4
ENDMDL
MODEL 4
REMARK VINA RESULT:      -7.6      3.476      5.991
REMARK  4 active torsions:
REMARK  status: ('A' for Active; 'I' for Inactive)
REMARK    1  A    between atoms: N1_1  and  C1_2 
REMARK    2  A    between atoms: C1_2  and  C2_3 
REMARK    3  A    between atoms: C2_3  and  C3_4 
REMARK    4  A    between atoms: C4_5  and  C5_6 
ROOT
HETATM    1  C5  UNL     1      25.213   2.835  50.942  1.00  0.00    -0.053 C 
HETATM    2  C6  UNL     1      25.580   2.314  52.112  1.00  0.00    -0.019 C 
HETATM    3  C7  UNL     1      25.605   1.624  53.386  1.00  0.00     0.029 C 
HETATM    4  C8  UNL     1      26.394   0.366  53.378  1.00  0.00     0.023 C 
HETATM    5  C9  UNL     1      25.487  -0.683  52.728  1.00  0.00     0.123 C 
HETATM    6  N2  UNL     1      24.270  -0.778  53.594  1.00  0.00    -0.383 N 
HETATM    7  C10 UNL     1      24.517  -0.993  54.998  1.00  0.00     0.148 C 
HETATM    8  C11 UNL     1      23.342  -1.415  55.803  1.00  0.00     0.187 C 
HETATM    9  O1  UNL     1      22.118  -1.043  55.255  1.00  0.00    -0.384 OA
HETATM   10  C12 UNL     1      22.027  -1.537  53.933  1.00  0.00     0.220 C 
HETATM   11  C13 UNL     1      22.904  -0.670  53.134  1.00  0.00     0.017 C 
HETATM   12  C14 UNL     1      22.123  -0.096  52.258  1.00  0.00     0.070 C 
HETATM   13  C15 UNL     1      21.626   0.708  51.177  1.00  0.00     0.003 C 
HETATM   14  C16 UNL     1      21.736   1.586  50.181  1.00  0.00     0.004 C 
HETATM   15 BR1  UNL     1      19.958   1.737  49.437  1.00  0.00    -0.052 Br
HETATM   16  C17 UNL     1      22.798   2.459  49.748  1.00  0.00     0.002 C 
HETATM   17  C18 UNL     1      23.870   2.411  50.584  1.00  0.00     0.054 C 
ENDROOT
BRANCH   1  18
HETATM   18  C4  UNL     1      26.231   3.606  50.185  1.00  0.00     0.008 C 
HETATM   19  C3  UNL     1      25.992   4.611  49.386  1.00  0.00     0.010 C 
BRANCH  19  20
HETATM   20  C2  UNL     1      27.051   5.340  48.660  1.00  0.00     0.076 C 
BRANCH  20  21
HETATM   21  C1  UNL     1      27.330   6.615  48.846  1.00  0.00    -0.025 C 
BRANCH  21  22
HETATM   22  N1  UNL     1      27.844   7.729  49.249  1.00  0.00    -0.258 NA
HETATM   23  H1  UNL     1      28.088   7.779  50.282  1.00  0.00     0.197 HD
ENDBRANCH  21  22
ENDBRANCH  20  21
ENDBRANCH  19  20
ENDBRANCH   1  18
TORSDOF 4
ENDMDL
MODEL 5
REMARK VINA RESULT:      -7.5      3.439      5.552
REMARK  4 active torsions:
REMARK  status: ('A' for Active; 'I' for Inactive)
REMARK    1  A    between atoms: N1_1  and  C1_2 
REMARK    2  A    between atoms: C1_2  and  C2_3 
REMARK    3  A    between atoms: C2_3  and  C3_4 
REMARK    4  A    between atoms: C4_5  and  C5_6 
ROOT
HETATM    1  C5  UNL     1      25.023   2.481  50.485  1.00  0.00    -0.053 C 
HETATM    2  C6  UNL     1      23.725   2.181  50.548  1.00  0.00    -0.019 C 
HETATM    3  C7  UNL     1      22.448   1.569  50.852  1.00  0.00     0.029 C 
HETATM    4  C8  UNL     1      21.580   2.386  51.737  1.00  0.00     0.023 C 
HETATM    5  C9  UNL     1      22.120   2.171  53.153  1.00  0.00     0.123 C 
HETATM    6  N2  UNL     1      21.997   0.705  53.430  1.00  0.00    -0.383 N 
HETATM    7  C10 UNL     1      20.695   0.132  53.196  1.00  0.00     0.148 C 
HETATM    8  C11 UNL     1      20.472  -1.219  53.770  1.00  0.00     0.187 C 
HETATM    9  O1  UNL     1      21.641  -1.948  53.974  1.00  0.00    -0.384 OA
HETATM   10  C12 UNL     1      22.526  -1.196  54.782  1.00  0.00     0.220 C 
HETATM   11  C13 UNL     1      23.063  -0.151  53.899  1.00  0.00     0.017 C 
HETATM   12  C14 UNL     1      24.351  -0.361  53.853  1.00  0.00     0.070 C 
HETATM   13  C15 UNL     1      25.752  -0.257  53.554  1.00  0.00     0.003 C 
HETATM   14  C16 UNL     1      26.820   0.279  52.965  1.00  0.00     0.004 C 
HETATM   15 BR1  UNL     1      28.325  -0.753  53.602  1.00  0.00    -0.052 Br
HETATM   16  C17 UNL     1      26.983   1.264  51.925  1.00  0.00     0.002 C 
HETATM   17  C18 UNL     1      25.789   1.659  51.406  1.00  0.00     0.054 C 
ENDROOT
BRANCH   1  18
HETATM   18  C4  UNL     1      25.420   3.629  49.633  1.00  0.00     0.008 C 
HETATM   19  C3  UNL     1      26.631   4.099  49.498  1.00  0.00     0.010 C 
BRANCH  19  20
HETATM   20  C2  UNL     1      26.964   5.247  48.632  1.00  0.00     0.076 C 
BRANCH  20  21
HETATM   21  C1  UNL     1      28.169   5.774  48.534  1.00  0.00    -0.025 C 
BRANCH  21  22
HETATM   22  N1  UNL     1      29.397   6.115  48.741  1.00  0.00    -0.258 NA
HETATM   23  H1  UNL     1      30.019   5.366  49.169  1.00  0.00     0.197 HD
ENDBRANCH  21  22
ENDBRANCH  20  21
ENDBRANCH  19  20
ENDBRANCH   1  18
TORSDOF 4
ENDMDL
MODEL 6
REMARK VINA RESULT:      -7.3      3.790      7.456
REMARK  4 active torsions:
REMARK  status: ('A' for Active; 'I' for Inactive)
REMARK    1  A    between atoms: N1_1  and  C1_2 
REMARK    2  A    between atoms: C1_2  and  C2_3 
REMARK    3  A    between atoms: C2_3  and  C3_4 
REMARK    4  A    between atoms: C4_5  and  C5_6 
ROOT
HETATM    1  C5  UNL     1      22.773   2.222  50.665  1.00  0.00    -0.053 C 
HETATM    2  C6  UNL     1      23.959   2.804  50.847  1.00  0.00    -0.019 C 
HETATM    3  C7  UNL     1      25.258   3.195  51.356  1.00  0.00     0.029 C 
HETATM    4  C8  UNL     1      26.398   2.746  50.517  1.00  0.00     0.023 C 
HETATM    5  C9  UNL     1      26.607   1.270  50.867  1.00  0.00     0.123 C 
HETATM    6  N2  UNL     1      26.923   1.227  52.329  1.00  0.00    -0.383 N 
HETATM    7  C10 UNL     1      27.986   2.099  52.764  1.00  0.00     0.148 C 
HETATM    8  C11 UNL     1      28.526   1.830  54.121  1.00  0.00     0.187 C 
HETATM    9  O1  UNL     1      27.635   1.174  54.966  1.00  0.00    -0.384 OA
HETATM   10  C12 UNL     1      27.200  -0.023  54.350  1.00  0.00     0.220 C 
HETATM   11  C13 UNL     1      26.255   0.399  53.307  1.00  0.00     0.017 C 
HETATM   12  C14 UNL     1      25.112  -0.144  53.632  1.00  0.00     0.070 C 
HETATM   13  C15 UNL     1      23.734  -0.549  53.640  1.00  0.00     0.003 C 
HETATM   14  C16 UNL     1      22.488  -0.583  53.170  1.00  0.00     0.004 C 
HETATM   15 BR1  UNL     1      21.523  -1.748  54.374  1.00  0.00    -0.052 Br
HETATM   16  C17 UNL     1      21.799   0.157  52.143  1.00  0.00     0.002 C 
HETATM   17  C18 UNL     1      22.580   1.134  51.609  1.00  0.00     0.054 C 
ENDROOT
BRANCH   1  18
HETATM   18  C4  UNL     1      21.959   2.673  49.509  1.00  0.00     0.008 C 
HETATM   19  C3  UNL     1      22.269   2.522  48.249  1.00  0.00     0.010 C 
BRANCH  19  20
HETATM   20  C2  UNL     1      21.414   2.994  47.142  1.00  0.00     0.076 C 
BRANCH  20  21
HETATM   21  C1  UNL     1      21.877   3.492  46.012  1.00  0.00    -0.025 C 
BRANCH  21  22
HETATM   22  N1  UNL     1      22.023   4.152  44.913  1.00  0.00    -0.258 NA
HETATM   23  H1  UNL     1      22.210   5.193  45.020  1.00  0.00     0.197 HD
ENDBRANCH  21  22
ENDBRANCH  20  21
ENDBRANCH  19  20
ENDBRANCH   1  18
TORSDOF 4
ENDMDL
MODEL 7
REMARK VINA RESULT:      -7.1      3.380      6.171
REMARK  4 active torsions:
REMARK  status: ('A' for Active; 'I' for Inactive)
REMARK    1  A    between atoms: N1_1  and  C1_2 
REMARK    2  A    between atoms: C1_2  and  C2_3 
REMARK    3  A    between atoms: C2_3  and  C3_4 
REMARK    4  A    between atoms: C4_5  and  C5_6 
ROOT
HETATM    1  C5  UNL     1      21.434   0.995  52.370  1.00  0.00    -0.053 C 
HETATM    2  C6  UNL     1      21.305   2.077  51.602  1.00  0.00    -0.019 C 
HETATM    3  C7  UNL     1      21.552   3.285  50.841  1.00  0.00     0.029 C 
HETATM    4  C8  UNL     1      21.481   3.098  49.369  1.00  0.00     0.023 C 
HETATM    5  C9  UNL     1      22.820   2.469  48.971  1.00  0.00     0.123 C 
HETATM    6  N2  UNL     1      23.878   3.449  49.372  1.00  0.00    -0.383 N 
HETATM    7  C10 UNL     1      23.691   4.799  48.901  1.00  0.00     0.148 C 
HETATM    8  C11 UNL     1      24.875   5.688  49.005  1.00  0.00     0.187 C 
HETATM    9  O1  UNL     1      25.789   5.303  49.982  1.00  0.00    -0.384 OA
HETATM   10  C12 UNL     1      26.183   3.964  49.753  1.00  0.00     0.220 C 
HETATM   11  C13 UNL     1      25.039   3.145  50.178  1.00  0.00     0.017 C 
HETATM   12  C14 UNL     1      25.485   2.403  51.156  1.00  0.00     0.070 C 
HETATM   13  C15 UNL     1      25.584   1.445  52.221  1.00  0.00     0.003 C 
HETATM   14  C16 UNL     1      25.112   0.513  53.048  1.00  0.00     0.004 C 
HETATM   15 BR1  UNL     1      26.626  -0.026  54.123  1.00  0.00    -0.052 Br
HETATM   16  C17 UNL     1      23.785   0.038  53.347  1.00  0.00     0.002 C 
HETATM   17  C18 UNL     1      22.830   0.750  52.690  1.00  0.00     0.054 C 
ENDROOT
BRANCH   1  18
HETATM   18  C4  UNL     1      20.212   0.197  52.639  1.00  0.00     0.008 C 
HETATM   19  C3  UNL     1      19.098   0.248  51.957  1.00  0.00     0.010 C 
BRANCH  19  20
HETATM   20  C2  UNL     1      17.914  -0.574  52.275  1.00  0.00     0.076 C 
BRANCH  20  21
HETATM   21  C1  UNL     1      17.938  -1.629  53.066  1.00  0.00    -0.025 C 
BRANCH  21  22
HETATM   22  N1  UNL     1      17.791  -2.442  54.057  1.00  0.00    -0.258 NA
HETATM   23  H1  UNL     1      17.093  -3.230  53.909  1.00  0.00     0.197 HD
ENDBRANCH  21  22
ENDBRANCH  20  21
ENDBRANCH  19  20
ENDBRANCH   1  18
TORSDOF 4
ENDMDL
MODEL 8
REMARK VINA RESULT:      -7.0      3.455      6.505
REMARK  4 active torsions:
REMARK  status: ('A' for Active; 'I' for Inactive)
REMARK    1  A    between atoms: N1_1  and  C1_2 
REMARK    2  A    between atoms: C1_2  and  C2_3 
REMARK    3  A    between atoms: C2_3  and  C3_4 
REMARK    4  A    between atoms: C4_5  and  C5_6 
ROOT
HETATM    1  C5  UNL     1      22.619   2.465  49.454  1.00  0.00    -0.053 C 
HETATM    2  C6  UNL     1      21.585   1.693  49.789  1.00  0.00    -0.019 C 
HETATM    3  C7  UNL     1      20.716   0.724  50.425  1.00  0.00     0.029 C 
HETATM    4  C8  UNL     1      19.619   1.326  51.225  1.00  0.00     0.023 C 
HETATM    5  C9  UNL     1      20.262   1.749  52.548  1.00  0.00     0.123 C 
HETATM    6  N2  UNL     1      20.801   0.499  53.170  1.00  0.00    -0.383 N 
HETATM    7  C10 UNL     1      19.868  -0.594  53.284  1.00  0.00     0.148 C 
HETATM    8  C11 UNL     1      20.280  -1.703  54.182  1.00  0.00     0.187 C 
HETATM    9  O1  UNL     1      21.657  -1.806  54.359  1.00  0.00    -0.384 OA
HETATM   10  C12 UNL     1      22.164  -0.569  54.821  1.00  0.00     0.220 C 
HETATM   11  C13 UNL     1      22.153   0.317  53.648  1.00  0.00     0.017 C 
HETATM   12  C14 UNL     1      23.401   0.645  53.447  1.00  0.00     0.070 C 
HETATM   13  C15 UNL     1      24.602   1.223  52.914  1.00  0.00     0.003 C 
HETATM   14  C16 UNL     1      25.303   1.962  52.055  1.00  0.00     0.004 C 
HETATM   15 BR1  UNL     1      27.135   1.851  52.666  1.00  0.00    -0.052 Br
HETATM   16  C17 UNL     1      24.976   2.599  50.805  1.00  0.00     0.002 C 
HETATM   17  C18 UNL     1      23.707   2.314  50.405  1.00  0.00     0.054 C 
ENDROOT
BRANCH   1  18
HETATM   18  C4  UNL     1      22.439   3.391  48.308  1.00  0.00     0.008 C 
HETATM   19  C3  UNL     1      22.064   3.054  47.103  1.00  0.00     0.010 C 
BRANCH  19  20
HETATM   20  C2  UNL     1      21.903   4.025  46.003  1.00  0.00     0.076 C 
BRANCH  20  21
HETATM   21  C1  UNL     1      21.257   3.770  44.882  1.00  0.00    -0.025 C 
BRANCH  21  22
HETATM   22  N1  UNL     1      20.878   3.725  43.649  1.00  0.00    -0.258 NA
HETATM   23  H1  UNL     1      21.596   4.044  42.933  1.00  0.00     0.197 HD
ENDBRANCH  21  22
ENDBRANCH  20  21
ENDBRANCH  19  20
ENDBRANCH   1  18
TORSDOF 4
ENDMDL
MODEL 9
REMARK VINA RESULT:      -7.0      3.336      6.385
REMARK  4 active torsions:
REMARK  status: ('A' for Active; 'I' for Inactive)
REMARK    1  A    between atoms: N1_1  and  C1_2 
REMARK    2  A    between atoms: C1_2  and  C2_3 
REMARK    3  A    between atoms: C2_3  and  C3_4 
REMARK    4  A    between atoms: C4_5  and  C5_6 
ROOT
HETATM    1  C5  UNL     1      20.464   0.893  50.432  1.00  0.00    -0.053 C 
HETATM    2  C6  UNL     1      21.486   0.647  51.253  1.00  0.00    -0.019 C 
HETATM    3  C7  UNL     1      22.797   0.569  51.863  1.00  0.00     0.029 C 
HETATM    4  C8  UNL     1      22.961   1.433  53.059  1.00  0.00     0.023 C 
HETATM    5  C9  UNL     1      23.202   2.844  52.515  1.00  0.00     0.123 C 
HETATM    6  N2  UNL     1      24.449   2.768  51.691  1.00  0.00    -0.383 N 
HETATM    7  C10 UNL     1      25.592   2.178  52.341  1.00  0.00     0.148 C 
HETATM    8  C11 UNL     1      26.899   2.394  51.669  1.00  0.00     0.187 C 
HETATM    9  O1  UNL     1      26.799   2.648  50.304  1.00  0.00    -0.384 OA
HETATM   10  C12 UNL     1      25.936   3.749  50.095  1.00  0.00     0.220 C 
HETATM   11  C13 UNL     1      24.581   3.230  50.328  1.00  0.00     0.017 C 
HETATM   12  C14 UNL     1      23.951   3.379  49.194  1.00  0.00     0.070 C 
HETATM   13  C15 UNL     1      22.946   3.375  48.167  1.00  0.00     0.003 C 
HETATM   14  C16 UNL     1      21.736   3.124  47.670  1.00  0.00     0.004 C 
HETATM   15 BR1  UNL     1      21.784   3.790  45.856  1.00  0.00    -0.052 Br
HETATM   16  C17 UNL     1      20.606   2.372  48.154  1.00  0.00     0.002 C 
HETATM   17  C18 UNL     1      20.880   1.739  49.326  1.00  0.00     0.054 C 
ENDROOT
BRANCH   1  18
HETATM   18  C4  UNL     1      19.125   0.399  50.838  1.00  0.00     0.008 C 
HETATM   19  C3  UNL     1      18.832  -0.168  51.978  1.00  0.00     0.010 C 
BRANCH  19  20
HETATM   20  C2  UNL     1      17.476  -0.639  52.324  1.00  0.00     0.076 C 
BRANCH  20  21
HETATM   21  C1  UNL     1      17.231  -1.682  53.094  1.00  0.00    -0.025 C 
BRANCH  21  22
HETATM   22  N1  UNL     1      17.285  -2.823  53.695  1.00  0.00    -0.258 NA
HETATM   23  H1  UNL     1      17.355  -3.675  53.063  1.00  0.00     0.197 HD
ENDBRANCH  21  22
ENDBRANCH  20  21
ENDBRANCH  19  20
ENDBRANCH   1  18
TORSDOF 4
ENDMDL
