MODEL 1
REMARK VINA RESULT:      -7.7      0.000      0.000
REMARK  4 active torsions:
REMARK  status: ('A' for Active; 'I' for Inactive)
REMARK    1  A    between atoms: O1_1  and  C1_2 
REMARK    2  A    between atoms: C1_2  and  C2_3 
REMARK    3  A    between atoms: C2_3  and  C3_4 
REMARK    4  A    between atoms: C2_3  and  N1_9 
ROOT
HETATM    1  N1  UNL     1      24.982   0.997  53.267  1.00  0.00    -0.227 N 
HETATM    2  O2  UNL     1      25.291   2.349  53.530  1.00  0.00    -0.246 OA
HETATM    3  C8  UNL     1      24.370   3.301  53.024  1.00  0.00     0.164 C 
HETATM    4  C9  UNL     1      23.433   4.205  52.597  1.00  0.00    -0.000 C 
HETATM    5  C10 UNL     1      23.746   4.902  51.334  1.00  0.00     0.030 C 
HETATM    6  C11 UNL     1      22.704   5.122  50.347  1.00  0.00     0.014 C 
HETATM    7  C12 UNL     1      21.721   4.179  49.854  1.00  0.00     0.081 C 
HETATM    8  S1  UNL     1      22.190   2.559  49.254  1.00  0.00    -0.110 SA
HETATM    9  C13 UNL     1      22.611   1.505  50.689  1.00  0.00     0.098 A 
HETATM   10  C14 UNL     1      23.778   1.550  51.398  1.00  0.00     0.091 A 
HETATM   11  C15 UNL     1      23.788   0.781  52.527  1.00  0.00     0.154 A 
HETATM   12  N2  UNL     1      22.810   0.006  52.992  1.00  0.00    -0.222 NA
HETATM   13  C16 UNL     1      21.669  -0.003  52.234  1.00  0.00     0.236 A 
HETATM   14  N3  UNL     1      21.551   0.737  51.088  1.00  0.00    -0.235 NA
ENDROOT
BRANCH   1  15
HETATM   15  C2  UNL     1      25.697  -0.147  53.650  1.00  0.00     0.152 C 
BRANCH  15  16
HETATM   16  C1  UNL     1      26.304  -0.068  55.036  1.00  0.00     0.193 C 
BRANCH  16  17
HETATM   17  O1  UNL     1      25.700  -0.887  55.958  1.00  0.00    -0.399 OA
HETATM   18  H1  UNL     1      26.284  -1.179  56.699  1.00  0.00     0.209 HD
ENDBRANCH  16  17
ENDBRANCH  15  16
BRANCH  15  19
HETATM   19  C3  UNL     1      26.862  -0.475  52.716  1.00  0.00     0.058 A 
HETATM   20  C4  UNL     1      28.170  -0.157  53.332  1.00  0.00    -0.016 A 
HETATM   21  C5  UNL     1      28.858  -1.291  53.376  1.00  0.00    -0.004 A 
HETATM   22  C6  UNL     1      28.062  -2.372  52.810  1.00  0.00    -0.004 A 
HETATM   23  C7  UNL     1      26.877  -1.918  52.412  1.00  0.00    -0.016 A 
ENDBRANCH  15  19
ENDBRANCH   1  15
TORSDOF 4
ENDMDL
MODEL 2
REMARK VINA RESULT:      -7.4      2.628      5.372
REMARK  4 active torsions:
REMARK  status: ('A' for Active; 'I' for Inactive)
REMARK    1  A    between atoms: O1_1  and  C1_2 
REMARK    2  A    between atoms: C1_2  and  C2_3 
REMARK    3  A    between atoms: C2_3  and  C3_4 
REMARK    4  A    between atoms: C2_3  and  N1_9 
ROOT
HETATM    1  N1  UNL     1      24.577   2.703  51.829  1.00  0.00    -0.227 N 
HETATM    2  O2  UNL     1      25.390   1.901  52.660  1.00  0.00    -0.246 OA
HETATM    3  C8  UNL     1      24.839   0.651  53.039  1.00  0.00     0.164 C 
HETATM    4  C9  UNL     1      24.327  -0.585  53.336  1.00  0.00    -0.000 C 
HETATM    5  C10 UNL     1      23.705  -0.717  54.667  1.00  0.00     0.030 C 
HETATM    6  C11 UNL     1      22.466  -1.459  54.820  1.00  0.00     0.014 C 
HETATM    7  C12 UNL     1      21.268  -1.383  54.011  1.00  0.00     0.081 C 
HETATM    8  S1  UNL     1      20.487   0.183  53.632  1.00  0.00    -0.110 SA
HETATM    9  C13 UNL     1      21.496   1.050  52.378  1.00  0.00     0.098 A 
HETATM   10  C14 UNL     1      22.662   1.720  52.614  1.00  0.00     0.091 A 
HETATM   11  C15 UNL     1      23.316   2.141  51.491  1.00  0.00     0.154 A 
HETATM   12  N2  UNL     1      22.942   1.979  50.223  1.00  0.00    -0.222 NA
HETATM   13  C16 UNL     1      21.762   1.306  50.050  1.00  0.00     0.236 A 
HETATM   14  N3  UNL     1      21.031   0.835  51.109  1.00  0.00    -0.235 NA
ENDROOT
BRANCH   1  15
HETATM   15  C2  UNL     1      24.863   3.967  51.295  1.00  0.00     0.152 C 
BRANCH  15  16
HETATM   16  C1  UNL     1      23.733   4.970  51.423  1.00  0.00     0.193 C 
BRANCH  16  17
HETATM   17  O1  UNL     1      23.865   5.827  52.487  1.00  0.00    -0.399 OA
HETATM   18  H1  UNL     1      23.014   6.170  52.851  1.00  0.00     0.209 HD
ENDBRANCH  16  17
ENDBRANCH  15  16
BRANCH  15  19
HETATM   19  C3  UNL     1      25.208   3.934  49.806  1.00  0.00     0.058 A 
HETATM   20  C4  UNL     1      25.171   5.284  49.200  1.00  0.00    -0.016 A 
HETATM   21  C5  UNL     1      26.384   5.519  48.715  1.00  0.00    -0.004 A 
HETATM   22  C6  UNL     1      27.246   4.371  48.970  1.00  0.00    -0.004 A 
HETATM   23  C7  UNL     1      26.577   3.420  49.614  1.00  0.00    -0.016 A 
ENDBRANCH  15  19
ENDBRANCH   1  15
TORSDOF 4
ENDMDL
MODEL 3
REMARK VINA RESULT:      -7.4      2.065      3.239
REMARK  4 active torsions:
REMARK  status: ('A' for Active; 'I' for Inactive)
REMARK    1  A    between atoms: O1_1  and  C1_2 
REMARK    2  A    between atoms: C1_2  and  C2_3 
REMARK    3  A    between atoms: C2_3  and  C3_4 
REMARK    4  A    between atoms: C2_3  and  N1_9 
ROOT
HETATM    1  N1  UNL     1      26.033   0.898  53.543  1.00  0.00    -0.227 N 
HETATM    2  O2  UNL     1      25.081  -0.051  53.976  1.00  0.00    -0.246 OA
HETATM    3  C8  UNL     1      23.794   0.057  53.390  1.00  0.00     0.164 C 
HETATM    4  C9  UNL     1      22.578   0.124  52.762  1.00  0.00    -0.000 C 
HETATM    5  C10 UNL     1      21.504   0.800  53.515  1.00  0.00     0.030 C 
HETATM    6  C11 UNL     1      20.594   1.703  52.831  1.00  0.00     0.014 C 
HETATM    7  C12 UNL     1      20.912   2.753  51.887  1.00  0.00     0.081 C 
HETATM    8  S1  UNL     1      22.153   3.994  52.242  1.00  0.00    -0.110 SA
HETATM    9  C13 UNL     1      23.806   3.229  52.082  1.00  0.00     0.098 A 
HETATM   10  C14 UNL     1      24.401   2.411  53.001  1.00  0.00     0.091 A 
HETATM   11  C15 UNL     1      25.563   1.831  52.579  1.00  0.00     0.154 A 
HETATM   12  N2  UNL     1      26.168   1.982  51.402  1.00  0.00    -0.222 NA
HETATM   13  C16 UNL     1      25.528   2.818  50.526  1.00  0.00     0.236 A 
HETATM   14  N3  UNL     1      24.353   3.445  50.846  1.00  0.00    -0.235 NA
ENDROOT
BRANCH   1  15
HETATM   15  C2  UNL     1      27.372   1.024  53.937  1.00  0.00     0.152 C 
BRANCH  15  16
HETATM   16  C1  UNL     1      27.885   2.451  53.961  1.00  0.00     0.193 C 
BRANCH  16  17
HETATM   17  O1  UNL     1      28.562   2.820  52.826  1.00  0.00    -0.399 OA
HETATM   18  H1  UNL     1      28.178   2.478  51.984  1.00  0.00     0.209 HD
ENDBRANCH  16  17
ENDBRANCH  15  16
BRANCH  15  19
HETATM   19  C3  UNL     1      28.344   0.260  53.037  1.00  0.00     0.058 A 
HETATM   20  C4  UNL     1      29.691   0.155  53.643  1.00  0.00    -0.016 A 
HETATM   21  C5  UNL     1      29.954  -1.141  53.769  1.00  0.00    -0.004 A 
HETATM   22  C6  UNL     1      28.830  -1.921  53.266  1.00  0.00    -0.004 A 
HETATM   23  C7  UNL     1      27.864  -1.119  52.829  1.00  0.00    -0.016 A 
ENDBRANCH  15  19
ENDBRANCH   1  15
TORSDOF 4
ENDMDL
MODEL 4
REMARK VINA RESULT:      -7.0      2.904      6.415
REMARK  4 active torsions:
REMARK  status: ('A' for Active; 'I' for Inactive)
REMARK    1  A    between atoms: O1_1  and  C1_2 
REMARK    2  A    between atoms: C1_2  and  C2_3 
REMARK    3  A    between atoms: C2_3  and  C3_4 
REMARK    4  A    between atoms: C2_3  and  N1_9 
ROOT
HETATM    1  N1  UNL     1      25.592   3.939  50.222  1.00  0.00    -0.227 N 
HETATM    2  O2  UNL     1      26.691   3.304  50.840  1.00  0.00    -0.246 OA
HETATM    3  C8  UNL     1      26.436   2.017  51.377  1.00  0.00     0.164 C 
HETATM    4  C9  UNL     1      26.196   0.743  51.824  1.00  0.00    -0.000 C 
HETATM    5  C10 UNL     1      25.947   0.609  53.272  1.00  0.00     0.030 C 
HETATM    6  C11 UNL     1      24.903  -0.280  53.751  1.00  0.00     0.014 C 
HETATM    7  C12 UNL     1      23.545  -0.412  53.268  1.00  0.00     0.081 C 
HETATM    8  S1  UNL     1      22.477   1.010  53.060  1.00  0.00    -0.110 SA
HETATM    9  C13 UNL     1      23.011   1.927  51.571  1.00  0.00     0.098 A 
HETATM   10  C14 UNL     1      24.091   2.760  51.489  1.00  0.00     0.091 A 
HETATM   11  C15 UNL     1      24.381   3.195  50.227  1.00  0.00     0.154 A 
HETATM   12  N2  UNL     1      23.733   2.909  49.099  1.00  0.00    -0.222 NA
HETATM   13  C16 UNL     1      22.656   2.076  49.246  1.00  0.00     0.236 A 
HETATM   14  N3  UNL     1      22.283   1.577  50.466  1.00  0.00    -0.235 NA
ENDROOT
BRANCH   1  15
HETATM   15  C2  UNL     1      25.553   5.196  49.602  1.00  0.00     0.152 C 
BRANCH  15  16
HETATM   16  C1  UNL     1      26.823   5.568  48.863  1.00  0.00     0.193 C 
BRANCH  16  17
HETATM   17  O1  UNL     1      27.669   4.510  48.640  1.00  0.00    -0.399 OA
HETATM   18  H1  UNL     1      28.218   4.583  47.822  1.00  0.00     0.209 HD
ENDBRANCH  16  17
ENDBRANCH  15  16
BRANCH  15  19
HETATM   19  C3  UNL     1      25.301   6.346  50.577  1.00  0.00     0.058 A 
HETATM   20  C4  UNL     1      25.881   7.619  50.092  1.00  0.00    -0.016 A 
HETATM   21  C5  UNL     1      24.877   8.479  49.978  1.00  0.00    -0.004 A 
HETATM   22  C6  UNL     1      23.630   7.834  50.371  1.00  0.00    -0.004 A 
HETATM   23  C7  UNL     1      23.851   6.573  50.729  1.00  0.00    -0.016 A 
ENDBRANCH  15  19
ENDBRANCH   1  15
TORSDOF 4
ENDMDL
MODEL 5
REMARK VINA RESULT:      -6.9      2.657      5.881
REMARK  4 active torsions:
REMARK  status: ('A' for Active; 'I' for Inactive)
REMARK    1  A    between atoms: O1_1  and  C1_2 
REMARK    2  A    between atoms: C1_2  and  C2_3 
REMARK    3  A    between atoms: C2_3  and  C3_4 
REMARK    4  A    between atoms: C2_3  and  N1_9 
ROOT
HETATM    1  N1  UNL     1      24.223   2.491  51.302  1.00  0.00    -0.227 N 
HETATM    2  O2  UNL     1      25.221   1.883  52.094  1.00  0.00    -0.246 OA
HETATM    3  C8  UNL     1      24.858   0.656  52.706  1.00  0.00     0.164 C 
HETATM    4  C9  UNL     1      24.521  -0.565  53.230  1.00  0.00    -0.000 C 
HETATM    5  C10 UNL     1      24.107  -0.562  54.646  1.00  0.00     0.030 C 
HETATM    6  C11 UNL     1      22.983  -1.375  55.076  1.00  0.00     0.014 C 
HETATM    7  C12 UNL     1      21.682  -1.510  54.455  1.00  0.00     0.081 C 
HETATM    8  S1  UNL     1      20.701  -0.082  54.005  1.00  0.00    -0.110 SA
HETATM    9  C13 UNL     1      21.433   0.682  52.513  1.00  0.00     0.098 A 
HETATM   10  C14 UNL     1      22.546   1.473  52.485  1.00  0.00     0.091 A 
HETATM   11  C15 UNL     1      22.991   1.786  51.232  1.00  0.00     0.154 A 
HETATM   12  N2  UNL     1      22.463   1.419  50.065  1.00  0.00    -0.222 NA
HETATM   13  C16 UNL     1      21.345   0.633  50.159  1.00  0.00     0.236 A 
HETATM   14  N3  UNL     1      20.819   0.256  51.366  1.00  0.00    -0.235 NA
ENDROOT
BRANCH   1  15
HETATM   15  C2  UNL     1      24.302   3.688  50.576  1.00  0.00     0.152 C 
BRANCH  15  16
HETATM   16  C1  UNL     1      25.654   3.946  49.941  1.00  0.00     0.193 C 
BRANCH  16  17
HETATM   17  O1  UNL     1      26.718   3.686  50.768  1.00  0.00    -0.399 OA
HETATM   18  H1  UNL     1      26.958   2.731  50.848  1.00  0.00     0.209 HD
ENDBRANCH  16  17
ENDBRANCH  15  16
BRANCH  15  19
HETATM   19  C3  UNL     1      24.007   4.929  51.419  1.00  0.00     0.058 A 
HETATM   20  C4  UNL     1      24.539   6.161  50.792  1.00  0.00    -0.016 A 
HETATM   21  C5  UNL     1      23.502   6.965  50.589  1.00  0.00    -0.004 A 
HETATM   22  C6  UNL     1      22.281   6.321  51.058  1.00  0.00    -0.004 A 
HETATM   23  C7  UNL     1      22.550   5.117  51.553  1.00  0.00    -0.016 A 
ENDBRANCH  15  19
ENDBRANCH   1  15
TORSDOF 4
ENDMDL
MODEL 6
REMARK VINA RESULT:      -6.8      3.763      4.891
REMARK  4 active torsions:
REMARK  status: ('A' for Active; 'I' for Inactive)
REMARK    1  A    between atoms: O1_1  and  C1_2 
REMARK    2  A    between atoms: C1_2  and  C2_3 
REMARK    3  A    between atoms: C2_3  and  C3_4 
REMARK    4  A    between atoms: C2_3  and  N1_9 
ROOT
HETATM    1  N1  UNL     1      20.645   1.593  51.794  1.00  0.00    -0.227 N 
HETATM    2  O2  UNL     1      20.198   2.810  52.355  1.00  0.00    -0.246 OA
HETATM    3  C8  UNL     1      20.532   3.981  51.629  1.00  0.00     0.164 C 
HETATM    4  C9  UNL     1      20.794   5.098  50.880  1.00  0.00    -0.000 C 
HETATM    5  C10 UNL     1      21.951   5.903  51.314  1.00  0.00     0.030 C 
HETATM    6  C11 UNL     1      22.862   6.457  50.328  1.00  0.00     0.014 C 
HETATM    7  C12 UNL     1      23.455   5.799  49.183  1.00  0.00     0.081 C 
HETATM    8  S1  UNL     1      24.297   4.226  49.333  1.00  0.00    -0.110 SA
HETATM    9  C13 UNL     1      23.044   2.912  49.552  1.00  0.00     0.098 A 
HETATM   10  C14 UNL     1      22.374   2.632  50.709  1.00  0.00     0.091 A 
HETATM   11  C15 UNL     1      21.369   1.716  50.578  1.00  0.00     0.154 A 
HETATM   12  N2  UNL     1      20.989   1.078  49.472  1.00  0.00    -0.222 NA
HETATM   13  C16 UNL     1      21.703   1.395  48.347  1.00  0.00     0.236 A 
HETATM   14  N3  UNL     1      22.726   2.305  48.367  1.00  0.00    -0.235 NA
ENDROOT
BRANCH   1  15
HETATM   15  C2  UNL     1      20.454   0.292  52.281  1.00  0.00     0.152 C 
BRANCH  15  16
HETATM   16  C1  UNL     1      19.005  -0.150  52.333  1.00  0.00     0.193 C 
BRANCH  16  17
HETATM   17  O1  UNL     1      18.128   0.744  51.771  1.00  0.00    -0.399 OA
HETATM   18  H1  UNL     1      18.214   0.850  50.793  1.00  0.00     0.209 HD
ENDBRANCH  16  17
ENDBRANCH  15  16
BRANCH  15  19
HETATM   19  C3  UNL     1      20.990   0.090  53.698  1.00  0.00     0.058 A 
HETATM   20  C4  UNL     1      20.705  -1.271  54.208  1.00  0.00    -0.016 A 
HETATM   21  C5  UNL     1      21.877  -1.829  54.484  1.00  0.00    -0.004 A 
HETATM   22  C6  UNL     1      22.952  -0.892  54.180  1.00  0.00    -0.004 A 
HETATM   23  C7  UNL     1      22.456   0.250  53.714  1.00  0.00    -0.016 A 
ENDBRANCH  15  19
ENDBRANCH   1  15
TORSDOF 4
ENDMDL
MODEL 7
REMARK VINA RESULT:      -6.7      2.044      2.869
REMARK  4 active torsions:
REMARK  status: ('A' for Active; 'I' for Inactive)
REMARK    1  A    between atoms: O1_1  and  C1_2 
REMARK    2  A    between atoms: C1_2  and  C2_3 
REMARK    3  A    between atoms: C2_3  and  C3_4 
REMARK    4  A    between atoms: C2_3  and  N1_9 
ROOT
HETATM    1  N1  UNL     1      22.952   1.777  52.007  1.00  0.00    -0.227 N 
HETATM    2  O2  UNL     1      22.824   2.958  52.771  1.00  0.00    -0.246 OA
HETATM    3  C8  UNL     1      22.193   4.047  52.119  1.00  0.00     0.164 C 
HETATM    4  C9  UNL     1      21.514   5.066  51.505  1.00  0.00    -0.000 C 
HETATM    5  C10 UNL     1      22.350   6.133  50.922  1.00  0.00     0.030 C 
HETATM    6  C11 UNL     1      22.013   6.693  49.625  1.00  0.00     0.014 C 
HETATM    7  C12 UNL     1      21.651   5.993  48.410  1.00  0.00     0.081 C 
HETATM    8  S1  UNL     1      22.644   4.649  47.766  1.00  0.00    -0.110 SA
HETATM    9  C13 UNL     1      22.370   3.171  48.807  1.00  0.00     0.098 A 
HETATM   10  C14 UNL     1      22.917   2.948  50.039  1.00  0.00     0.091 A 
HETATM   11  C15 UNL     1      22.429   1.849  50.688  1.00  0.00     0.154 A 
HETATM   12  N2  UNL     1      21.509   0.990  50.255  1.00  0.00    -0.222 NA
HETATM   13  C16 UNL     1      21.003   1.262  49.011  1.00  0.00     0.236 A 
HETATM   14  N3  UNL     1      21.418   2.342  48.278  1.00  0.00    -0.235 NA
ENDROOT
BRANCH   1  15
HETATM   15  C2  UNL     1      23.518   0.553  52.392  1.00  0.00     0.152 C 
BRANCH  15  16
HETATM   16  C1  UNL     1      22.711  -0.212  53.422  1.00  0.00     0.193 C 
BRANCH  16  17
HETATM   17  O1  UNL     1      21.410  -0.447  53.052  1.00  0.00    -0.399 OA
HETATM   18  H1  UNL     1      20.793  -0.633  53.799  1.00  0.00     0.209 HD
ENDBRANCH  16  17
ENDBRANCH  15  16
BRANCH  15  19
HETATM   19  C3  UNL     1      24.915   0.692  52.994  1.00  0.00     0.058 A 
HETATM   20  C4  UNL     1      25.362  -0.559  53.649  1.00  0.00    -0.016 A 
HETATM   21  C5  UNL     1      26.475  -0.936  53.032  1.00  0.00    -0.004 A 
HETATM   22  C6  UNL     1      26.803   0.017  51.980  1.00  0.00    -0.004 A 
HETATM   23  C7  UNL     1      25.897   0.990  51.934  1.00  0.00    -0.016 A 
ENDBRANCH  15  19
ENDBRANCH   1  15
TORSDOF 4
ENDMDL
MODEL 8
REMARK VINA RESULT:      -6.7      3.471      6.609
REMARK  4 active torsions:
REMARK  status: ('A' for Active; 'I' for Inactive)
REMARK    1  A    between atoms: O1_1  and  C1_2 
REMARK    2  A    between atoms: C1_2  and  C2_3 
REMARK    3  A    between atoms: C2_3  and  C3_4 
REMARK    4  A    between atoms: C2_3  and  N1_9 
ROOT
HETATM    1  N1  UNL     1      21.519   2.777  51.328  1.00  0.00    -0.227 N 
HETATM    2  O2  UNL     1      20.400   2.082  51.837  1.00  0.00    -0.246 OA
HETATM    3  C8  UNL     1      20.636   1.297  52.994  1.00  0.00     0.164 C 
HETATM    4  C9  UNL     1      20.860   0.604  54.155  1.00  0.00    -0.000 C 
HETATM    5  C10 UNL     1      21.063  -0.849  54.004  1.00  0.00     0.030 C 
HETATM    6  C11 UNL     1      22.090  -1.524  54.778  1.00  0.00     0.014 C 
HETATM    7  C12 UNL     1      23.463  -1.120  54.994  1.00  0.00     0.081 C 
HETATM    8  S1  UNL     1      24.538  -0.673  53.634  1.00  0.00    -0.110 SA
HETATM    9  C13 UNL     1      24.052   0.982  53.027  1.00  0.00     0.098 A 
HETATM   10  C14 UNL     1      22.977   1.258  52.231  1.00  0.00     0.091 A 
HETATM   11  C15 UNL     1      22.728   2.589  52.050  1.00  0.00     0.154 A 
HETATM   12  N2  UNL     1      23.411   3.619  52.546  1.00  0.00    -0.222 NA
HETATM   13  C16 UNL     1      24.482   3.279  53.330  1.00  0.00     0.236 A 
HETATM   14  N3  UNL     1      24.815   1.974  53.580  1.00  0.00    -0.235 NA
ENDROOT
BRANCH   1  15
HETATM   15  C2  UNL     1      21.579   3.628  50.215  1.00  0.00     0.152 C 
BRANCH  15  16
HETATM   16  C1  UNL     1      20.776   4.905  50.362  1.00  0.00     0.193 C 
BRANCH  16  17
HETATM   17  O1  UNL     1      21.314   5.804  51.248  1.00  0.00    -0.399 OA
HETATM   18  H1  UNL     1      21.056   5.663  52.190  1.00  0.00     0.209 HD
ENDBRANCH  16  17
ENDBRANCH  15  16
BRANCH  15  19
HETATM   19  C3  UNL     1      21.074   2.978  48.927  1.00  0.00     0.058 A 
HETATM   20  C4  UNL     1      21.206   3.884  47.763  1.00  0.00    -0.016 A 
HETATM   21  C5  UNL     1      21.991   3.270  46.887  1.00  0.00    -0.004 A 
HETATM   22  C6  UNL     1      22.398   1.974  47.415  1.00  0.00    -0.004 A 
HETATM   23  C7  UNL     1      21.871   1.775  48.620  1.00  0.00    -0.016 A 
ENDBRANCH  15  19
ENDBRANCH   1  15
TORSDOF 4
ENDMDL
MODEL 9
REMARK VINA RESULT:      -6.7      2.779      4.717
REMARK  4 active torsions:
REMARK  status: ('A' for Active; 'I' for Inactive)
REMARK    1  A    between atoms: O1_1  and  C1_2 
REMARK    2  A    between atoms: C1_2  and  C2_3 
REMARK    3  A    between atoms: C2_3  and  C3_4 
REMARK    4  A    between atoms: C2_3  and  N1_9 
ROOT
HETATM    1  N1  UNL     1      22.930   2.018  51.429  1.00  0.00    -0.227 N 
HETATM    2  O2  UNL     1      22.754   1.413  50.165  1.00  0.00    -0.246 OA
HETATM    3  C8  UNL     1      22.503   2.300  49.088  1.00  0.00     0.164 C 
HETATM    4  C9  UNL     1      22.337   3.172  48.043  1.00  0.00    -0.000 C 
HETATM    5  C10 UNL     1      20.948   3.365  47.586  1.00  0.00     0.030 C 
HETATM    6  C11 UNL     1      20.474   4.695  47.242  1.00  0.00     0.014 C 
HETATM    7  C12 UNL     1      20.650   5.929  47.978  1.00  0.00     0.081 C 
HETATM    8  S1  UNL     1      20.255   6.050  49.720  1.00  0.00    -0.110 SA
HETATM    9  C13 UNL     1      21.558   5.192  50.674  1.00  0.00     0.098 A 
HETATM   10  C14 UNL     1      21.680   3.839  50.824  1.00  0.00     0.091 A 
HETATM   11  C15 UNL     1      22.829   3.435  51.441  1.00  0.00     0.154 A 
HETATM   12  N2  UNL     1      23.814   4.200  51.909  1.00  0.00    -0.222 NA
HETATM   13  C16 UNL     1      23.631   5.547  51.736  1.00  0.00     0.236 A 
HETATM   14  N3  UNL     1      22.518   6.057  51.124  1.00  0.00    -0.235 NA
ENDROOT
BRANCH   1  15
HETATM   15  C2  UNL     1      23.200   1.398  52.657  1.00  0.00     0.152 C 
BRANCH  15  16
HETATM   16  C1  UNL     1      24.623   0.897  52.805  1.00  0.00     0.193 C 
BRANCH  16  17
HETATM   17  O1  UNL     1      25.448   1.243  51.765  1.00  0.00    -0.399 OA
HETATM   18  H1  UNL     1      25.918   0.486  51.338  1.00  0.00     0.209 HD
ENDBRANCH  16  17
ENDBRANCH  15  16
BRANCH  15  19
HETATM   19  C3  UNL     1      22.313   0.183  52.931  1.00  0.00     0.058 A 
HETATM   20  C4  UNL     1      22.948  -0.763  53.877  1.00  0.00    -0.016 A 
HETATM   21  C5  UNL     1      22.134  -0.865  54.920  1.00  0.00    -0.004 A 
HETATM   22  C6  UNL     1      20.964  -0.021  54.716  1.00  0.00    -0.004 A 
HETATM   23  C7  UNL     1      21.043   0.611  53.549  1.00  0.00    -0.016 A 
ENDBRANCH  15  19
ENDBRANCH   1  15
TORSDOF 4
ENDMDL
