MODEL 1
REMARK VINA RESULT:      -7.4      0.000      0.000
REMARK  6 active torsions:
REMARK  status: ('A' for Active; 'I' for Inactive)
REMARK    1  A    between atoms: C2_2  and  C3_3 
REMARK    2  A    between atoms: C4_4  and  C6_6 
REMARK    3  A    between atoms: C10_12  and  C11_13 
REMARK    4  A    between atoms: C13_15  and  O1_16 
REMARK    5  A    between atoms: C15_18  and  O2_19 
REMARK    6  A    between atoms: C17_21  and  O3_22 
ROOT
HETATM    1  C6  UNL     1      25.051  -0.266  53.103  1.00  0.00     0.017 C 
HETATM    2  C7  UNL     1      23.798  -0.283  53.444  1.00  0.00    -0.008 C 
HETATM    3  C8  UNL     1      23.639  -1.192  54.588  1.00  0.00     0.191 C 
HETATM    4  N1  UNL     1      22.319  -0.953  55.170  1.00  0.00    -0.278 NA
HETATM    5  C9  UNL     1      21.541  -0.150  54.574  1.00  0.00     0.227 C 
HETATM    6  N2  UNL     1      21.712   0.609  53.407  1.00  0.00    -0.241 NA
HETATM    7  C10 UNL     1      22.835   0.567  52.773  1.00  0.00     0.076 C 
ENDROOT
BRANCH   7   8
HETATM    8  C11 UNL     1      23.000   1.327  51.559  1.00  0.00    -0.001 A 
HETATM    9  C12 UNL     1      23.875   2.216  51.054  1.00  0.00     0.053 A 
HETATM   10  C13 UNL     1      23.826   2.951  49.901  1.00  0.00     0.105 A 
HETATM   11  C15 UNL     1      22.717   2.774  49.109  1.00  0.00     0.135 A 
HETATM   12  C17 UNL     1      21.736   1.895  49.494  1.00  0.00     0.105 A 
HETATM   13  C19 UNL     1      21.906   1.218  50.677  1.00  0.00     0.053 A 
BRANCH  10  14
HETATM   14  O1  UNL     1      24.822   3.825  49.538  1.00  0.00    -0.353 OA
HETATM   15  C14 UNL     1      26.188   3.556  49.621  1.00  0.00     0.210 C 
ENDBRANCH  10  14
BRANCH  11  16
HETATM   16  O2  UNL     1      22.583   3.478  47.924  1.00  0.00    -0.351 OA
HETATM   17  C16 UNL     1      22.035   4.779  47.887  1.00  0.00     0.210 C 
ENDBRANCH  11  16
BRANCH  12  18
HETATM   18  O3  UNL     1      20.638   1.743  48.673  1.00  0.00    -0.353 OA
HETATM   19  C18 UNL     1      19.369   2.297  48.956  1.00  0.00     0.210 C 
ENDBRANCH  12  18
ENDBRANCH   7   8
BRANCH   1  20
HETATM   20  C4  UNL     1      26.407  -0.733  53.315  1.00  0.00    -0.065 C 
HETATM   21  C3  UNL     1      27.344  -0.157  54.041  1.00  0.00    -0.020 C 
HETATM   22  C5  UNL     1      26.860  -1.980  52.669  1.00  0.00     0.048 C 
BRANCH  21  23
HETATM   23  C2  UNL     1      28.659  -0.015  54.627  1.00  0.00     0.023 C 
HETATM   24  C1  UNL     1      29.810  -0.100  53.613  1.00  0.00     0.009 C 
ENDBRANCH  21  23
ENDBRANCH   1  20
TORSDOF 6
ENDMDL
MODEL 2
REMARK VINA RESULT:      -7.3      0.653      2.608
REMARK  6 active torsions:
REMARK  status: ('A' for Active; 'I' for Inactive)
REMARK    1  A    between atoms: C2_2  and  C3_3 
REMARK    2  A    between atoms: C4_4  and  C6_6 
REMARK    3  A    between atoms: C10_12  and  C11_13 
REMARK    4  A    between atoms: C13_15  and  O1_16 
REMARK    5  A    between atoms: C15_18  and  O2_19 
REMARK    6  A    between atoms: C17_21  and  O3_22 
ROOT
HETATM    1  C6  UNL     1      24.864  -0.291  53.207  1.00  0.00     0.017 C 
HETATM    2  C7  UNL     1      23.636  -0.400  53.616  1.00  0.00    -0.008 C 
HETATM    3  C8  UNL     1      23.605  -1.323  54.759  1.00  0.00     0.191 C 
HETATM    4  N1  UNL     1      22.305  -1.181  55.414  1.00  0.00    -0.278 NA
HETATM    5  C9  UNL     1      21.440  -0.434  54.868  1.00  0.00     0.227 C 
HETATM    6  N2  UNL     1      21.492   0.341  53.700  1.00  0.00    -0.241 NA
HETATM    7  C10 UNL     1      22.579   0.382  53.005  1.00  0.00     0.076 C 
ENDROOT
BRANCH   7   8
HETATM    8  C11 UNL     1      22.623   1.157  51.791  1.00  0.00    -0.001 A 
HETATM    9  C12 UNL     1      21.978   1.193  50.610  1.00  0.00     0.053 A 
HETATM   10  C13 UNL     1      22.224   1.936  49.487  1.00  0.00     0.105 A 
HETATM   11  C15 UNL     1      23.294   2.796  49.545  1.00  0.00     0.135 A 
HETATM   12  C17 UNL     1      24.048   2.872  50.690  1.00  0.00     0.105 A 
HETATM   13  C19 UNL     1      23.696   2.071  51.747  1.00  0.00     0.053 A 
BRANCH  10  14
HETATM   14  O1  UNL     1      21.454   1.840  48.354  1.00  0.00    -0.353 OA
HETATM   15  C14 UNL     1      20.221   2.466  48.173  1.00  0.00     0.210 C 
ENDBRANCH  10  14
BRANCH  11  16
HETATM   16  O2  UNL     1      23.617   3.587  48.455  1.00  0.00    -0.351 OA
HETATM   17  C16 UNL     1      23.070   4.877  48.282  1.00  0.00     0.210 C 
ENDBRANCH  11  16
BRANCH  12  18
HETATM   18  O3  UNL     1      25.113   3.748  50.711  1.00  0.00    -0.353 OA
HETATM   19  C18 UNL     1      26.451   3.356  50.478  1.00  0.00     0.210 C 
ENDBRANCH  12  18
ENDBRANCH   7   8
BRANCH   1  20
HETATM   20  C4  UNL     1      26.259  -0.662  53.341  1.00  0.00    -0.065 C 
HETATM   21  C3  UNL     1      27.162  -0.101  54.121  1.00  0.00    -0.020 C 
HETATM   22  C5  UNL     1      26.801  -1.776  52.539  1.00  0.00     0.048 C 
BRANCH  21  23
HETATM   23  C2  UNL     1      28.474   0.083  54.702  1.00  0.00     0.023 C 
HETATM   24  C1  UNL     1      29.602   0.231  53.670  1.00  0.00     0.009 C 
ENDBRANCH  21  23
ENDBRANCH   1  20
TORSDOF 6
ENDMDL
MODEL 3
REMARK VINA RESULT:      -7.1      3.096      6.366
REMARK  6 active torsions:
REMARK  status: ('A' for Active; 'I' for Inactive)
REMARK    1  A    between atoms: C2_2  and  C3_3 
REMARK    2  A    between atoms: C4_4  and  C6_6 
REMARK    3  A    between atoms: C10_12  and  C11_13 
REMARK    4  A    between atoms: C13_15  and  O1_16 
REMARK    5  A    between atoms: C15_18  and  O2_19 
REMARK    6  A    between atoms: C17_21  and  O3_22 
ROOT
HETATM    1  C6  UNL     1      21.293   0.584  53.093  1.00  0.00     0.017 C 
HETATM    2  C7  UNL     1      21.261   1.749  52.521  1.00  0.00    -0.008 C 
HETATM    3  C8  UNL     1      19.862   2.083  52.219  1.00  0.00     0.191 C 
HETATM    4  N1  UNL     1      19.802   3.507  51.893  1.00  0.00    -0.278 NA
HETATM    5  C9  UNL     1      20.891   4.148  51.814  1.00  0.00     0.227 C 
HETATM    6  N2  UNL     1      22.220   3.740  52.004  1.00  0.00    -0.241 NA
HETATM    7  C10 UNL     1      22.475   2.522  52.345  1.00  0.00     0.076 C 
ENDROOT
BRANCH   7   8
HETATM    8  C11 UNL     1      23.842   2.098  52.514  1.00  0.00    -0.001 A 
HETATM    9  C12 UNL     1      24.546   1.322  53.361  1.00  0.00     0.053 A 
HETATM   10  C13 UNL     1      25.893   1.108  53.454  1.00  0.00     0.105 A 
HETATM   11  C15 UNL     1      26.683   1.777  52.550  1.00  0.00     0.135 A 
HETATM   12  C17 UNL     1      26.106   2.605  51.620  1.00  0.00     0.105 A 
HETATM   13  C19 UNL     1      24.740   2.734  51.634  1.00  0.00     0.053 A 
BRANCH  10  14
HETATM   14  O1  UNL     1      26.446   0.274  54.395  1.00  0.00    -0.353 OA
HETATM   15  C14 UNL     1      25.722  -0.447  55.344  1.00  0.00     0.210 C 
ENDBRANCH  10  14
BRANCH  11  16
HETATM   16  O2  UNL     1      28.060   1.620  52.571  1.00  0.00    -0.351 OA
HETATM   17  C16 UNL     1      28.871   2.283  53.517  1.00  0.00     0.210 C 
ENDBRANCH  11  16
BRANCH  12  18
HETATM   18  O3  UNL     1      26.931   3.258  50.728  1.00  0.00    -0.353 OA
HETATM   19  C18 UNL     1      26.463   3.901  49.560  1.00  0.00     0.210 C 
ENDBRANCH  12  18
ENDBRANCH   7   8
BRANCH   1  20
HETATM   20  C4  UNL     1      20.586  -0.582  53.586  1.00  0.00    -0.065 C 
HETATM   21  C3  UNL     1      19.328  -0.906  53.361  1.00  0.00    -0.020 C 
HETATM   22  C5  UNL     1      21.288  -1.553  54.449  1.00  0.00     0.048 C 
BRANCH  21  23
HETATM   23  C2  UNL     1      18.134  -1.715  53.468  1.00  0.00     0.023 C 
HETATM   24  C1  UNL     1      16.962  -1.222  52.607  1.00  0.00     0.009 C 
ENDBRANCH  21  23
ENDBRANCH   1  20
TORSDOF 6
ENDMDL
MODEL 4
REMARK VINA RESULT:      -7.0      2.718      4.514
REMARK  6 active torsions:
REMARK  status: ('A' for Active; 'I' for Inactive)
REMARK    1  A    between atoms: C2_2  and  C3_3 
REMARK    2  A    between atoms: C4_4  and  C6_6 
REMARK    3  A    between atoms: C10_12  and  C11_13 
REMARK    4  A    between atoms: C13_15  and  O1_16 
REMARK    5  A    between atoms: C15_18  and  O2_19 
REMARK    6  A    between atoms: C17_21  and  O3_22 
ROOT
HETATM    1  C6  UNL     1      25.759   0.870  52.661  1.00  0.00     0.017 C 
HETATM    2  C7  UNL     1      25.566   1.824  51.801  1.00  0.00    -0.008 C 
HETATM    3  C8  UNL     1      26.868   2.417  51.463  1.00  0.00     0.191 C 
HETATM    4  N1  UNL     1      26.687   3.242  50.269  1.00  0.00    -0.278 NA
HETATM    5  C9  UNL     1      25.513   3.395  49.822  1.00  0.00     0.227 C 
HETATM    6  N2  UNL     1      24.281   2.888  50.263  1.00  0.00    -0.241 NA
HETATM    7  C10 UNL     1      24.240   2.098  51.282  1.00  0.00     0.076 C 
ENDROOT
BRANCH   7   8
HETATM    8  C11 UNL     1      22.972   1.599  51.751  1.00  0.00    -0.001 A 
HETATM    9  C12 UNL     1      22.522   0.576  52.501  1.00  0.00     0.053 A 
HETATM   10  C13 UNL     1      21.244   0.165  52.765  1.00  0.00     0.105 A 
HETATM   11  C15 UNL     1      20.235   0.896  52.185  1.00  0.00     0.135 A 
HETATM   12  C17 UNL     1      20.540   1.974  51.392  1.00  0.00     0.105 A 
HETATM   13  C19 UNL     1      21.866   2.280  51.206  1.00  0.00     0.053 A 
BRANCH  10  14
HETATM   14  O1  UNL     1      20.964  -0.918  53.562  1.00  0.00    -0.353 OA
HETATM   15  C14 UNL     1      21.882  -1.546  54.403  1.00  0.00     0.210 C 
ENDBRANCH  10  14
BRANCH  11  16
HETATM   16  O2  UNL     1      18.909   0.552  52.396  1.00  0.00    -0.351 OA
HETATM   17  C16 UNL     1      18.228  -0.346  51.546  1.00  0.00     0.210 C 
ENDBRANCH  11  16
BRANCH  12  18
HETATM   18  O3  UNL     1      19.501   2.684  50.828  1.00  0.00    -0.353 OA
HETATM   19  C18 UNL     1      19.392   4.092  50.895  1.00  0.00     0.210 C 
ENDBRANCH  12  18
ENDBRANCH   7   8
BRANCH   1  20
HETATM   20  C4  UNL     1      26.672   0.092  53.475  1.00  0.00    -0.065 C 
HETATM   21  C3  UNL     1      27.615  -0.727  53.055  1.00  0.00    -0.020 C 
HETATM   22  C5  UNL     1      26.588   0.170  54.947  1.00  0.00     0.048 C 
BRANCH  21  23
HETATM   23  C2  UNL     1      28.703  -1.670  53.194  1.00  0.00     0.023 C 
HETATM   24  C1  UNL     1      29.986  -1.066  53.786  1.00  0.00     0.009 C 
ENDBRANCH  21  23
ENDBRANCH   1  20
TORSDOF 6
ENDMDL
MODEL 5
REMARK VINA RESULT:      -6.9      2.692      5.070
REMARK  6 active torsions:
REMARK  status: ('A' for Active; 'I' for Inactive)
REMARK    1  A    between atoms: C2_2  and  C3_3 
REMARK    2  A    between atoms: C4_4  and  C6_6 
REMARK    3  A    between atoms: C10_12  and  C11_13 
REMARK    4  A    between atoms: C13_15  and  O1_16 
REMARK    5  A    between atoms: C15_18  and  O2_19 
REMARK    6  A    between atoms: C17_21  and  O3_22 
ROOT
HETATM    1  C6  UNL     1      23.680   0.393  53.283  1.00  0.00     0.017 C 
HETATM    2  C7  UNL     1      24.976   0.323  53.241  1.00  0.00    -0.008 C 
HETATM    3  C8  UNL     1      25.403  -0.875  53.976  1.00  0.00     0.191 C 
HETATM    4  N1  UNL     1      26.805  -1.128  53.645  1.00  0.00    -0.278 NA
HETATM    5  C9  UNL     1      27.411  -0.278  52.928  1.00  0.00     0.227 C 
HETATM    6  N2  UNL     1      26.974   0.919  52.345  1.00  0.00    -0.241 NA
HETATM    7  C10 UNL     1      25.747   1.292  52.486  1.00  0.00     0.076 C 
ENDROOT
BRANCH   7   8
HETATM    8  C11 UNL     1      25.305   2.536  51.908  1.00  0.00    -0.001 A 
HETATM    9  C12 UNL     1      24.319   3.431  52.107  1.00  0.00     0.053 A 
HETATM   10  C13 UNL     1      23.960   4.532  51.379  1.00  0.00     0.105 A 
HETATM   11  C15 UNL     1      24.710   4.794  50.257  1.00  0.00     0.135 A 
HETATM   12  C17 UNL     1      25.755   3.969  49.925  1.00  0.00     0.105 A 
HETATM   13  C19 UNL     1      26.010   2.895  50.742  1.00  0.00     0.053 A 
BRANCH  10  14
HETATM   14  O1  UNL     1      22.909   5.343  51.732  1.00  0.00    -0.353 OA
HETATM   15  C14 UNL     1      21.565   5.048  51.508  1.00  0.00     0.210 C 
ENDBRANCH  10  14
BRANCH  11  16
HETATM   16  O2  UNL     1      24.418   5.888  49.459  1.00  0.00    -0.351 OA
HETATM   17  C16 UNL     1      23.526   5.799  48.369  1.00  0.00     0.210 C 
ENDBRANCH  11  16
BRANCH  12  18
HETATM   18  O3  UNL     1      26.486   4.265  48.794  1.00  0.00    -0.353 OA
HETATM   19  C18 UNL     1      27.724   4.947  48.821  1.00  0.00     0.210 C 
ENDBRANCH  12  18
ENDBRANCH   7   8
BRANCH   1  20
HETATM   20  C4  UNL     1      22.416  -0.161  53.727  1.00  0.00    -0.065 C 
HETATM   21  C3  UNL     1      21.236  -0.012  53.159  1.00  0.00    -0.020 C 
HETATM   22  C5  UNL     1      22.369  -0.986  54.951  1.00  0.00     0.048 C 
BRANCH  21  23
HETATM   23  C2  UNL     1      19.809  -0.195  53.013  1.00  0.00     0.023 C 
HETATM   24  C1  UNL     1      19.271   0.150  51.617  1.00  0.00     0.009 C 
ENDBRANCH  21  23
ENDBRANCH   1  20
TORSDOF 6
ENDMDL
MODEL 6
REMARK VINA RESULT:      -6.9      1.951      2.848
REMARK  6 active torsions:
REMARK  status: ('A' for Active; 'I' for Inactive)
REMARK    1  A    between atoms: C2_2  and  C3_3 
REMARK    2  A    between atoms: C4_4  and  C6_6 
REMARK    3  A    between atoms: C10_12  and  C11_13 
REMARK    4  A    between atoms: C13_15  and  O1_16 
REMARK    5  A    between atoms: C15_18  and  O2_19 
REMARK    6  A    between atoms: C17_21  and  O3_22 
ROOT
HETATM    1  C6  UNL     1      23.584   0.600  52.983  1.00  0.00     0.017 C 
HETATM    2  C7  UNL     1      22.631  -0.197  53.363  1.00  0.00    -0.008 C 
HETATM    3  C8  UNL     1      23.166  -1.114  54.379  1.00  0.00     0.191 C 
HETATM    4  N1  UNL     1      22.034  -1.768  55.033  1.00  0.00    -0.278 NA
HETATM    5  C9  UNL     1      20.873  -1.546  54.579  1.00  0.00     0.227 C 
HETATM    6  N2  UNL     1      20.433  -0.739  53.520  1.00  0.00    -0.241 NA
HETATM    7  C10 UNL     1      21.285  -0.042  52.846  1.00  0.00     0.076 C 
ENDROOT
BRANCH   7   8
HETATM    8  C11 UNL     1      20.835   0.766  51.741  1.00  0.00    -0.001 A 
HETATM    9  C12 UNL     1      21.105   0.895  50.428  1.00  0.00     0.053 A 
HETATM   10  C13 UNL     1      20.660   1.814  49.518  1.00  0.00     0.105 A 
HETATM   11  C15 UNL     1      19.796   2.772  49.988  1.00  0.00     0.135 A 
HETATM   12  C17 UNL     1      19.425   2.768  51.310  1.00  0.00     0.105 A 
HETATM   13  C19 UNL     1      19.944   1.790  52.121  1.00  0.00     0.053 A 
BRANCH  10  14
HETATM   14  O1  UNL     1      21.047   1.796  48.200  1.00  0.00    -0.353 OA
HETATM   15  C14 UNL     1      22.342   2.045  47.746  1.00  0.00     0.210 C 
ENDBRANCH  10  14
BRANCH  11  16
HETATM   16  O2  UNL     1      19.294   3.743  49.137  1.00  0.00    -0.351 OA
HETATM   17  C16 UNL     1      19.972   4.962  48.915  1.00  0.00     0.210 C 
ENDBRANCH  11  16
BRANCH  12  18
HETATM   18  O3  UNL     1      18.553   3.745  51.746  1.00  0.00    -0.353 OA
HETATM   19  C18 UNL     1      17.147   3.609  51.707  1.00  0.00     0.210 C 
ENDBRANCH  12  18
ENDBRANCH   7   8
BRANCH   1  20
HETATM   20  C4  UNL     1      24.967   1.024  53.083  1.00  0.00    -0.065 C 
HETATM   21  C3  UNL     1      26.042   0.304  52.833  1.00  0.00    -0.020 C 
HETATM   22  C5  UNL     1      25.279   2.401  53.514  1.00  0.00     0.048 C 
BRANCH  21  23
HETATM   23  C2  UNL     1      27.461   0.045  52.724  1.00  0.00     0.023 C 
HETATM   24  C1  UNL     1      28.183  -0.080  54.074  1.00  0.00     0.009 C 
ENDBRANCH  21  23
ENDBRANCH   1  20
TORSDOF 6
ENDMDL
MODEL 7
REMARK VINA RESULT:      -6.9      3.359      6.629
REMARK  6 active torsions:
REMARK  status: ('A' for Active; 'I' for Inactive)
REMARK    1  A    between atoms: C2_2  and  C3_3 
REMARK    2  A    between atoms: C4_4  and  C6_6 
REMARK    3  A    between atoms: C10_12  and  C11_13 
REMARK    4  A    between atoms: C13_15  and  O1_16 
REMARK    5  A    between atoms: C15_18  and  O2_19 
REMARK    6  A    between atoms: C17_21  and  O3_22 
ROOT
HETATM    1  C6  UNL     1      25.041   4.676  50.400  1.00  0.00     0.017 C 
HETATM    2  C7  UNL     1      23.898   4.800  51.004  1.00  0.00    -0.008 C 
HETATM    3  C8  UNL     1      23.183   5.944  50.419  1.00  0.00     0.191 C 
HETATM    4  N1  UNL     1      21.789   5.872  50.856  1.00  0.00    -0.278 NA
HETATM    5  C9  UNL     1      21.472   4.977  51.694  1.00  0.00     0.227 C 
HETATM    6  N2  UNL     1      22.236   3.974  52.310  1.00  0.00    -0.241 NA
HETATM    7  C10 UNL     1      23.486   3.846  52.015  1.00  0.00     0.076 C 
ENDROOT
BRANCH   7   8
HETATM    8  C11 UNL     1      24.275   2.833  52.668  1.00  0.00    -0.001 A 
HETATM    9  C12 UNL     1      25.489   2.734  53.242  1.00  0.00     0.053 A 
HETATM   10  C13 UNL     1      26.155   1.642  53.726  1.00  0.00     0.105 A 
HETATM   11  C15 UNL     1      25.504   0.435  53.627  1.00  0.00     0.135 A 
HETATM   12  C17 UNL     1      24.253   0.378  53.065  1.00  0.00     0.105 A 
HETATM   13  C19 UNL     1      23.695   1.550  52.616  1.00  0.00     0.053 A 
BRANCH  10  14
HETATM   14  O1  UNL     1      27.407   1.725  54.284  1.00  0.00    -0.353 OA
HETATM   15  C14 UNL     1      28.548   2.169  53.617  1.00  0.00     0.210 C 
ENDBRANCH  10  14
BRANCH  11  16
HETATM   16  O2  UNL     1      26.102  -0.725  54.092  1.00  0.00    -0.351 OA
HETATM   17  C16 UNL     1      26.938  -1.512  53.271  1.00  0.00     0.210 C 
ENDBRANCH  11  16
BRANCH  12  18
HETATM   18  O3  UNL     1      23.629  -0.850  52.985  1.00  0.00    -0.353 OA
HETATM   19  C18 UNL     1      22.316  -1.090  53.448  1.00  0.00     0.210 C 
ENDBRANCH  12  18
ENDBRANCH   7   8
BRANCH   1  20
HETATM   20  C4  UNL     1      25.979   5.146  49.399  1.00  0.00    -0.065 C 
HETATM   21  C3  UNL     1      25.938   6.287  48.742  1.00  0.00    -0.020 C 
HETATM   22  C5  UNL     1      27.126   4.298  49.017  1.00  0.00     0.048 C 
BRANCH  21  23
HETATM   23  C2  UNL     1      26.390   7.280  47.792  1.00  0.00     0.023 C 
HETATM   24  C1  UNL     1      25.258   7.952  47.000  1.00  0.00     0.009 C 
ENDBRANCH  21  23
ENDBRANCH   1  20
TORSDOF 6
ENDMDL
MODEL 8
REMARK VINA RESULT:      -6.6      2.704      5.463
REMARK  6 active torsions:
REMARK  status: ('A' for Active; 'I' for Inactive)
REMARK    1  A    between atoms: C2_2  and  C3_3 
REMARK    2  A    between atoms: C4_4  and  C6_6 
REMARK    3  A    between atoms: C10_12  and  C11_13 
REMARK    4  A    between atoms: C13_15  and  O1_16 
REMARK    5  A    between atoms: C15_18  and  O2_19 
REMARK    6  A    between atoms: C17_21  and  O3_22 
ROOT
HETATM    1  C6  UNL     1      25.273   3.056  50.761  1.00  0.00     0.017 C 
HETATM    2  C7  UNL     1      25.608   2.221  51.698  1.00  0.00    -0.008 C 
HETATM    3  C8  UNL     1      27.072   2.229  51.829  1.00  0.00     0.191 C 
HETATM    4  N1  UNL     1      27.413   1.559  53.083  1.00  0.00    -0.278 NA
HETATM    5  C9  UNL     1      26.478   1.020  53.745  1.00  0.00     0.227 C 
HETATM    6  N2  UNL     1      25.098   0.948  53.506  1.00  0.00    -0.241 NA
HETATM    7  C10 UNL     1      24.595   1.523  52.466  1.00  0.00     0.076 C 
ENDROOT
BRANCH   7   8
HETATM    8  C11 UNL     1      23.181   1.425  52.207  1.00  0.00    -0.001 A 
HETATM    9  C12 UNL     1      22.244   2.115  51.529  1.00  0.00     0.053 A 
HETATM   10  C13 UNL     1      20.887   1.949  51.475  1.00  0.00     0.105 A 
HETATM   11  C15 UNL     1      20.366   0.920  52.222  1.00  0.00     0.135 A 
HETATM   12  C17 UNL     1      21.202   0.125  52.966  1.00  0.00     0.105 A 
HETATM   13  C19 UNL     1      22.547   0.398  52.934  1.00  0.00     0.053 A 
BRANCH  10  14
HETATM   14  O1  UNL     1      20.072   2.760  50.722  1.00  0.00    -0.353 OA
HETATM   15  C14 UNL     1      19.650   4.035  51.097  1.00  0.00     0.210 C 
ENDBRANCH  10  14
BRANCH  11  16
HETATM   16  O2  UNL     1      19.002   0.679  52.228  1.00  0.00    -0.351 OA
HETATM   17  C16 UNL     1      18.375  -0.082  51.218  1.00  0.00     0.210 C 
ENDBRANCH  11  16
BRANCH  12  18
HETATM   18  O3  UNL     1      20.643  -0.900  53.701  1.00  0.00    -0.353 OA
HETATM   19  C18 UNL     1      21.392  -1.758  54.538  1.00  0.00     0.210 C 
ENDBRANCH  12  18
ENDBRANCH   7   8
BRANCH   1  20
HETATM   20  C4  UNL     1      25.667   4.017  49.749  1.00  0.00    -0.065 C 
HETATM   21  C3  UNL     1      26.887   4.265  49.318  1.00  0.00    -0.020 C 
HETATM   22  C5  UNL     1      24.640   4.850  49.093  1.00  0.00     0.048 C 
BRANCH  21  23
HETATM   23  C2  UNL     1      27.896   4.924  48.517  1.00  0.00     0.023 C 
HETATM   24  C1  UNL     1      27.651   6.427  48.311  1.00  0.00     0.009 C 
ENDBRANCH  21  23
ENDBRANCH   1  20
TORSDOF 6
ENDMDL
MODEL 9
REMARK VINA RESULT:      -6.6      3.324      6.892
REMARK  6 active torsions:
REMARK  status: ('A' for Active; 'I' for Inactive)
REMARK    1  A    between atoms: C2_2  and  C3_3 
REMARK    2  A    between atoms: C4_4  and  C6_6 
REMARK    3  A    between atoms: C10_12  and  C11_13 
REMARK    4  A    between atoms: C13_15  and  O1_16 
REMARK    5  A    between atoms: C15_18  and  O2_19 
REMARK    6  A    between atoms: C17_21  and  O3_22 
ROOT
HETATM    1  C6  UNL     1      24.937   4.500  50.304  1.00  0.00     0.017 C 
HETATM    2  C7  UNL     1      23.817   4.812  50.882  1.00  0.00    -0.008 C 
HETATM    3  C8  UNL     1      23.431   6.163  50.452  1.00  0.00     0.191 C 
HETATM    4  N1  UNL     1      22.033   6.371  50.829  1.00  0.00    -0.278 NA
HETATM    5  C9  UNL     1      21.460   5.473  51.513  1.00  0.00     0.227 C 
HETATM    6  N2  UNL     1      21.924   4.241  51.996  1.00  0.00    -0.241 NA
HETATM    7  C10 UNL     1      23.126   3.856  51.725  1.00  0.00     0.076 C 
ENDROOT
BRANCH   7   8
HETATM    8  C11 UNL     1      23.610   2.602  52.244  1.00  0.00    -0.001 A 
HETATM    9  C12 UNL     1      23.164   1.338  52.367  1.00  0.00     0.053 A 
HETATM   10  C13 UNL     1      23.717   0.261  53.004  1.00  0.00     0.105 A 
HETATM   11  C15 UNL     1      24.923   0.472  53.628  1.00  0.00     0.135 A 
HETATM   12  C17 UNL     1      25.506   1.714  53.586  1.00  0.00     0.105 A 
HETATM   13  C19 UNL     1      24.846   2.712  52.913  1.00  0.00     0.053 A 
BRANCH  10  14
HETATM   14  O1  UNL     1      23.112  -0.973  53.032  1.00  0.00    -0.353 OA
HETATM   15  C14 UNL     1      21.955  -1.277  53.747  1.00  0.00     0.210 C 
ENDBRANCH  10  14
BRANCH  11  16
HETATM   16  O2  UNL     1      25.556  -0.562  54.299  1.00  0.00    -0.351 OA
HETATM   17  C16 UNL     1      25.220  -0.905  55.626  1.00  0.00     0.210 C 
ENDBRANCH  11  16
BRANCH  12  18
HETATM   18  O3  UNL     1      26.717   1.887  54.222  1.00  0.00    -0.353 OA
HETATM   19  C18 UNL     1      27.931   2.122  53.538  1.00  0.00     0.210 C 
ENDBRANCH  12  18
ENDBRANCH   7   8
BRANCH   1  20
HETATM   20  C4  UNL     1      26.024   4.862  49.415  1.00  0.00    -0.065 C 
HETATM   21  C3  UNL     1      26.216   6.023  48.823  1.00  0.00    -0.020 C 
HETATM   22  C5  UNL     1      27.061   3.865  49.084  1.00  0.00     0.048 C 
BRANCH  21  23
HETATM   23  C2  UNL     1      26.898   6.975  47.973  1.00  0.00     0.023 C 
HETATM   24  C1  UNL     1      28.431   6.889  48.038  1.00  0.00     0.009 C 
ENDBRANCH  21  23
ENDBRANCH   1  20
TORSDOF 6
ENDMDL
