MODEL 1
REMARK VINA RESULT:      -8.5      0.000      0.000
REMARK  5 active torsions:
REMARK  status: ('A' for Active; 'I' for Inactive)
REMARK    1  A    between atoms: C5_5  and  C6_6 
REMARK       I    between atoms: C6_6  and  N1_8 
REMARK    2  A    between atoms: N1_8  and  C7_9 
REMARK    3  A    between atoms: C11_13  and  N2_14 
REMARK    4  A    between atoms: N2_14  and  C12_15 
REMARK    5  A    between atoms: C15_19  and  C16_20 
ROOT
HETATM    1  C7  UNL     1      23.723   2.276  51.809  1.00  0.00     0.037 A 
HETATM    2  C8  UNL     1      22.446   1.995  52.285  1.00  0.00     0.029 A 
HETATM    3  C9  UNL     1      22.135   0.876  53.001  1.00  0.00     0.004 A 
HETATM    4  C10 UNL     1      23.195   0.040  53.219  1.00  0.00     0.029 A 
HETATM    5  C11 UNL     1      24.492   0.216  52.800  1.00  0.00     0.038 A 
HETATM    6  C17 UNL     1      24.749   1.361  52.080  1.00  0.00     0.059 A 
ENDROOT
BRANCH   1   7
HETATM    7  N1  UNL     1      24.230   3.412  51.110  1.00  0.00    -0.323 N 
HETATM    8  C6  UNL     1      24.206   3.719  49.733  1.00  0.00     0.256 C 
HETATM    9  O1  UNL     1      23.616   2.829  49.027  1.00  0.00    -0.267 OA
HETATM   10  H6  UNL     1      24.671   4.070  51.779  1.00  0.00     0.169 HD
BRANCH   8  11
HETATM   11  C5  UNL     1      24.792   4.943  49.135  1.00  0.00     0.032 A 
HETATM   12  C4  UNL     1      23.951   5.834  48.554  1.00  0.00     0.017 A 
HETATM   13  C3  UNL     1      24.521   6.967  47.949  1.00  0.00     0.007 A 
HETATM   14  C2  UNL     1      25.902   7.148  47.958  1.00  0.00    -0.062 A 
HETATM   15  C1  UNL     1      26.548   8.323  47.310  1.00  0.00     0.048 C 
HETATM   16  C19 UNL     1      26.656   6.152  48.595  1.00  0.00     0.007 A 
HETATM   17  C18 UNL     1      26.191   4.992  49.223  1.00  0.00     0.017 A 
ENDBRANCH   8  11
ENDBRANCH   1   7
BRANCH   5  18
HETATM   18  N2  UNL     1      25.538  -0.678  53.103  1.00  0.00    -0.315 N 
HETATM   19  H10 UNL     1      25.267  -1.695  53.216  1.00  0.00     0.170 HD
BRANCH  18  20
HETATM   20  C12 UNL     1      26.902  -0.726  53.318  1.00  0.00     0.282 A 
HETATM   21  N3  UNL     1      27.688  -1.822  53.127  1.00  0.00    -0.215 NA
HETATM   22  C13 UNL     1      29.033  -1.739  53.392  1.00  0.00     0.125 A 
HETATM   23  C14 UNL     1      29.497  -0.478  53.855  1.00  0.00     0.067 A 
HETATM   24  C15 UNL     1      28.723   0.726  54.078  1.00  0.00     0.150 A 
HETATM   25  N4  UNL     1      27.838  -0.039  53.691  1.00  0.00    -0.366 NA
BRANCH  24  26
HETATM   26  C16 UNL     1      29.755   1.611  54.528  1.00  0.00     0.303 C 
HETATM   27  O2  UNL     1      28.908   2.536  54.336  1.00  0.00    -0.299 OA
ENDBRANCH  24  26
ENDBRANCH  18  20
ENDBRANCH   5  18
TORSDOF 5
ENDMDL
MODEL 2
REMARK VINA RESULT:      -8.5      2.651      6.532
REMARK  5 active torsions:
REMARK  status: ('A' for Active; 'I' for Inactive)
REMARK    1  A    between atoms: C5_5  and  C6_6 
REMARK       I    between atoms: C6_6  and  N1_8 
REMARK    2  A    between atoms: N1_8  and  C7_9 
REMARK    3  A    between atoms: C11_13  and  N2_14 
REMARK    4  A    between atoms: N2_14  and  C12_15 
REMARK    5  A    between atoms: C15_19  and  C16_20 
ROOT
HETATM    1  C7  UNL     1      23.517   2.126  50.760  1.00  0.00     0.037 A 
HETATM    2  C8  UNL     1      23.559   2.879  49.592  1.00  0.00     0.029 A 
HETATM    3  C9  UNL     1      24.627   3.645  49.223  1.00  0.00     0.004 A 
HETATM    4  C10 UNL     1      25.670   3.609  50.106  1.00  0.00     0.029 A 
HETATM    5  C11 UNL     1      25.739   2.903  51.284  1.00  0.00     0.038 A 
HETATM    6  C17 UNL     1      24.632   2.150  51.608  1.00  0.00     0.059 A 
ENDROOT
BRANCH   1   7
HETATM    7  N1  UNL     1      22.522   1.235  51.261  1.00  0.00    -0.323 N 
HETATM    8  C6  UNL     1      21.425   1.479  52.115  1.00  0.00     0.256 C 
HETATM    9  O1  UNL     1      21.323   2.706  52.466  1.00  0.00    -0.267 OA
HETATM   10  H6  UNL     1      22.694   0.277  50.902  1.00  0.00     0.169 HD
BRANCH   8  11
HETATM   11  C5  UNL     1      20.468   0.444  52.572  1.00  0.00     0.032 A 
HETATM   12  C4  UNL     1      20.875  -0.420  53.536  1.00  0.00     0.017 A 
HETATM   13  C3  UNL     1      19.977  -1.426  53.928  1.00  0.00     0.007 A 
HETATM   14  C2  UNL     1      18.720  -1.517  53.334  1.00  0.00    -0.062 A 
HETATM   15  C1  UNL     1      17.747  -2.582  53.704  1.00  0.00     0.048 C 
HETATM   16  C19 UNL     1      18.425  -0.560  52.352  1.00  0.00     0.007 A 
HETATM   17  C18 UNL     1      19.243   0.477  51.890  1.00  0.00     0.017 A 
ENDBRANCH   8  11
ENDBRANCH   1   7
BRANCH   5  18
HETATM   18  N2  UNL     1      26.873   2.890  52.121  1.00  0.00    -0.315 N 
HETATM   19  H10 UNL     1      27.331   3.826  52.305  1.00  0.00     0.170 HD
BRANCH  18  20
HETATM   20  C12 UNL     1      27.671   2.038  52.859  1.00  0.00     0.282 A 
HETATM   21  N3  UNL     1      28.568   2.428  53.807  1.00  0.00    -0.215 NA
HETATM   22  C13 UNL     1      29.312   1.476  54.460  1.00  0.00     0.125 A 
HETATM   23  C14 UNL     1      29.071   0.129  54.077  1.00  0.00     0.067 A 
HETATM   24  C15 UNL     1      28.136  -0.357  53.083  1.00  0.00     0.150 A 
HETATM   25  N4  UNL     1      27.934   0.855  53.003  1.00  0.00    -0.366 NA
BRANCH  24  26
HETATM   26  C16 UNL     1      28.375  -1.767  53.178  1.00  0.00     0.303 C 
HETATM   27  O2  UNL     1      27.120  -1.868  53.334  1.00  0.00    -0.299 OA
ENDBRANCH  24  26
ENDBRANCH  18  20
ENDBRANCH   5  18
TORSDOF 5
ENDMDL
MODEL 3
REMARK VINA RESULT:      -8.2      1.717      2.418
REMARK  5 active torsions:
REMARK  status: ('A' for Active; 'I' for Inactive)
REMARK    1  A    between atoms: C5_5  and  C6_6 
REMARK       I    between atoms: C6_6  and  N1_8 
REMARK    2  A    between atoms: N1_8  and  C7_9 
REMARK    3  A    between atoms: C11_13  and  N2_14 
REMARK    4  A    between atoms: N2_14  and  C12_15 
REMARK    5  A    between atoms: C15_19  and  C16_20 
ROOT
HETATM    1  C7  UNL     1      24.247   2.579  50.620  1.00  0.00     0.037 A 
HETATM    2  C8  UNL     1      22.880   2.322  50.609  1.00  0.00     0.029 A 
HETATM    3  C9  UNL     1      22.263   1.472  51.479  1.00  0.00     0.004 A 
HETATM    4  C10 UNL     1      23.108   0.885  52.379  1.00  0.00     0.029 A 
HETATM    5  C11 UNL     1      24.467   1.065  52.484  1.00  0.00     0.038 A 
HETATM    6  C17 UNL     1      25.038   1.931  51.578  1.00  0.00     0.059 A 
ENDROOT
BRANCH   1   7
HETATM    7  N1  UNL     1      25.036   3.473  49.836  1.00  0.00    -0.323 N 
HETATM    8  C6  UNL     1      25.191   4.873  49.930  1.00  0.00     0.256 C 
HETATM    9  O1  UNL     1      24.520   5.392  50.888  1.00  0.00    -0.267 OA
HETATM   10  H6  UNL     1      25.545   2.945  49.104  1.00  0.00     0.169 HD
BRANCH   8  11
HETATM   11  C5  UNL     1      26.042   5.686  49.029  1.00  0.00     0.032 A 
HETATM   12  C4  UNL     1      27.334   5.307  48.857  1.00  0.00     0.017 A 
HETATM   13  C3  UNL     1      28.143   6.112  48.038  1.00  0.00     0.007 A 
HETATM   14  C2  UNL     1      27.619   7.252  47.436  1.00  0.00    -0.062 A 
HETATM   15  C1  UNL     1      28.449   8.145  46.578  1.00  0.00     0.048 C 
HETATM   16  C19 UNL     1      26.269   7.529  47.694  1.00  0.00     0.007 A 
HETATM   17  C18 UNL     1      25.380   6.798  48.489  1.00  0.00     0.017 A 
ENDBRANCH   8  11
ENDBRANCH   1   7
BRANCH   5  18
HETATM   18  N2  UNL     1      25.262   0.449  53.471  1.00  0.00    -0.315 N 
HETATM   19  H10 UNL     1      24.743  -0.048  54.249  1.00  0.00     0.170 HD
BRANCH  18  20
HETATM   20  C12 UNL     1      26.578   0.226  53.826  1.00  0.00     0.282 A 
HETATM   21  N3  UNL     1      27.298   0.992  54.691  1.00  0.00    -0.215 NA
HETATM   22  C13 UNL     1      28.607   0.667  54.947  1.00  0.00     0.125 A 
HETATM   23  C14 UNL     1      29.108  -0.475  54.266  1.00  0.00     0.067 A 
HETATM   24  C15 UNL     1      28.404  -1.334  53.338  1.00  0.00     0.150 A 
HETATM   25  N4  UNL     1      27.514  -0.527  53.611  1.00  0.00    -0.366 NA
BRANCH  24  26
HETATM   26  C16 UNL     1      29.440  -2.271  53.021  1.00  0.00     0.303 C 
HETATM   27  O2  UNL     1      28.657  -3.147  53.498  1.00  0.00    -0.299 OA
ENDBRANCH  24  26
ENDBRANCH  18  20
ENDBRANCH   5  18
TORSDOF 5
ENDMDL
MODEL 4
REMARK VINA RESULT:      -8.2      2.335      2.980
REMARK  5 active torsions:
REMARK  status: ('A' for Active; 'I' for Inactive)
REMARK    1  A    between atoms: C5_5  and  C6_6 
REMARK       I    between atoms: C6_6  and  N1_8 
REMARK    2  A    between atoms: N1_8  and  C7_9 
REMARK    3  A    between atoms: C11_13  and  N2_14 
REMARK    4  A    between atoms: N2_14  and  C12_15 
REMARK    5  A    between atoms: C15_19  and  C16_20 
ROOT
HETATM    1  C7  UNL     1      22.321   0.209  52.519  1.00  0.00     0.037 A 
HETATM    2  C8  UNL     1      21.316  -0.176  53.399  1.00  0.00     0.029 A 
HETATM    3  C9  UNL     1      21.553  -0.754  54.613  1.00  0.00     0.004 A 
HETATM    4  C10 UNL     1      22.879  -0.925  54.900  1.00  0.00     0.029 A 
HETATM    5  C11 UNL     1      23.951  -0.582  54.111  1.00  0.00     0.038 A 
HETATM    6  C17 UNL     1      23.654  -0.006  52.896  1.00  0.00     0.059 A 
ENDROOT
BRANCH   1   7
HETATM    7  N1  UNL     1      22.255   0.874  51.258  1.00  0.00    -0.323 N 
HETATM    8  C6  UNL     1      22.574   2.204  50.911  1.00  0.00     0.256 C 
HETATM    9  O1  UNL     1      23.003   2.894  51.901  1.00  0.00    -0.267 OA
HETATM   10  H6  UNL     1      21.910   0.219  50.532  1.00  0.00     0.169 HD
BRANCH   8  11
HETATM   11  C5  UNL     1      22.441   2.772  49.549  1.00  0.00     0.032 A 
HETATM   12  C4  UNL     1      22.770   4.075  49.365  1.00  0.00     0.017 A 
HETATM   13  C3  UNL     1      22.595   4.615  48.080  1.00  0.00     0.007 A 
HETATM   14  C2  UNL     1      22.100   3.823  47.047  1.00  0.00    -0.062 A 
HETATM   15  C1  UNL     1      21.879   4.362  45.676  1.00  0.00     0.048 C 
HETATM   16  C19 UNL     1      21.802   2.492  47.371  1.00  0.00     0.007 A 
HETATM   17  C18 UNL     1      21.938   1.858  48.610  1.00  0.00     0.017 A 
ENDBRANCH   8  11
ENDBRANCH   1   7
BRANCH   5  18
HETATM   18  N2  UNL     1      25.294  -0.757  54.501  1.00  0.00    -0.315 N 
HETATM   19  H10 UNL     1      25.454  -1.255  55.421  1.00  0.00     0.170 HD
BRANCH  18  20
HETATM   20  C12 UNL     1      26.589  -0.507  54.089  1.00  0.00     0.282 A 
HETATM   21  N3  UNL     1      27.463  -1.447  53.636  1.00  0.00    -0.215 NA
HETATM   22  C13 UNL     1      28.731  -1.065  53.270  1.00  0.00     0.125 A 
HETATM   23  C14 UNL     1      29.024   0.319  53.400  1.00  0.00     0.067 A 
HETATM   24  C15 UNL     1      28.147   1.372  53.871  1.00  0.00     0.150 A 
HETATM   25  N4  UNL     1      27.397   0.399  53.965  1.00  0.00    -0.366 NA
BRANCH  24  26
HETATM   26  C16 UNL     1      29.022   2.500  53.761  1.00  0.00     0.303 C 
HETATM   27  O2  UNL     1      29.409   2.189  54.927  1.00  0.00    -0.299 OA
ENDBRANCH  24  26
ENDBRANCH  18  20
ENDBRANCH   5  18
TORSDOF 5
ENDMDL
MODEL 5
REMARK VINA RESULT:      -8.1      2.329      3.484
REMARK  5 active torsions:
REMARK  status: ('A' for Active; 'I' for Inactive)
REMARK    1  A    between atoms: C5_5  and  C6_6 
REMARK       I    between atoms: C6_6  and  N1_8 
REMARK    2  A    between atoms: N1_8  and  C7_9 
REMARK    3  A    between atoms: C11_13  and  N2_14 
REMARK    4  A    between atoms: N2_14  and  C12_15 
REMARK    5  A    between atoms: C15_19  and  C16_20 
ROOT
HETATM    1  C7  UNL     1      22.369   1.986  49.737  1.00  0.00     0.037 A 
HETATM    2  C8  UNL     1      21.123   1.911  49.124  1.00  0.00     0.029 A 
HETATM    3  C9  UNL     1      20.070   1.208  49.634  1.00  0.00     0.004 A 
HETATM    4  C10 UNL     1      20.342   0.576  50.816  1.00  0.00     0.029 A 
HETATM    5  C11 UNL     1      21.530   0.582  51.509  1.00  0.00     0.038 A 
HETATM    6  C17 UNL     1      22.558   1.304  50.946  1.00  0.00     0.059 A 
ENDROOT
BRANCH   1   7
HETATM    7  N1  UNL     1      23.543   2.715  49.380  1.00  0.00    -0.323 N 
HETATM    8  C6  UNL     1      23.900   4.054  49.644  1.00  0.00     0.256 C 
HETATM    9  O1  UNL     1      23.020   4.685  50.328  1.00  0.00    -0.267 OA
HETATM   10  H6  UNL     1      24.188   2.104  48.845  1.00  0.00     0.169 HD
BRANCH   8  11
HETATM   11  C5  UNL     1      25.159   4.693  49.195  1.00  0.00     0.032 A 
HETATM   12  C4  UNL     1      26.307   3.974  49.286  1.00  0.00     0.017 A 
HETATM   13  C3  UNL     1      27.501   4.606  48.902  1.00  0.00     0.007 A 
HETATM   14  C2  UNL     1      27.485   5.922  48.447  1.00  0.00    -0.062 A 
HETATM   15  C1  UNL     1      28.731   6.636  48.050  1.00  0.00     0.048 C 
HETATM   16  C19 UNL     1      26.232   6.549  48.399  1.00  0.00     0.007 A 
HETATM   17  C18 UNL     1      24.990   6.014  48.757  1.00  0.00     0.017 A 
ENDBRANCH   8  11
ENDBRANCH   1   7
BRANCH   5  18
HETATM   18  N2  UNL     1      21.714  -0.067  52.746  1.00  0.00    -0.315 N 
HETATM   19  H10 UNL     1      20.840  -0.427  53.222  1.00  0.00     0.170 HD
BRANCH  18  20
HETATM   20  C12 UNL     1      22.697  -0.448  53.639  1.00  0.00     0.282 A 
HETATM   21  N3  UNL     1      22.476  -1.067  54.831  1.00  0.00    -0.215 NA
HETATM   22  C13 UNL     1      23.545  -1.380  55.635  1.00  0.00     0.125 A 
HETATM   23  C14 UNL     1      24.824  -1.018  55.134  1.00  0.00     0.067 A 
HETATM   24  C15 UNL     1      25.134  -0.361  53.881  1.00  0.00     0.150 A 
HETATM   25  N4  UNL     1      23.906  -0.426  53.800  1.00  0.00    -0.366 NA
BRANCH  24  26
HETATM   26  C16 UNL     1      26.561  -0.288  53.978  1.00  0.00     0.303 C 
HETATM   27  O2  UNL     1      26.557  -1.436  53.439  1.00  0.00    -0.299 OA
ENDBRANCH  24  26
ENDBRANCH  18  20
ENDBRANCH   5  18
TORSDOF 5
ENDMDL
MODEL 6
REMARK VINA RESULT:      -7.9      3.474      7.655
REMARK  5 active torsions:
REMARK  status: ('A' for Active; 'I' for Inactive)
REMARK    1  A    between atoms: C5_5  and  C6_6 
REMARK       I    between atoms: C6_6  and  N1_8 
REMARK    2  A    between atoms: N1_8  and  C7_9 
REMARK    3  A    between atoms: C11_13  and  N2_14 
REMARK    4  A    between atoms: N2_14  and  C12_15 
REMARK    5  A    between atoms: C15_19  and  C16_20 
ROOT
HETATM    1  C7  UNL     1      24.336   4.239  49.994  1.00  0.00     0.037 A 
HETATM    2  C8  UNL     1      23.694   5.358  49.475  1.00  0.00     0.029 A 
HETATM    3  C9  UNL     1      24.331   6.336  48.767  1.00  0.00     0.004 A 
HETATM    4  C10 UNL     1      25.672   6.123  48.605  1.00  0.00     0.029 A 
HETATM    5  C11 UNL     1      26.408   5.058  49.070  1.00  0.00     0.038 A 
HETATM    6  C17 UNL     1      25.714   4.103  49.779  1.00  0.00     0.059 A 
ENDROOT
BRANCH   1   7
HETATM    7  N1  UNL     1      23.820   3.107  50.692  1.00  0.00    -0.323 N 
HETATM    8  C6  UNL     1      23.534   2.934  52.063  1.00  0.00     0.256 C 
HETATM    9  O1  UNL     1      23.769   3.980  52.763  1.00  0.00    -0.267 OA
HETATM   10  H6  UNL     1      23.654   2.329  50.027  1.00  0.00     0.169 HD
BRANCH   8  11
HETATM   11  C5  UNL     1      23.009   1.683  52.660  1.00  0.00     0.032 A 
HETATM   12  C4  UNL     1      21.669   1.575  52.840  1.00  0.00     0.017 A 
HETATM   13  C3  UNL     1      21.187   0.405  53.451  1.00  0.00     0.007 A 
HETATM   14  C2  UNL     1      22.071  -0.594  53.849  1.00  0.00    -0.062 A 
HETATM   15  C1  UNL     1      21.604  -1.840  54.519  1.00  0.00     0.048 C 
HETATM   16  C19 UNL     1      23.431  -0.358  53.603  1.00  0.00     0.007 A 
HETATM   17  C18 UNL     1      24.013   0.766  53.006  1.00  0.00     0.017 A 
ENDBRANCH   8  11
ENDBRANCH   1   7
BRANCH   5  18
HETATM   18  N2  UNL     1      27.785   4.894  48.823  1.00  0.00    -0.315 N 
HETATM   19  H10 UNL     1      28.205   3.966  49.107  1.00  0.00     0.170 HD
BRANCH  18  20
HETATM   20  C12 UNL     1      28.882   5.548  48.295  1.00  0.00     0.282 A 
HETATM   21  N3  UNL     1      28.839   6.724  47.610  1.00  0.00    -0.215 NA
HETATM   22  C13 UNL     1      30.006   7.261  47.124  1.00  0.00     0.125 A 
HETATM   23  C14 UNL     1      31.189   6.520  47.389  1.00  0.00     0.067 A 
HETATM   24  C15 UNL     1      31.309   5.268  48.109  1.00  0.00     0.150 A 
HETATM   25  N4  UNL     1      30.092   5.448  48.179  1.00  0.00    -0.366 NA
BRANCH  24  26
HETATM   26  C16 UNL     1      32.724   5.062  48.026  1.00  0.00     0.303 C 
HETATM   27  O2  UNL     1      32.453   3.831  48.162  1.00  0.00    -0.299 OA
ENDBRANCH  24  26
ENDBRANCH  18  20
ENDBRANCH   5  18
TORSDOF 5
ENDMDL
MODEL 7
REMARK VINA RESULT:      -7.8      2.021      4.854
REMARK  5 active torsions:
REMARK  status: ('A' for Active; 'I' for Inactive)
REMARK    1  A    between atoms: C5_5  and  C6_6 
REMARK       I    between atoms: C6_6  and  N1_8 
REMARK    2  A    between atoms: N1_8  and  C7_9 
REMARK    3  A    between atoms: C11_13  and  N2_14 
REMARK    4  A    between atoms: N2_14  and  C12_15 
REMARK    5  A    between atoms: C15_19  and  C16_20 
ROOT
HETATM    1  C7  UNL     1      26.706   2.234  52.264  1.00  0.00     0.037 A 
HETATM    2  C8  UNL     1      27.926   1.825  52.792  1.00  0.00     0.029 A 
HETATM    3  C9  UNL     1      28.096   0.670  53.498  1.00  0.00     0.004 A 
HETATM    4  C10 UNL     1      26.954  -0.068  53.644  1.00  0.00     0.029 A 
HETATM    5  C11 UNL     1      25.701   0.236  53.166  1.00  0.00     0.038 A 
HETATM    6  C17 UNL     1      25.587   1.415  52.464  1.00  0.00     0.059 A 
ENDROOT
BRANCH   1   7
HETATM    7  N1  UNL     1      26.368   3.363  51.460  1.00  0.00    -0.323 N 
HETATM    8  C6  UNL     1      26.493   3.561  50.068  1.00  0.00     0.256 C 
HETATM    9  O1  UNL     1      26.974   2.545  49.455  1.00  0.00    -0.267 OA
HETATM   10  H6  UNL     1      25.976   4.116  52.055  1.00  0.00     0.169 HD
BRANCH   8  11
HETATM   11  C5  UNL     1      26.111   4.805  49.358  1.00  0.00     0.032 A 
HETATM   12  C4  UNL     1      24.794   5.121  49.288  1.00  0.00     0.017 A 
HETATM   13  C3  UNL     1      24.440   6.277  48.572  1.00  0.00     0.007 A 
HETATM   14  C2  UNL     1      25.422   7.055  47.966  1.00  0.00    -0.062 A 
HETATM   15  C1  UNL     1      25.088   8.277  47.180  1.00  0.00     0.048 C 
HETATM   16  C19 UNL     1      26.746   6.618  48.118  1.00  0.00     0.007 A 
HETATM   17  C18 UNL     1      27.204   5.489  48.804  1.00  0.00     0.017 A 
ENDBRANCH   8  11
ENDBRANCH   1   7
BRANCH   5  18
HETATM   18  N2  UNL     1      24.580  -0.602  53.328  1.00  0.00    -0.315 N 
HETATM   19  H10 UNL     1      24.774  -1.641  53.377  1.00  0.00     0.170 HD
BRANCH  18  20
HETATM   20  C12 UNL     1      23.206  -0.567  53.468  1.00  0.00     0.282 A 
HETATM   21  N3  UNL     1      22.490  -1.298  54.367  1.00  0.00    -0.215 NA
HETATM   22  C13 UNL     1      21.122  -1.179  54.392  1.00  0.00     0.125 A 
HETATM   23  C14 UNL     1      20.560  -0.277  53.449  1.00  0.00     0.067 A 
HETATM   24  C15 UNL     1      21.256   0.529  52.468  1.00  0.00     0.150 A 
HETATM   25  N4  UNL     1      22.208  -0.045  52.999  1.00  0.00    -0.366 NA
BRANCH  24  26
HETATM   26  C16 UNL     1      20.147   1.195  51.853  1.00  0.00     0.303 C 
HETATM   27  O2  UNL     1      20.399   0.469  50.844  1.00  0.00    -0.299 OA
ENDBRANCH  24  26
ENDBRANCH  18  20
ENDBRANCH   5  18
TORSDOF 5
ENDMDL
MODEL 8
REMARK VINA RESULT:      -7.7      3.701      8.005
REMARK  5 active torsions:
REMARK  status: ('A' for Active; 'I' for Inactive)
REMARK    1  A    between atoms: C5_5  and  C6_6 
REMARK       I    between atoms: C6_6  and  N1_8 
REMARK    2  A    between atoms: N1_8  and  C7_9 
REMARK    3  A    between atoms: C11_13  and  N2_14 
REMARK    4  A    between atoms: N2_14  and  C12_15 
REMARK    5  A    between atoms: C15_19  and  C16_20 
ROOT
HETATM    1  C7  UNL     1      21.955  -0.395  52.972  1.00  0.00     0.037 A 
HETATM    2  C8  UNL     1      20.878  -0.706  53.796  1.00  0.00     0.029 A 
HETATM    3  C9  UNL     1      19.574  -0.510  53.443  1.00  0.00     0.004 A 
HETATM    4  C10 UNL     1      19.408   0.022  52.195  1.00  0.00     0.029 A 
HETATM    5  C11 UNL     1      20.393   0.365  51.299  1.00  0.00     0.038 A 
HETATM    6  C17 UNL     1      21.690   0.149  51.708  1.00  0.00     0.059 A 
ENDROOT
BRANCH   1   7
HETATM    7  N1  UNL     1      23.356  -0.591  53.154  1.00  0.00    -0.323 N 
HETATM    8  C6  UNL     1      24.392   0.351  53.334  1.00  0.00     0.256 C 
HETATM    9  O1  UNL     1      23.976   1.562  53.348  1.00  0.00    -0.267 OA
HETATM   10  H6  UNL     1      23.576  -1.604  53.140  1.00  0.00     0.169 HD
BRANCH   8  11
HETATM   11  C5  UNL     1      25.824   0.004  53.498  1.00  0.00     0.032 A 
HETATM   12  C4  UNL     1      26.517   0.610  54.494  1.00  0.00     0.017 A 
HETATM   13  C3  UNL     1      27.884   0.309  54.610  1.00  0.00     0.007 A 
HETATM   14  C2  UNL     1      28.485  -0.581  53.724  1.00  0.00    -0.062 A 
HETATM   15  C1  UNL     1      29.937  -0.910  53.799  1.00  0.00     0.048 C 
HETATM   16  C19 UNL     1      27.654  -1.139  52.742  1.00  0.00     0.007 A 
HETATM   17  C18 UNL     1      26.290  -0.908  52.540  1.00  0.00     0.017 A 
ENDBRANCH   8  11
ENDBRANCH   1   7
BRANCH   5  18
HETATM   18  N2  UNL     1      20.133   0.874  50.011  1.00  0.00    -0.315 N 
HETATM   19  H10 UNL     1      19.179   0.661  49.606  1.00  0.00     0.170 HD
BRANCH  18  20
HETATM   20  C12 UNL     1      20.707   1.619  48.999  1.00  0.00     0.282 A 
HETATM   21  N3  UNL     1      21.940   1.398  48.465  1.00  0.00    -0.215 NA
HETATM   22  C13 UNL     1      22.399   2.225  47.469  1.00  0.00     0.125 A 
HETATM   23  C14 UNL     1      21.518   3.266  47.072  1.00  0.00     0.067 A 
HETATM   24  C15 UNL     1      20.198   3.559  47.591  1.00  0.00     0.150 A 
HETATM   25  N4  UNL     1      20.495   2.580  48.278  1.00  0.00    -0.366 NA
BRANCH  24  26
HETATM   26  C16 UNL     1      19.857   4.697  46.791  1.00  0.00     0.303 C 
HETATM   27  O2  UNL     1      20.715   5.319  47.487  1.00  0.00    -0.299 OA
ENDBRANCH  24  26
ENDBRANCH  18  20
ENDBRANCH   5  18
TORSDOF 5
ENDMDL
MODEL 9
REMARK VINA RESULT:      -7.7      3.274      7.540
REMARK  5 active torsions:
REMARK  status: ('A' for Active; 'I' for Inactive)
REMARK    1  A    between atoms: C5_5  and  C6_6 
REMARK       I    between atoms: C6_6  and  N1_8 
REMARK    2  A    between atoms: N1_8  and  C7_9 
REMARK    3  A    between atoms: C11_13  and  N2_14 
REMARK    4  A    between atoms: N2_14  and  C12_15 
REMARK    5  A    between atoms: C15_19  and  C16_20 
ROOT
HETATM    1  C7  UNL     1      24.435   1.547  52.411  1.00  0.00     0.037 A 
HETATM    2  C8  UNL     1      25.329   1.480  53.474  1.00  0.00     0.029 A 
HETATM    3  C9  UNL     1      26.629   1.888  53.398  1.00  0.00     0.004 A 
HETATM    4  C10 UNL     1      26.987   2.381  52.173  1.00  0.00     0.029 A 
HETATM    5  C11 UNL     1      26.191   2.496  51.058  1.00  0.00     0.038 A 
HETATM    6  C17 UNL     1      24.890   2.065  51.191  1.00  0.00     0.059 A 
ENDROOT
BRANCH   1   7
HETATM    7  N1  UNL     1      23.046   1.228  52.337  1.00  0.00    -0.323 N 
HETATM    8  C6  UNL     1      22.364   0.043  52.687  1.00  0.00     0.256 C 
HETATM    9  O1  UNL     1      23.136  -0.864  53.156  1.00  0.00    -0.267 OA
HETATM   10  H6  UNL     1      22.518   2.036  51.959  1.00  0.00     0.169 HD
BRANCH   8  11
HETATM   11  C5  UNL     1      20.903  -0.159  52.541  1.00  0.00     0.032 A 
HETATM   12  C4  UNL     1      20.290   0.374  51.454  1.00  0.00     0.017 A 
HETATM   13  C3  UNL     1      18.898   0.216  51.352  1.00  0.00     0.007 A 
HETATM   14  C2  UNL     1      18.192  -0.464  52.341  1.00  0.00    -0.062 A 
HETATM   15  C1  UNL     1      16.713  -0.634  52.281  1.00  0.00     0.048 C 
HETATM   16  C19 UNL     1      18.947  -0.967  53.410  1.00  0.00     0.007 A 
HETATM   17  C18 UNL     1      20.328  -0.866  53.608  1.00  0.00     0.017 A 
ENDBRANCH   8  11
ENDBRANCH   1   7
BRANCH   5  18
HETATM   18  N2  UNL     1      26.630   3.054  49.841  1.00  0.00    -0.315 N 
HETATM   19  H10 UNL     1      26.748   2.381  49.032  1.00  0.00     0.170 HD
BRANCH  18  20
HETATM   20  C12 UNL     1      26.986   4.256  49.259  1.00  0.00     0.282 A 
HETATM   21  N3  UNL     1      26.139   5.297  49.030  1.00  0.00    -0.215 NA
HETATM   22  C13 UNL     1      26.619   6.434  48.429  1.00  0.00     0.125 A 
HETATM   23  C14 UNL     1      28.000   6.422  48.092  1.00  0.00     0.067 A 
HETATM   24  C15 UNL     1      28.956   5.356  48.306  1.00  0.00     0.150 A 
HETATM   25  N4  UNL     1      27.941   4.841  48.775  1.00  0.00    -0.366 NA
BRANCH  24  26
HETATM   26  C16 UNL     1      30.135   5.959  47.759  1.00  0.00     0.303 C 
HETATM   27  O2  UNL     1      29.910   6.904  48.574  1.00  0.00    -0.299 OA
ENDBRANCH  24  26
ENDBRANCH  18  20
ENDBRANCH   5  18
TORSDOF 5
ENDMDL
