MODEL 1
REMARK VINA RESULT:      -7.1      0.000      0.000
REMARK  10 active torsions:
REMARK  status: ('A' for Active; 'I' for Inactive)
REMARK    1  A    between atoms: N1_2  and  C3_4 
REMARK    2  A    between atoms: C3_4  and  C4_5 
REMARK    3  A    between atoms: C4_5  and  N2_6 
REMARK    4  A    between atoms: N2_6  and  C5_7 
REMARK    5  A    between atoms: C8_11  and  C9_12 
REMARK    6  A    between atoms: C9_12  and  N4_13 
REMARK    7  A    between atoms: C10_14  and  C11_15 
REMARK    8  A    between atoms: C11_15  and  N5_16 
REMARK    9  A    between atoms: N5_16  and  C12_17 
REMARK   10  A    between atoms: C12_17  and  C13_18 
ROOT
HETATM    1  C5  UNL     1      24.243  -0.923  54.596  1.00  0.00     0.046 A 
HETATM    2  C6  UNL     1      23.379  -1.516  55.503  1.00  0.00     0.145 A 
HETATM    3  N3  UNL     1      22.050  -1.561  55.299  1.00  0.00    -0.270 NA
HETATM    4  C7  UNL     1      21.500  -1.024  54.194  1.00  0.00     0.125 A 
HETATM    5  C8  UNL     1      22.283  -0.408  53.231  1.00  0.00    -0.019 A 
HETATM    6  C19 UNL     1      23.655  -0.375  53.463  1.00  0.00     0.041 A 
ENDROOT
BRANCH   5   7
HETATM    7  C9  UNL     1      21.734   0.209  51.976  1.00  0.00     0.188 C 
BRANCH   7   8
HETATM    8  N4  UNL     1      21.263   1.529  52.348  1.00  0.00    -0.299 NA
HETATM    9  C10 UNL     1      21.828   2.610  51.946  1.00  0.00     0.113 C 
BRANCH   9  10
HETATM   10  C11 UNL     1      22.947   3.043  51.124  1.00  0.00     0.335 C 
BRANCH  10  11
HETATM   11  N5  UNL     1      23.767   3.745  50.437  1.00  0.00    -0.433 NA
BRANCH  11  12
HETATM   12  C12 UNL     1      25.131   3.288  50.177  1.00  0.00     0.142 C 
BRANCH  12  13
HETATM   13  C13 UNL     1      25.820   4.426  49.473  1.00  0.00    -0.040 A 
HETATM   14  C14 UNL     1      25.075   5.562  49.194  1.00  0.00     0.009 A 
HETATM   15  C15 UNL     1      25.681   6.639  48.541  1.00  0.00     0.002 A 
HETATM   16  C16 UNL     1      27.028   6.551  48.183  1.00  0.00     0.024 A 
HETATM   17  C17 UNL     1      27.769   5.400  48.470  1.00  0.00     0.034 A 
HETATM   18 CL1  UNL     1      29.473   5.330  47.999  1.00  0.00    -0.084 Cl
HETATM   19  C18 UNL     1      27.163   4.329  49.121  1.00  0.00     0.032 A 
ENDBRANCH  12  13
ENDBRANCH  11  12
ENDBRANCH  10  11
ENDBRANCH   9  10
ENDBRANCH   7   8
ENDBRANCH   5   7
BRANCH   1  20
HETATM   20  N2  UNL     1      25.664  -0.862  54.787  1.00  0.00    -0.387 N 
HETATM   21  H11 UNL     1      26.135  -1.796  54.936  1.00  0.00     0.159 HD
BRANCH  20  22
HETATM   22  C4  UNL     1      26.391   0.370  54.780  1.00  0.00     0.150 C 
BRANCH  22  23
HETATM   23  C3  UNL     1      27.885   0.036  54.859  1.00  0.00     0.290 C 
BRANCH  23  24
HETATM   24  N1  UNL     1      28.464   0.432  53.589  1.00  0.00     0.081 N 
HETATM   25  C1  UNL     1      28.132   1.816  53.268  1.00  0.00     0.309 C 
HETATM   26  C2  UNL     1      29.881   0.209  53.577  1.00  0.00     0.309 C 
ENDBRANCH  23  24
ENDBRANCH  22  23
ENDBRANCH  20  22
ENDBRANCH   1  20
TORSDOF 10
ENDMDL
MODEL 2
REMARK VINA RESULT:      -7.0      1.840      2.576
REMARK  10 active torsions:
REMARK  status: ('A' for Active; 'I' for Inactive)
REMARK    1  A    between atoms: N1_2  and  C3_4 
REMARK    2  A    between atoms: C3_4  and  C4_5 
REMARK    3  A    between atoms: C4_5  and  N2_6 
REMARK    4  A    between atoms: N2_6  and  C5_7 
REMARK    5  A    between atoms: C8_11  and  C9_12 
REMARK    6  A    between atoms: C9_12  and  N4_13 
REMARK    7  A    between atoms: C10_14  and  C11_15 
REMARK    8  A    between atoms: C11_15  and  N5_16 
REMARK    9  A    between atoms: N5_16  and  C12_17 
REMARK   10  A    between atoms: C12_17  and  C13_18 
ROOT
HETATM    1  C5  UNL     1      23.826  -0.921  54.629  1.00  0.00     0.046 A 
HETATM    2  C6  UNL     1      22.903  -1.621  55.391  1.00  0.00     0.145 A 
HETATM    3  N3  UNL     1      21.586  -1.593  55.120  1.00  0.00    -0.270 NA
HETATM    4  C7  UNL     1      21.106  -0.876  54.087  1.00  0.00     0.125 A 
HETATM    5  C8  UNL     1      21.951  -0.144  53.270  1.00  0.00    -0.019 A 
HETATM    6  C19 UNL     1      23.310  -0.188  53.569  1.00  0.00     0.041 A 
ENDROOT
BRANCH   5   7
HETATM    7  C9  UNL     1      21.481   0.675  52.101  1.00  0.00     0.188 C 
BRANCH   7   8
HETATM    8  N4  UNL     1      20.249   1.313  52.524  1.00  0.00    -0.299 NA
HETATM    9  C10 UNL     1      19.981   2.545  52.278  1.00  0.00     0.113 C 
BRANCH   9  10
HETATM   10  C11 UNL     1      20.569   3.705  51.625  1.00  0.00     0.335 C 
BRANCH  10  11
HETATM   11  N5  UNL     1      21.390   4.533  51.099  1.00  0.00    -0.433 NA
BRANCH  11  12
HETATM   12  C12 UNL     1      22.421   5.194  51.895  1.00  0.00     0.142 C 
BRANCH  12  13
HETATM   13  C13 UNL     1      23.637   4.311  51.812  1.00  0.00    -0.040 A 
HETATM   14  C14 UNL     1      23.901   3.470  52.884  1.00  0.00     0.009 A 
HETATM   15  C15 UNL     1      25.020   2.635  52.844  1.00  0.00     0.002 A 
HETATM   16  C16 UNL     1      25.854   2.662  51.723  1.00  0.00     0.024 A 
HETATM   17  C17 UNL     1      25.577   3.514  50.649  1.00  0.00     0.034 A 
HETATM   18 CL1  UNL     1      26.659   3.518  49.248  1.00  0.00    -0.084 Cl
HETATM   19  C18 UNL     1      24.460   4.345  50.692  1.00  0.00     0.032 A 
ENDBRANCH  12  13
ENDBRANCH  11  12
ENDBRANCH  10  11
ENDBRANCH   9  10
ENDBRANCH   7   8
ENDBRANCH   5   7
BRANCH   1  20
HETATM   20  N2  UNL     1      25.237  -0.933  54.895  1.00  0.00    -0.387 N 
HETATM   21  H11 UNL     1      25.507  -1.280  55.856  1.00  0.00     0.159 HD
BRANCH  20  22
HETATM   22  C4  UNL     1      26.206  -0.508  53.933  1.00  0.00     0.150 C 
BRANCH  22  23
HETATM   23  C3  UNL     1      27.304   0.259  54.678  1.00  0.00     0.290 C 
BRANCH  23  24
HETATM   24  N1  UNL     1      28.328   0.569  53.698  1.00  0.00     0.081 N 
HETATM   25  C1  UNL     1      28.769   1.954  53.817  1.00  0.00     0.309 C 
HETATM   26  C2  UNL     1      29.427  -0.349  53.794  1.00  0.00     0.309 C 
ENDBRANCH  23  24
ENDBRANCH  22  23
ENDBRANCH  20  22
ENDBRANCH   1  20
TORSDOF 10
ENDMDL
MODEL 3
REMARK VINA RESULT:      -6.9      2.095      6.094
REMARK  10 active torsions:
REMARK  status: ('A' for Active; 'I' for Inactive)
REMARK    1  A    between atoms: N1_2  and  C3_4 
REMARK    2  A    between atoms: C3_4  and  C4_5 
REMARK    3  A    between atoms: C4_5  and  N2_6 
REMARK    4  A    between atoms: N2_6  and  C5_7 
REMARK    5  A    between atoms: C8_11  and  C9_12 
REMARK    6  A    between atoms: C9_12  and  N4_13 
REMARK    7  A    between atoms: C10_14  and  C11_15 
REMARK    8  A    between atoms: C11_15  and  N5_16 
REMARK    9  A    between atoms: N5_16  and  C12_17 
REMARK   10  A    between atoms: C12_17  and  C13_18 
ROOT
HETATM    1  C5  UNL     1      23.912   3.262  51.929  1.00  0.00     0.046 A 
HETATM    2  C6  UNL     1      22.893   4.184  52.118  1.00  0.00     0.145 A 
HETATM    3  N3  UNL     1      21.608   3.811  52.255  1.00  0.00    -0.270 NA
HETATM    4  C7  UNL     1      21.256   2.513  52.213  1.00  0.00     0.125 A 
HETATM    5  C8  UNL     1      22.203   1.519  52.028  1.00  0.00    -0.019 A 
HETATM    6  C19 UNL     1      23.526   1.929  51.889  1.00  0.00     0.041 A 
ENDROOT
BRANCH   5   7
HETATM    7  C9  UNL     1      21.877   0.053  51.973  1.00  0.00     0.188 C 
BRANCH   7   8
HETATM    8  N4  UNL     1      21.443  -0.315  53.306  1.00  0.00    -0.299 NA
HETATM    9  C10 UNL     1      22.263  -0.603  54.252  1.00  0.00     0.113 C 
BRANCH   9  10
HETATM   10  C11 UNL     1      23.694  -0.705  54.494  1.00  0.00     0.335 C 
BRANCH  10  11
HETATM   11  N5  UNL     1      24.957  -0.845  54.347  1.00  0.00    -0.433 NA
BRANCH  11  12
HETATM   12  C12 UNL     1      25.580  -0.808  53.026  1.00  0.00     0.142 C 
BRANCH  12  13
HETATM   13  C13 UNL     1      27.057  -0.648  53.270  1.00  0.00    -0.040 A 
HETATM   14  C14 UNL     1      27.876  -1.739  53.022  1.00  0.00     0.009 A 
HETATM   15  C15 UNL     1      29.253  -1.629  53.236  1.00  0.00     0.002 A 
HETATM   16  C16 UNL     1      29.778  -0.420  53.697  1.00  0.00     0.024 A 
HETATM   17  C17 UNL     1      28.942   0.674  53.943  1.00  0.00     0.034 A 
HETATM   18 CL1  UNL     1      29.648   2.188  54.526  1.00  0.00    -0.084 Cl
HETATM   19  C18 UNL     1      27.570   0.561  53.728  1.00  0.00     0.032 A 
ENDBRANCH  12  13
ENDBRANCH  11  12
ENDBRANCH  10  11
ENDBRANCH   9  10
ENDBRANCH   7   8
ENDBRANCH   5   7
BRANCH   1  20
HETATM   20  N2  UNL     1      25.290   3.632  51.781  1.00  0.00    -0.387 N 
HETATM   21  H11 UNL     1      25.575   4.509  52.298  1.00  0.00     0.159 HD
BRANCH  20  22
HETATM   22  C4  UNL     1      26.211   2.873  50.993  1.00  0.00     0.150 C 
BRANCH  22  23
HETATM   23  C3  UNL     1      26.047   3.305  49.531  1.00  0.00     0.290 C 
BRANCH  23  24
HETATM   24  N1  UNL     1      26.375   4.718  49.479  1.00  0.00     0.081 N 
HETATM   25  C1  UNL     1      27.552   4.954  48.650  1.00  0.00     0.309 C 
HETATM   26  C2  UNL     1      25.250   5.492  49.040  1.00  0.00     0.309 C 
ENDBRANCH  23  24
ENDBRANCH  22  23
ENDBRANCH  20  22
ENDBRANCH   1  20
TORSDOF 10
ENDMDL
MODEL 4
REMARK VINA RESULT:      -6.6      3.630      8.520
REMARK  10 active torsions:
REMARK  status: ('A' for Active; 'I' for Inactive)
REMARK    1  A    between atoms: N1_2  and  C3_4 
REMARK    2  A    between atoms: C3_4  and  C4_5 
REMARK    3  A    between atoms: C4_5  and  N2_6 
REMARK    4  A    between atoms: N2_6  and  C5_7 
REMARK    5  A    between atoms: C8_11  and  C9_12 
REMARK    6  A    between atoms: C9_12  and  N4_13 
REMARK    7  A    between atoms: C10_14  and  C11_15 
REMARK    8  A    between atoms: C11_15  and  N5_16 
REMARK    9  A    between atoms: N5_16  and  C12_17 
REMARK   10  A    between atoms: C12_17  and  C13_18 
ROOT
HETATM    1  C5  UNL     1      27.338   6.081  48.483  1.00  0.00     0.046 A 
HETATM    2  C6  UNL     1      26.261   6.868  48.864  1.00  0.00     0.145 A 
HETATM    3  N3  UNL     1      25.259   6.389  49.623  1.00  0.00    -0.270 NA
HETATM    4  C7  UNL     1      25.261   5.111  50.046  1.00  0.00     0.125 A 
HETATM    5  C8  UNL     1      26.294   4.248  49.716  1.00  0.00    -0.019 A 
HETATM    6  C19 UNL     1      27.320   4.766  48.931  1.00  0.00     0.041 A 
ENDROOT
BRANCH   5   7
HETATM    7  C9  UNL     1      26.357   2.813  50.156  1.00  0.00     0.188 C 
BRANCH   7   8
HETATM    8  N4  UNL     1      27.273   2.776  51.281  1.00  0.00    -0.299 NA
HETATM    9  C10 UNL     1      27.132   1.965  52.267  1.00  0.00     0.113 C 
BRANCH   9  10
HETATM   10  C11 UNL     1      26.242   0.910  52.725  1.00  0.00     0.335 C 
BRANCH  10  11
HETATM   11  N5  UNL     1      25.384  -0.037  52.774  1.00  0.00    -0.433 NA
BRANCH  11  12
HETATM   12  C12 UNL     1      24.821  -0.492  54.044  1.00  0.00     0.142 C 
BRANCH  12  13
HETATM   13  C13 UNL     1      23.331  -0.555  53.837  1.00  0.00    -0.040 A 
HETATM   14  C14 UNL     1      22.564  -1.137  54.834  1.00  0.00     0.009 A 
HETATM   15  C15 UNL     1      21.177  -1.214  54.678  1.00  0.00     0.002 A 
HETATM   16  C16 UNL     1      20.590  -0.701  53.519  1.00  0.00     0.024 A 
HETATM   17  C17 UNL     1      21.376  -0.116  52.520  1.00  0.00     0.034 A 
HETATM   18 CL1  UNL     1      20.592   0.521  51.067  1.00  0.00    -0.084 Cl
HETATM   19  C18 UNL     1      22.757  -0.040  52.679  1.00  0.00     0.032 A 
ENDBRANCH  12  13
ENDBRANCH  11  12
ENDBRANCH  10  11
ENDBRANCH   9  10
ENDBRANCH   7   8
ENDBRANCH   5   7
BRANCH   1  20
HETATM   20  N2  UNL     1      28.420   6.566  47.676  1.00  0.00    -0.387 N 
HETATM   21  H11 UNL     1      28.128   7.085  46.802  1.00  0.00     0.159 HD
BRANCH  20  22
HETATM   22  C4  UNL     1      29.792   6.364  48.024  1.00  0.00     0.150 C 
BRANCH  22  23
HETATM   23  C3  UNL     1      30.318   7.664  48.642  1.00  0.00     0.290 C 
BRANCH  23  24
HETATM   24  N1  UNL     1      31.507   7.310  49.397  1.00  0.00     0.081 N 
HETATM   25  C1  UNL     1      31.678   5.863  49.461  1.00  0.00     0.309 C 
HETATM   26  C2  UNL     1      32.669   7.961  48.863  1.00  0.00     0.309 C 
ENDBRANCH  23  24
ENDBRANCH  22  23
ENDBRANCH  20  22
ENDBRANCH   1  20
TORSDOF 10
ENDMDL
MODEL 5
REMARK VINA RESULT:      -6.6      1.538      2.181
REMARK  10 active torsions:
REMARK  status: ('A' for Active; 'I' for Inactive)
REMARK    1  A    between atoms: N1_2  and  C3_4 
REMARK    2  A    between atoms: C3_4  and  C4_5 
REMARK    3  A    between atoms: C4_5  and  N2_6 
REMARK    4  A    between atoms: N2_6  and  C5_7 
REMARK    5  A    between atoms: C8_11  and  C9_12 
REMARK    6  A    between atoms: C9_12  and  N4_13 
REMARK    7  A    between atoms: C10_14  and  C11_15 
REMARK    8  A    between atoms: C11_15  and  N5_16 
REMARK    9  A    between atoms: N5_16  and  C12_17 
REMARK   10  A    between atoms: C12_17  and  C13_18 
ROOT
HETATM    1  C5  UNL     1      24.587   0.562  52.691  1.00  0.00     0.046 A 
HETATM    2  C6  UNL     1      23.745  -0.201  53.487  1.00  0.00     0.145 A 
HETATM    3  N3  UNL     1      22.421   0.028  53.552  1.00  0.00    -0.270 NA
HETATM    4  C7  UNL     1      21.855   1.020  52.840  1.00  0.00     0.125 A 
HETATM    5  C8  UNL     1      22.615   1.836  52.017  1.00  0.00    -0.019 A 
HETATM    6  C19 UNL     1      23.982   1.579  51.965  1.00  0.00     0.041 A 
ENDROOT
BRANCH   5   7
HETATM    7  C9  UNL     1      22.045   2.958  51.196  1.00  0.00     0.188 C 
BRANCH   7   8
HETATM    8  N4  UNL     1      22.068   4.133  52.046  1.00  0.00    -0.299 NA
HETATM    9  C10 UNL     1      22.905   5.094  51.884  1.00  0.00     0.113 C 
BRANCH   9  10
HETATM   10  C11 UNL     1      24.007   5.479  51.016  1.00  0.00     0.335 C 
BRANCH  10  11
HETATM   11  N5  UNL     1      25.159   5.595  50.473  1.00  0.00    -0.433 NA
BRANCH  11  12
HETATM   12  C12 UNL     1      25.489   4.905  49.228  1.00  0.00     0.142 C 
BRANCH  12  13
HETATM   13  C13 UNL     1      26.643   5.662  48.628  1.00  0.00    -0.040 A 
HETATM   14  C14 UNL     1      26.397   6.936  48.139  1.00  0.00     0.009 A 
HETATM   15  C15 UNL     1      27.444   7.671  47.576  1.00  0.00     0.002 A 
HETATM   16  C16 UNL     1      28.721   7.107  47.516  1.00  0.00     0.024 A 
HETATM   17  C17 UNL     1      28.956   5.820  48.013  1.00  0.00     0.034 A 
HETATM   18 CL1  UNL     1      30.588   5.142  47.918  1.00  0.00    -0.084 Cl
HETATM   19  C18 UNL     1      27.911   5.091  48.575  1.00  0.00     0.032 A 
ENDBRANCH  12  13
ENDBRANCH  11  12
ENDBRANCH  10  11
ENDBRANCH   9  10
ENDBRANCH   7   8
ENDBRANCH   5   7
BRANCH   1  20
HETATM   20  N2  UNL     1      26.001   0.338  52.602  1.00  0.00    -0.387 N 
HETATM   21  H11 UNL     1      26.294  -0.403  51.908  1.00  0.00     0.159 HD
BRANCH  20  22
HETATM   22  C4  UNL     1      26.947   1.062  53.394  1.00  0.00     0.150 C 
BRANCH  22  23
HETATM   23  C3  UNL     1      27.382   0.157  54.553  1.00  0.00     0.290 C 
BRANCH  23  24
HETATM   24  N1  UNL     1      28.825   0.276  54.650  1.00  0.00     0.081 N 
HETATM   25  C1  UNL     1      29.492  -0.752  53.859  1.00  0.00     0.309 C 
HETATM   26  C2  UNL     1      29.259   1.594  54.284  1.00  0.00     0.309 C 
ENDBRANCH  23  24
ENDBRANCH  22  23
ENDBRANCH  20  22
ENDBRANCH   1  20
TORSDOF 10
ENDMDL
MODEL 6
REMARK VINA RESULT:      -6.6      2.304      6.732
REMARK  10 active torsions:
REMARK  status: ('A' for Active; 'I' for Inactive)
REMARK    1  A    between atoms: N1_2  and  C3_4 
REMARK    2  A    between atoms: C3_4  and  C4_5 
REMARK    3  A    between atoms: C4_5  and  N2_6 
REMARK    4  A    between atoms: N2_6  and  C5_7 
REMARK    5  A    between atoms: C8_11  and  C9_12 
REMARK    6  A    between atoms: C9_12  and  N4_13 
REMARK    7  A    between atoms: C10_14  and  C11_15 
REMARK    8  A    between atoms: C11_15  and  N5_16 
REMARK    9  A    between atoms: N5_16  and  C12_17 
REMARK   10  A    between atoms: C12_17  and  C13_18 
ROOT
HETATM    1  C5  UNL     1      27.201   2.303  52.404  1.00  0.00     0.046 A 
HETATM    2  C6  UNL     1      28.254   2.388  53.301  1.00  0.00     0.145 A 
HETATM    3  N3  UNL     1      28.439   1.477  54.274  1.00  0.00    -0.270 NA
HETATM    4  C7  UNL     1      27.597   0.436  54.417  1.00  0.00     0.125 A 
HETATM    5  C8  UNL     1      26.515   0.268  53.568  1.00  0.00    -0.019 A 
HETATM    6  C19 UNL     1      26.345   1.222  52.569  1.00  0.00     0.041 A 
ENDROOT
BRANCH   5   7
HETATM    7  C9  UNL     1      25.540  -0.871  53.673  1.00  0.00     0.188 C 
BRANCH   7   8
HETATM    8  N4  UNL     1      25.482  -1.226  55.078  1.00  0.00    -0.299 NA
HETATM    9  C10 UNL     1      24.379  -1.317  55.729  1.00  0.00     0.113 C 
BRANCH   9  10
HETATM   10  C11 UNL     1      22.947  -1.166  55.522  1.00  0.00     0.335 C 
BRANCH  10  11
HETATM   11  N5  UNL     1      21.777  -1.139  55.006  1.00  0.00    -0.433 NA
BRANCH  11  12
HETATM   12  C12 UNL     1      21.551  -1.509  53.610  1.00  0.00     0.142 C 
BRANCH  12  13
HETATM   13  C13 UNL     1      21.288  -0.220  52.879  1.00  0.00    -0.040 A 
HETATM   14  C14 UNL     1      20.662   0.803  53.575  1.00  0.00     0.009 A 
HETATM   15  C15 UNL     1      20.401   2.015  52.930  1.00  0.00     0.002 A 
HETATM   16  C16 UNL     1      20.776   2.173  51.594  1.00  0.00     0.024 A 
HETATM   17  C17 UNL     1      21.407   1.134  50.903  1.00  0.00     0.034 A 
HETATM   18 CL1  UNL     1      21.867   1.375  49.211  1.00  0.00    -0.084 Cl
HETATM   19  C18 UNL     1      21.667  -0.072  51.549  1.00  0.00     0.032 A 
ENDBRANCH  12  13
ENDBRANCH  11  12
ENDBRANCH  10  11
ENDBRANCH   9  10
ENDBRANCH   7   8
ENDBRANCH   5   7
BRANCH   1  20
HETATM   20  N2  UNL     1      26.981   3.259  51.356  1.00  0.00    -0.387 N 
HETATM   21  H11 UNL     1      27.633   4.090  51.366  1.00  0.00     0.159 HD
BRANCH  20  22
HETATM   22  C4  UNL     1      25.955   3.102  50.372  1.00  0.00     0.150 C 
BRANCH  22  23
HETATM   23  C3  UNL     1      26.001   4.321  49.445  1.00  0.00     0.290 C 
BRANCH  23  24
HETATM   24  N1  UNL     1      24.852   5.140  49.783  1.00  0.00     0.081 N 
HETATM   25  C1  UNL     1      24.478   6.007  48.671  1.00  0.00     0.309 C 
HETATM   26  C2  UNL     1      23.751   4.328  50.218  1.00  0.00     0.309 C 
ENDBRANCH  23  24
ENDBRANCH  22  23
ENDBRANCH  20  22
ENDBRANCH   1  20
TORSDOF 10
ENDMDL
MODEL 7
REMARK VINA RESULT:      -6.5      2.848      6.385
REMARK  10 active torsions:
REMARK  status: ('A' for Active; 'I' for Inactive)
REMARK    1  A    between atoms: N1_2  and  C3_4 
REMARK    2  A    between atoms: C3_4  and  C4_5 
REMARK    3  A    between atoms: C4_5  and  N2_6 
REMARK    4  A    between atoms: N2_6  and  C5_7 
REMARK    5  A    between atoms: C8_11  and  C9_12 
REMARK    6  A    between atoms: C9_12  and  N4_13 
REMARK    7  A    between atoms: C10_14  and  C11_15 
REMARK    8  A    between atoms: C11_15  and  N5_16 
REMARK    9  A    between atoms: N5_16  and  C12_17 
REMARK   10  A    between atoms: C12_17  and  C13_18 
ROOT
HETATM    1  C5  UNL     1      25.869   2.826  50.871  1.00  0.00     0.046 A 
HETATM    2  C6  UNL     1      26.064   3.644  49.769  1.00  0.00     0.145 A 
HETATM    3  N3  UNL     1      25.325   4.749  49.560  1.00  0.00    -0.270 NA
HETATM    4  C7  UNL     1      24.356   5.107  50.423  1.00  0.00     0.125 A 
HETATM    5  C8  UNL     1      24.087   4.351  51.552  1.00  0.00    -0.019 A 
HETATM    6  C19 UNL     1      24.864   3.213  51.747  1.00  0.00     0.041 A 
ENDROOT
BRANCH   5   7
HETATM    7  C9  UNL     1      23.021   4.694  52.554  1.00  0.00     0.188 C 
BRANCH   7   8
HETATM    8  N4  UNL     1      21.852   5.076  51.785  1.00  0.00    -0.299 NA
HETATM    9  C10 UNL     1      20.928   4.243  51.461  1.00  0.00     0.113 C 
BRANCH   9  10
HETATM   10  C11 UNL     1      20.590   2.837  51.618  1.00  0.00     0.335 C 
BRANCH  10  11
HETATM   11  N5  UNL     1      20.439   1.582  51.424  1.00  0.00    -0.433 NA
BRANCH  11  12
HETATM   12  C12 UNL     1      21.581   0.705  51.179  1.00  0.00     0.142 C 
BRANCH  12  13
HETATM   13  C13 UNL     1      21.857   0.011  52.487  1.00  0.00    -0.040 A 
HETATM   14  C14 UNL     1      20.781  -0.542  53.165  1.00  0.00     0.009 A 
HETATM   15  C15 UNL     1      20.997  -1.194  54.382  1.00  0.00     0.002 A 
HETATM   16  C16 UNL     1      22.294  -1.277  54.893  1.00  0.00     0.024 A 
HETATM   17  C17 UNL     1      23.371  -0.716  54.199  1.00  0.00     0.034 A 
HETATM   18 CL1  UNL     1      24.999  -0.843  54.880  1.00  0.00    -0.084 Cl
HETATM   19  C18 UNL     1      23.153  -0.067  52.986  1.00  0.00     0.032 A 
ENDBRANCH  12  13
ENDBRANCH  11  12
ENDBRANCH  10  11
ENDBRANCH   9  10
ENDBRANCH   7   8
ENDBRANCH   5   7
BRANCH   1  20
HETATM   20  N2  UNL     1      26.643   1.643  51.118  1.00  0.00    -0.387 N 
HETATM   21  H11 UNL     1      27.134   1.245  50.271  1.00  0.00     0.159 HD
BRANCH  20  22
HETATM   22  C4  UNL     1      26.743   1.044  52.413  1.00  0.00     0.150 C 
BRANCH  22  23
HETATM   23  C3  UNL     1      28.107   1.419  53.002  1.00  0.00     0.290 C 
BRANCH  23  24
HETATM   24  N1  UNL     1      28.657   0.205  53.576  1.00  0.00     0.081 N 
HETATM   25  C1  UNL     1      28.556   0.218  55.031  1.00  0.00     0.309 C 
HETATM   26  C2  UNL     1      28.037  -0.959  53.009  1.00  0.00     0.309 C 
ENDBRANCH  23  24
ENDBRANCH  22  23
ENDBRANCH  20  22
ENDBRANCH   1  20
TORSDOF 10
ENDMDL
MODEL 8
REMARK VINA RESULT:      -6.5      1.770      2.266
REMARK  10 active torsions:
REMARK  status: ('A' for Active; 'I' for Inactive)
REMARK    1  A    between atoms: N1_2  and  C3_4 
REMARK    2  A    between atoms: C3_4  and  C4_5 
REMARK    3  A    between atoms: C4_5  and  N2_6 
REMARK    4  A    between atoms: N2_6  and  C5_7 
REMARK    5  A    between atoms: C8_11  and  C9_12 
REMARK    6  A    between atoms: C9_12  and  N4_13 
REMARK    7  A    between atoms: C10_14  and  C11_15 
REMARK    8  A    between atoms: C11_15  and  N5_16 
REMARK    9  A    between atoms: N5_16  and  C12_17 
REMARK   10  A    between atoms: C12_17  and  C13_18 
ROOT
HETATM    1  C5  UNL     1      23.646  -0.041  53.658  1.00  0.00     0.046 A 
HETATM    2  C6  UNL     1      23.317  -0.927  54.673  1.00  0.00     0.145 A 
HETATM    3  N3  UNL     1      22.042  -1.150  55.042  1.00  0.00    -0.270 NA
HETATM    4  C7  UNL     1      21.025  -0.513  54.434  1.00  0.00     0.125 A 
HETATM    5  C8  UNL     1      21.254   0.391  53.409  1.00  0.00    -0.019 A 
HETATM    6  C19 UNL     1      22.581   0.604  53.044  1.00  0.00     0.041 A 
ENDROOT
BRANCH   5   7
HETATM    7  C9  UNL     1      20.164   1.133  52.689  1.00  0.00     0.188 C 
BRANCH   7   8
HETATM    8  N4  UNL     1      20.343   2.534  53.019  1.00  0.00    -0.299 NA
HETATM    9  C10 UNL     1      20.600   3.431  52.135  1.00  0.00     0.113 C 
BRANCH   9  10
HETATM   10  C11 UNL     1      20.807   3.556  50.701  1.00  0.00     0.335 C 
BRANCH  10  11
HETATM   11  N5  UNL     1      20.945   4.017  49.516  1.00  0.00    -0.433 NA
BRANCH  11  12
HETATM   12  C12 UNL     1      21.835   3.378  48.548  1.00  0.00     0.142 C 
BRANCH  12  13
HETATM   13  C13 UNL     1      23.224   3.844  48.893  1.00  0.00    -0.040 A 
HETATM   14  C14 UNL     1      23.581   5.136  48.537  1.00  0.00     0.009 A 
HETATM   15  C15 UNL     1      24.862   5.605  48.841  1.00  0.00     0.002 A 
HETATM   16  C16 UNL     1      25.760   4.762  49.499  1.00  0.00     0.024 A 
HETATM   17  C17 UNL     1      25.388   3.460  49.853  1.00  0.00     0.034 A 
HETATM   18 CL1  UNL     1      26.557   2.424  50.685  1.00  0.00    -0.084 Cl
HETATM   19  C18 UNL     1      24.111   2.997  49.549  1.00  0.00     0.032 A 
ENDBRANCH  12  13
ENDBRANCH  11  12
ENDBRANCH  10  11
ENDBRANCH   9  10
ENDBRANCH   7   8
ENDBRANCH   5   7
BRANCH   1  20
HETATM   20  N2  UNL     1      24.996   0.214  53.243  1.00  0.00    -0.387 N 
HETATM   21  H11 UNL     1      25.116   1.044  52.600  1.00  0.00     0.159 HD
BRANCH  20  22
HETATM   22  C4  UNL     1      26.097  -0.594  53.666  1.00  0.00     0.150 C 
BRANCH  22  23
HETATM   23  C3  UNL     1      26.837   0.161  54.776  1.00  0.00     0.290 C 
BRANCH  23  24
HETATM   24  N1  UNL     1      28.222   0.263  54.354  1.00  0.00     0.081 N 
HETATM   25  C1  UNL     1      28.610  -0.886  53.543  1.00  0.00     0.309 C 
HETATM   26  C2  UNL     1      28.462   1.502  53.671  1.00  0.00     0.309 C 
ENDBRANCH  23  24
ENDBRANCH  22  23
ENDBRANCH  20  22
ENDBRANCH   1  20
TORSDOF 10
ENDMDL
MODEL 9
REMARK VINA RESULT:      -6.5      3.175      5.847
REMARK  10 active torsions:
REMARK  status: ('A' for Active; 'I' for Inactive)
REMARK    1  A    between atoms: N1_2  and  C3_4 
REMARK    2  A    between atoms: C3_4  and  C4_5 
REMARK    3  A    between atoms: C4_5  and  N2_6 
REMARK    4  A    between atoms: N2_6  and  C5_7 
REMARK    5  A    between atoms: C8_11  and  C9_12 
REMARK    6  A    between atoms: C9_12  and  N4_13 
REMARK    7  A    between atoms: C10_14  and  C11_15 
REMARK    8  A    between atoms: C11_15  and  N5_16 
REMARK    9  A    between atoms: N5_16  and  C12_17 
REMARK   10  A    between atoms: C12_17  and  C13_18 
ROOT
HETATM    1  C5  UNL     1      25.243   2.153  51.900  1.00  0.00     0.046 A 
HETATM    2  C6  UNL     1      26.564   2.472  51.623  1.00  0.00     0.145 A 
HETATM    3  N3  UNL     1      26.923   3.113  50.496  1.00  0.00    -0.270 NA
HETATM    4  C7  UNL     1      26.003   3.473  49.582  1.00  0.00     0.125 A 
HETATM    5  C8  UNL     1      24.659   3.197  49.770  1.00  0.00    -0.019 A 
HETATM    6  C19 UNL     1      24.311   2.534  50.943  1.00  0.00     0.041 A 
ENDROOT
BRANCH   5   7
HETATM    7  C9  UNL     1      23.583   3.572  48.790  1.00  0.00     0.188 C 
BRANCH   7   8
HETATM    8  N4  UNL     1      23.519   5.021  48.796  1.00  0.00    -0.299 NA
HETATM    9  C10 UNL     1      22.836   5.685  49.659  1.00  0.00     0.113 C 
BRANCH   9  10
HETATM   10  C11 UNL     1      21.972   5.462  50.807  1.00  0.00     0.335 C 
BRANCH  10  11
HETATM   11  N5  UNL     1      21.093   4.994  51.609  1.00  0.00    -0.433 NA
BRANCH  11  12
HETATM   12  C12 UNL     1      20.020   4.120  51.139  1.00  0.00     0.142 C 
BRANCH  12  13
HETATM   13  C13 UNL     1      20.528   2.713  51.308  1.00  0.00    -0.040 A 
HETATM   14  C14 UNL     1      20.727   1.955  50.164  1.00  0.00     0.009 A 
HETATM   15  C15 UNL     1      21.199   0.645  50.280  1.00  0.00     0.002 A 
HETATM   16  C16 UNL     1      21.461   0.123  51.548  1.00  0.00     0.024 A 
HETATM   17  C17 UNL     1      21.256   0.898  52.695  1.00  0.00     0.034 A 
HETATM   18 CL1  UNL     1      21.601   0.198  54.284  1.00  0.00    -0.084 Cl
HETATM   19  C18 UNL     1      20.787   2.203  52.576  1.00  0.00     0.032 A 
ENDBRANCH  12  13
ENDBRANCH  11  12
ENDBRANCH  10  11
ENDBRANCH   9  10
ENDBRANCH   7   8
ENDBRANCH   5   7
BRANCH   1  20
HETATM   20  N2  UNL     1      24.832   1.471  53.094  1.00  0.00    -0.387 N 
HETATM   21  H11 UNL     1      24.227   2.040  53.747  1.00  0.00     0.159 HD
BRANCH  20  22
HETATM   22  C4  UNL     1      25.213   0.123  53.381  1.00  0.00     0.150 C 
BRANCH  22  23
HETATM   23  C3  UNL     1      26.237   0.156  54.520  1.00  0.00     0.290 C 
BRANCH  23  24
HETATM   24  N1  UNL     1      27.547   0.094  53.899  1.00  0.00     0.081 N 
HETATM   25  C1  UNL     1      28.606   0.081  54.902  1.00  0.00     0.309 C 
HETATM   26  C2  UNL     1      27.643  -1.029  53.010  1.00  0.00     0.309 C 
ENDBRANCH  23  24
ENDBRANCH  22  23
ENDBRANCH  20  22
ENDBRANCH   1  20
TORSDOF 10
ENDMDL
