MODEL 1
REMARK VINA RESULT:      -7.8      0.000      0.000
REMARK  6 active torsions:
REMARK  status: ('A' for Active; 'I' for Inactive)
REMARK    1  A    between atoms: C4_6  and  N3_7 
REMARK    2  A    between atoms: N3_7  and  C5_8 
REMARK    3  A    between atoms: C12_17  and  N6_18 
REMARK    4  A    between atoms: N6_18  and  C13_19 
REMARK    5  A    between atoms: C13_19  and  C14_20 
REMARK    6  A    between atoms: C14_20  and  N7_21 
ROOT
HETATM    1  C5  UNL     1      23.256  -0.196  53.226  1.00  0.00     0.035 A 
HETATM    2  C6  UNL     1      22.678  -1.059  54.166  1.00  0.00     0.029 A 
HETATM    3  C7  UNL     1      21.407  -0.902  54.676  1.00  0.00     0.004 A 
HETATM    4  C8  UNL     1      20.637   0.182  54.235  1.00  0.00     0.023 A 
HETATM    5  C9  UNL     1      21.195   1.043  53.305  1.00  0.00     0.046 A 
HETATM    6  C10 UNL     1      20.446   2.177  52.827  1.00  0.00     0.099 C 
HETATM    7  N4  UNL     1      19.839   3.104  52.456  1.00  0.00    -0.191 NA
HETATM    8  C11 UNL     1      22.464   0.868  52.811  1.00  0.00     0.052 A 
ENDROOT
BRANCH   1   9
HETATM    9  N3  UNL     1      24.564  -0.336  52.702  1.00  0.00    -0.338 N 
HETATM   10  H5  UNL     1      24.818  -1.229  52.232  1.00  0.00     0.167 HD
BRANCH   9  11
HETATM   11  C4  UNL     1      25.647   0.565  52.705  1.00  0.00     0.180 A 
HETATM   12  C3  UNL     1      26.759   0.591  53.507  1.00  0.00     0.151 A 
HETATM   13  N2  UNL     1      27.046  -0.275  54.523  1.00  0.00    -0.236 NA
HETATM   14  C15 UNL     1      27.763   1.525  53.393  1.00  0.00     0.182 A 
HETATM   15  C2  UNL     1      28.247   0.131  55.042  1.00  0.00     0.211 A 
HETATM   16  N1  UNL     1      28.669   1.209  54.358  1.00  0.00    -0.328 N 
HETATM   17  C1  UNL     1      29.858   2.043  54.463  1.00  0.00     0.159 C 
HETATM   18  N8  UNL     1      27.628   2.473  52.417  1.00  0.00    -0.042 NA
HETATM   19  C12 UNL     1      26.526   2.444  51.625  1.00  0.00     0.726 A 
HETATM   20  N5  UNL     1      25.577   1.513  51.779  1.00  0.00    -0.043 NA
BRANCH  19  21
HETATM   21  N6  UNL     1      26.599   3.518  50.665  1.00  0.00    -0.221 N 
HETATM   22  H10 UNL     1      27.463   3.914  50.188  1.00  0.00     0.177 HD
BRANCH  21  23
HETATM   23  C13 UNL     1      25.204   3.916  50.518  1.00  0.00     0.168 C 
BRANCH  23  24
HETATM   24  C14 UNL     1      25.066   5.378  50.173  1.00  0.00     0.286 C 
BRANCH  24  25
HETATM   25  N7  UNL     1      24.566   6.097  51.335  1.00  0.00     0.079 N 
HETATM   26  H15 UNL     1      23.695   6.613  51.032  1.00  0.00     0.312 HD
HETATM   27  H16 UNL     1      24.227   5.373  51.992  1.00  0.00     0.312 HD
ENDBRANCH  24  25
ENDBRANCH  23  24
ENDBRANCH  21  23
ENDBRANCH  19  21
ENDBRANCH   9  11
ENDBRANCH   1   9
TORSDOF 6
ENDMDL
MODEL 2
REMARK VINA RESULT:      -7.6      1.835      5.888
REMARK  6 active torsions:
REMARK  status: ('A' for Active; 'I' for Inactive)
REMARK    1  A    between atoms: C4_6  and  N3_7 
REMARK    2  A    between atoms: N3_7  and  C5_8 
REMARK    3  A    between atoms: C12_17  and  N6_18 
REMARK    4  A    between atoms: N6_18  and  C13_19 
REMARK    5  A    between atoms: C13_19  and  C14_20 
REMARK    6  A    between atoms: C14_20  and  N7_21 
ROOT
HETATM    1  C5  UNL     1      27.150   1.529  52.491  1.00  0.00     0.035 A 
HETATM    2  C6  UNL     1      27.940   2.380  53.275  1.00  0.00     0.029 A 
HETATM    3  C7  UNL     1      28.981   1.949  54.070  1.00  0.00     0.004 A 
HETATM    4  C8  UNL     1      29.276   0.580  54.104  1.00  0.00     0.023 A 
HETATM    5  C9  UNL     1      28.503  -0.273  53.334  1.00  0.00     0.046 A 
HETATM    6  C10 UNL     1      28.763  -1.690  53.340  1.00  0.00     0.099 C 
HETATM    7  N4  UNL     1      28.969  -2.840  53.364  1.00  0.00    -0.191 NA
HETATM    8  C11 UNL     1      27.471   0.178  52.550  1.00  0.00     0.052 A 
ENDROOT
BRANCH   1   9
HETATM    9  N3  UNL     1      26.068   1.953  51.681  1.00  0.00    -0.338 N 
HETATM   10  H5  UNL     1      26.260   2.197  50.687  1.00  0.00     0.167 HD
BRANCH   9  11
HETATM   11  C4  UNL     1      24.706   2.117  51.993  1.00  0.00     0.180 A 
HETATM   12  C3  UNL     1      23.827   1.230  52.563  1.00  0.00     0.151 A 
HETATM   13  N2  UNL     1      24.103  -0.052  52.943  1.00  0.00    -0.236 NA
HETATM   14  C15 UNL     1      22.511   1.525  52.836  1.00  0.00     0.182 A 
HETATM   15  C2  UNL     1      22.938  -0.555  53.458  1.00  0.00     0.211 A 
HETATM   16  N1  UNL     1      21.990   0.397  53.390  1.00  0.00    -0.328 N 
HETATM   17  C1  UNL     1      20.590   0.428  53.788  1.00  0.00     0.159 C 
HETATM   18  N8  UNL     1      22.070   2.778  52.512  1.00  0.00    -0.042 NA
HETATM   19  C12 UNL     1      22.942   3.652  51.947  1.00  0.00     0.726 A 
HETATM   20  N5  UNL     1      24.214   3.315  51.703  1.00  0.00    -0.043 NA
BRANCH  19  21
HETATM   21  N6  UNL     1      22.271   4.906  51.706  1.00  0.00    -0.221 N 
HETATM   22  H10 UNL     1      21.428   5.307  52.213  1.00  0.00     0.177 HD
BRANCH  21  23
HETATM   23  C13 UNL     1      23.038   5.476  50.605  1.00  0.00     0.168 C 
BRANCH  23  24
HETATM   24  C14 UNL     1      23.546   6.861  50.925  1.00  0.00     0.286 C 
BRANCH  24  25
HETATM   25  N7  UNL     1      24.489   6.780  52.030  1.00  0.00     0.079 N 
HETATM   26  H15 UNL     1      25.432   6.539  51.617  1.00  0.00     0.312 HD
HETATM   27  H16 UNL     1      24.597   7.748  52.381  1.00  0.00     0.312 HD
ENDBRANCH  24  25
ENDBRANCH  23  24
ENDBRANCH  21  23
ENDBRANCH  19  21
ENDBRANCH   9  11
ENDBRANCH   1   9
TORSDOF 6
ENDMDL
MODEL 3
REMARK VINA RESULT:      -7.5      1.835      6.052
REMARK  6 active torsions:
REMARK  status: ('A' for Active; 'I' for Inactive)
REMARK    1  A    between atoms: C4_6  and  N3_7 
REMARK    2  A    between atoms: N3_7  and  C5_8 
REMARK    3  A    between atoms: C12_17  and  N6_18 
REMARK    4  A    between atoms: N6_18  and  C13_19 
REMARK    5  A    between atoms: C13_19  and  C14_20 
REMARK    6  A    between atoms: C14_20  and  N7_21 
ROOT
HETATM    1  C5  UNL     1      26.004  -0.490  53.739  1.00  0.00     0.035 A 
HETATM    2  C6  UNL     1      26.607  -1.556  53.059  1.00  0.00     0.029 A 
HETATM    3  C7  UNL     1      27.967  -1.678  52.869  1.00  0.00     0.004 A 
HETATM    4  C8  UNL     1      28.807  -0.682  53.382  1.00  0.00     0.023 A 
HETATM    5  C9  UNL     1      28.225   0.379  54.057  1.00  0.00     0.046 A 
HETATM    6  C10 UNL     1      29.046   1.432  54.597  1.00  0.00     0.099 C 
HETATM    7  N4  UNL     1      29.717   2.291  55.017  1.00  0.00    -0.191 NA
HETATM    8  C11 UNL     1      26.868   0.480  54.234  1.00  0.00     0.052 A 
ENDROOT
BRANCH   1   9
HETATM    9  N3  UNL     1      24.608  -0.343  53.931  1.00  0.00    -0.338 N 
HETATM   10  H5  UNL     1      24.194  -0.674  54.828  1.00  0.00     0.167 HD
BRANCH   9  11
HETATM   11  C4  UNL     1      23.624   0.197  53.082  1.00  0.00     0.180 A 
HETATM   12  C3  UNL     1      22.265   0.012  53.093  1.00  0.00     0.151 A 
HETATM   13  N2  UNL     1      21.561  -0.782  53.953  1.00  0.00    -0.236 NA
HETATM   14  C15 UNL     1      21.403   0.620  52.209  1.00  0.00     0.182 A 
HETATM   15  C2  UNL     1      20.246  -0.660  53.593  1.00  0.00     0.211 A 
HETATM   16  N1  UNL     1      20.161   0.182  52.548  1.00  0.00    -0.328 N 
HETATM   17  C1  UNL     1      19.036   0.680  51.769  1.00  0.00     0.159 C 
HETATM   18  N8  UNL     1      21.951   1.453  51.273  1.00  0.00    -0.042 NA
HETATM   19  C12 UNL     1      23.297   1.633  51.266  1.00  0.00     0.726 A 
HETATM   20  N5  UNL     1      24.091   1.017  52.149  1.00  0.00    -0.043 NA
BRANCH  19  21
HETATM   21  N6  UNL     1      23.649   2.555  50.214  1.00  0.00    -0.221 N 
HETATM   22  H10 UNL     1      23.369   2.521  49.190  1.00  0.00     0.177 HD
BRANCH  21  23
HETATM   23  C13 UNL     1      24.477   3.535  50.908  1.00  0.00     0.168 C 
BRANCH  23  24
HETATM   24  C14 UNL     1      25.918   3.472  50.465  1.00  0.00     0.286 C 
BRANCH  24  25
HETATM   25  N7  UNL     1      26.723   2.907  51.537  1.00  0.00     0.079 N 
HETATM   26  H15 UNL     1      27.562   2.446  51.088  1.00  0.00     0.312 HD
HETATM   27  H16 UNL     1      27.113   3.715  52.054  1.00  0.00     0.312 HD
ENDBRANCH  24  25
ENDBRANCH  23  24
ENDBRANCH  21  23
ENDBRANCH  19  21
ENDBRANCH   9  11
ENDBRANCH   1   9
TORSDOF 6
ENDMDL
MODEL 4
REMARK VINA RESULT:      -7.5      2.563      7.368
REMARK  6 active torsions:
REMARK  status: ('A' for Active; 'I' for Inactive)
REMARK    1  A    between atoms: C4_6  and  N3_7 
REMARK    2  A    between atoms: N3_7  and  C5_8 
REMARK    3  A    between atoms: C12_17  and  N6_18 
REMARK    4  A    between atoms: N6_18  and  C13_19 
REMARK    5  A    between atoms: C13_19  and  C14_20 
REMARK    6  A    between atoms: C14_20  and  N7_21 
ROOT
HETATM    1  C5  UNL     1      26.765   4.625  48.969  1.00  0.00     0.035 A 
HETATM    2  C6  UNL     1      25.802   5.642  48.987  1.00  0.00     0.029 A 
HETATM    3  C7  UNL     1      26.047   6.940  48.593  1.00  0.00     0.004 A 
HETATM    4  C8  UNL     1      27.331   7.275  48.146  1.00  0.00     0.023 A 
HETATM    5  C9  UNL     1      28.294   6.279  48.123  1.00  0.00     0.046 A 
HETATM    6  C10 UNL     1      29.631   6.575  47.678  1.00  0.00     0.099 C 
HETATM    7  N4  UNL     1      30.719   6.827  47.332  1.00  0.00    -0.191 NA
HETATM    8  C11 UNL     1      28.029   4.992  48.520  1.00  0.00     0.052 A 
ENDROOT
BRANCH   1   9
HETATM    9  N3  UNL     1      26.535   3.290  49.383  1.00  0.00    -0.338 N 
HETATM   10  H5  UNL     1      26.652   2.527  48.684  1.00  0.00     0.167 HD
BRANCH   9  11
HETATM   11  C4  UNL     1      26.153   2.779  50.638  1.00  0.00     0.180 A 
HETATM   12  C3  UNL     1      24.952   2.248  51.035  1.00  0.00     0.151 A 
HETATM   13  N2  UNL     1      23.829   2.118  50.268  1.00  0.00    -0.236 NA
HETATM   14  C15 UNL     1      24.711   1.761  52.299  1.00  0.00     0.182 A 
HETATM   15  C2  UNL     1      22.883   1.542  51.073  1.00  0.00     0.211 A 
HETATM   16  N1  UNL     1      23.421   1.331  52.288  1.00  0.00    -0.328 N 
HETATM   17  C1  UNL     1      22.893   0.752  53.515  1.00  0.00     0.159 C 
HETATM   18  N8  UNL     1      25.740   1.818  53.199  1.00  0.00    -0.042 NA
HETATM   19  C12 UNL     1      26.927   2.345  52.801  1.00  0.00     0.726 A 
HETATM   20  N5  UNL     1      27.108   2.805  51.558  1.00  0.00    -0.043 NA
BRANCH  19  21
HETATM   21  N6  UNL     1      27.863   2.291  53.897  1.00  0.00    -0.221 N 
HETATM   22  H10 UNL     1      28.007   3.002  54.674  1.00  0.00     0.177 HD
BRANCH  21  23
HETATM   23  C13 UNL     1      28.553   1.027  53.670  1.00  0.00     0.168 C 
BRANCH  23  24
HETATM   24  C14 UNL     1      28.522   0.138  54.889  1.00  0.00     0.286 C 
BRANCH  24  25
HETATM   25  N7  UNL     1      27.183  -0.409  55.046  1.00  0.00     0.079 N 
HETATM   26  H15 UNL     1      26.933  -0.334  56.071  1.00  0.00     0.312 HD
HETATM   27  H16 UNL     1      26.548   0.257  54.572  1.00  0.00     0.312 HD
ENDBRANCH  24  25
ENDBRANCH  23  24
ENDBRANCH  21  23
ENDBRANCH  19  21
ENDBRANCH   9  11
ENDBRANCH   1   9
TORSDOF 6
ENDMDL
MODEL 5
REMARK VINA RESULT:      -7.4      2.181      6.756
REMARK  6 active torsions:
REMARK  status: ('A' for Active; 'I' for Inactive)
REMARK    1  A    between atoms: C4_6  and  N3_7 
REMARK    2  A    between atoms: N3_7  and  C5_8 
REMARK    3  A    between atoms: C12_17  and  N6_18 
REMARK    4  A    between atoms: N6_18  and  C13_19 
REMARK    5  A    between atoms: C13_19  and  C14_20 
REMARK    6  A    between atoms: C14_20  and  N7_21 
ROOT
HETATM    1  C5  UNL     1      27.146   1.760  53.494  1.00  0.00     0.035 A 
HETATM    2  C6  UNL     1      28.345   2.373  53.878  1.00  0.00     0.029 A 
HETATM    3  C7  UNL     1      29.540   1.702  54.026  1.00  0.00     0.004 A 
HETATM    4  C8  UNL     1      29.571   0.324  53.778  1.00  0.00     0.023 A 
HETATM    5  C9  UNL     1      28.392  -0.296  53.397  1.00  0.00     0.046 A 
HETATM    6  C10 UNL     1      28.371  -1.713  53.138  1.00  0.00     0.099 C 
HETATM    7  N4  UNL     1      28.357  -2.866  52.947  1.00  0.00    -0.191 NA
HETATM    8  C11 UNL     1      27.213   0.391  53.257  1.00  0.00     0.052 A 
ENDROOT
BRANCH   1   9
HETATM    9  N3  UNL     1      25.907   2.431  53.351  1.00  0.00    -0.338 N 
HETATM   10  H5  UNL     1      25.703   3.234  53.982  1.00  0.00     0.167 HD
BRANCH   9  11
HETATM   11  C4  UNL     1      24.840   2.195  52.463  1.00  0.00     0.180 A 
HETATM   12  C3  UNL     1      24.591   2.745  51.231  1.00  0.00     0.151 A 
HETATM   13  N2  UNL     1      25.349   3.687  50.597  1.00  0.00    -0.236 NA
HETATM   14  C15 UNL     1      23.510   2.411  50.448  1.00  0.00     0.182 A 
HETATM   15  C2  UNL     1      24.725   3.937  49.403  1.00  0.00     0.211 A 
HETATM   16  N1  UNL     1      23.625   3.167  49.324  1.00  0.00    -0.328 N 
HETATM   17  C1  UNL     1      22.601   3.010  48.300  1.00  0.00     0.159 C 
HETATM   18  N8  UNL     1      22.644   1.475  50.943  1.00  0.00    -0.042 NA
HETATM   19  C12 UNL     1      22.894   0.933  52.163  1.00  0.00     0.726 A 
HETATM   20  N5  UNL     1      23.962   1.294  52.884  1.00  0.00    -0.043 NA
BRANCH  19  21
HETATM   21  N6  UNL     1      21.870  -0.033  52.474  1.00  0.00    -0.221 N 
HETATM   22  H10 UNL     1      20.863  -0.056  52.134  1.00  0.00     0.177 HD
BRANCH  21  23
HETATM   23  C13 UNL     1      22.560  -0.960  53.363  1.00  0.00     0.168 C 
BRANCH  23  24
HETATM   24  C14 UNL     1      21.800  -1.185  54.647  1.00  0.00     0.286 C 
BRANCH  24  25
HETATM   25  N7  UNL     1      20.376  -1.032  54.392  1.00  0.00     0.079 N 
HETATM   26  H15 UNL     1      20.244  -1.049  53.343  1.00  0.00     0.312 HD
HETATM   27  H16 UNL     1      19.933  -1.906  54.726  1.00  0.00     0.312 HD
ENDBRANCH  24  25
ENDBRANCH  23  24
ENDBRANCH  21  23
ENDBRANCH  19  21
ENDBRANCH   9  11
ENDBRANCH   1   9
TORSDOF 6
ENDMDL
MODEL 6
REMARK VINA RESULT:      -7.4      1.905      6.700
REMARK  6 active torsions:
REMARK  status: ('A' for Active; 'I' for Inactive)
REMARK    1  A    between atoms: C4_6  and  N3_7 
REMARK    2  A    between atoms: N3_7  and  C5_8 
REMARK    3  A    between atoms: C12_17  and  N6_18 
REMARK    4  A    between atoms: N6_18  and  C13_19 
REMARK    5  A    between atoms: C13_19  and  C14_20 
REMARK    6  A    between atoms: C14_20  and  N7_21 
ROOT
HETATM    1  C5  UNL     1      26.757   4.478  49.312  1.00  0.00     0.035 A 
HETATM    2  C6  UNL     1      27.824   4.981  48.555  1.00  0.00     0.029 A 
HETATM    3  C7  UNL     1      27.956   6.305  48.194  1.00  0.00     0.004 A 
HETATM    4  C8  UNL     1      26.970   7.212  48.603  1.00  0.00     0.023 A 
HETATM    5  C9  UNL     1      25.909   6.730  49.352  1.00  0.00     0.046 A 
HETATM    6  C10 UNL     1      24.867   7.622  49.789  1.00  0.00     0.099 C 
HETATM    7  N4  UNL     1      24.016   8.349  50.126  1.00  0.00    -0.191 NA
HETATM    8  C11 UNL     1      25.797   5.407  49.699  1.00  0.00     0.052 A 
ENDROOT
BRANCH   1   9
HETATM    9  N3  UNL     1      26.599   3.120  49.679  1.00  0.00    -0.338 N 
HETATM   10  H5  UNL     1      26.819   2.386  48.973  1.00  0.00     0.167 HD
BRANCH   9  11
HETATM   11  C4  UNL     1      26.173   2.548  50.893  1.00  0.00     0.180 A 
HETATM   12  C3  UNL     1      24.936   2.075  51.249  1.00  0.00     0.151 A 
HETATM   13  N2  UNL     1      23.812   2.080  50.473  1.00  0.00    -0.236 NA
HETATM   14  C15 UNL     1      24.653   1.518  52.474  1.00  0.00     0.182 A 
HETATM   15  C2  UNL     1      22.822   1.516  51.232  1.00  0.00     0.211 A 
HETATM   16  N1  UNL     1      23.336   1.181  52.429  1.00  0.00    -0.328 N 
HETATM   17  C1  UNL     1      22.760   0.555  53.611  1.00  0.00     0.159 C 
HETATM   18  N8  UNL     1      25.677   1.438  53.378  1.00  0.00    -0.042 NA
HETATM   19  C12 UNL     1      26.900   1.907  53.021  1.00  0.00     0.726 A 
HETATM   20  N5  UNL     1      27.122   2.441  51.815  1.00  0.00    -0.043 NA
BRANCH  19  21
HETATM   21  N6  UNL     1      27.823   1.710  54.112  1.00  0.00    -0.221 N 
HETATM   22  H10 UNL     1      28.400   2.440  54.625  1.00  0.00     0.177 HD
BRANCH  21  23
HETATM   23  C13 UNL     1      27.763   0.269  54.329  1.00  0.00     0.168 C 
BRANCH  23  24
HETATM   24  C14 UNL     1      29.093  -0.398  54.077  1.00  0.00     0.286 C 
BRANCH  24  25
HETATM   25  N7  UNL     1      30.030   0.588  53.559  1.00  0.00     0.079 N 
HETATM   26  H15 UNL     1      29.834   0.691  52.525  1.00  0.00     0.312 HD
HETATM   27  H16 UNL     1      29.745   1.493  53.971  1.00  0.00     0.312 HD
ENDBRANCH  24  25
ENDBRANCH  23  24
ENDBRANCH  21  23
ENDBRANCH  19  21
ENDBRANCH   9  11
ENDBRANCH   1   9
TORSDOF 6
ENDMDL
MODEL 7
REMARK VINA RESULT:      -7.4      2.991      5.734
REMARK  6 active torsions:
REMARK  status: ('A' for Active; 'I' for Inactive)
REMARK    1  A    between atoms: C4_6  and  N3_7 
REMARK    2  A    between atoms: N3_7  and  C5_8 
REMARK    3  A    between atoms: C12_17  and  N6_18 
REMARK    4  A    between atoms: N6_18  and  C13_19 
REMARK    5  A    between atoms: C13_19  and  C14_20 
REMARK    6  A    between atoms: C14_20  and  N7_21 
ROOT
HETATM    1  C5  UNL     1      26.151   0.855  52.200  1.00  0.00     0.035 A 
HETATM    2  C6  UNL     1      26.351  -0.530  52.122  1.00  0.00     0.029 A 
HETATM    3  C7  UNL     1      27.390  -1.194  52.738  1.00  0.00     0.004 A 
HETATM    4  C8  UNL     1      28.307  -0.451  53.492  1.00  0.00     0.023 A 
HETATM    5  C9  UNL     1      28.122   0.919  53.579  1.00  0.00     0.046 A 
HETATM    6  C10 UNL     1      29.042   1.728  54.337  1.00  0.00     0.099 C 
HETATM    7  N4  UNL     1      29.803   2.379  54.939  1.00  0.00    -0.191 NA
HETATM    8  C11 UNL     1      27.080   1.560  52.956  1.00  0.00     0.052 A 
ENDROOT
BRANCH   1   9
HETATM    9  N3  UNL     1      25.098   1.554  51.562  1.00  0.00    -0.338 N 
HETATM   10  H5  UNL     1      24.251   1.021  51.275  1.00  0.00     0.167 HD
BRANCH   9  11
HETATM   11  C4  UNL     1      24.983   2.916  51.223  1.00  0.00     0.180 A 
HETATM   12  C3  UNL     1      25.743   3.670  50.365  1.00  0.00     0.151 A 
HETATM   13  N2  UNL     1      26.823   3.239  49.648  1.00  0.00    -0.236 NA
HETATM   14  C15 UNL     1      25.512   5.001  50.105  1.00  0.00     0.182 A 
HETATM   15  C2  UNL     1      27.262   4.323  48.935  1.00  0.00     0.211 A 
HETATM   16  N1  UNL     1      26.470   5.373  49.215  1.00  0.00    -0.328 N 
HETATM   17  C1  UNL     1      26.460   6.754  48.754  1.00  0.00     0.159 C 
HETATM   18  N8  UNL     1      24.459   5.590  50.750  1.00  0.00    -0.042 NA
HETATM   19  C12 UNL     1      23.710   4.841  51.599  1.00  0.00     0.726 A 
HETATM   20  N5  UNL     1      23.979   3.548  51.816  1.00  0.00    -0.043 NA
BRANCH  19  21
HETATM   21  N6  UNL     1      22.655   5.656  52.149  1.00  0.00    -0.221 N 
HETATM   22  H10 UNL     1      22.541   5.996  53.150  1.00  0.00     0.177 HD
BRANCH  21  23
HETATM   23  C13 UNL     1      21.794   5.891  50.996  1.00  0.00     0.168 C 
BRANCH  23  24
HETATM   24  C14 UNL     1      21.475   7.355  50.817  1.00  0.00     0.286 C 
BRANCH  24  25
HETATM   25  N7  UNL     1      22.550   7.990  50.069  1.00  0.00     0.079 N 
HETATM   26  H15 UNL     1      23.282   7.249  49.885  1.00  0.00     0.312 HD
HETATM   27  H16 UNL     1      22.156   8.206  49.136  1.00  0.00     0.312 HD
ENDBRANCH  24  25
ENDBRANCH  23  24
ENDBRANCH  21  23
ENDBRANCH  19  21
ENDBRANCH   9  11
ENDBRANCH   1   9
TORSDOF 6
ENDMDL
MODEL 8
REMARK VINA RESULT:      -7.2      2.044      7.050
REMARK  6 active torsions:
REMARK  status: ('A' for Active; 'I' for Inactive)
REMARK    1  A    between atoms: C4_6  and  N3_7 
REMARK    2  A    between atoms: N3_7  and  C5_8 
REMARK    3  A    between atoms: C12_17  and  N6_18 
REMARK    4  A    between atoms: N6_18  and  C13_19 
REMARK    5  A    between atoms: C13_19  and  C14_20 
REMARK    6  A    between atoms: C14_20  and  N7_21 
ROOT
HETATM    1  C5  UNL     1      26.420   1.179  52.207  1.00  0.00     0.035 A 
HETATM    2  C6  UNL     1      27.087   2.275  52.770  1.00  0.00     0.029 A 
HETATM    3  C7  UNL     1      28.256   2.174  53.495  1.00  0.00     0.004 A 
HETATM    4  C8  UNL     1      28.820   0.907  53.686  1.00  0.00     0.023 A 
HETATM    5  C9  UNL     1      28.171  -0.186  53.134  1.00  0.00     0.046 A 
HETATM    6  C10 UNL     1      28.707  -1.511  53.309  1.00  0.00     0.099 C 
HETATM    7  N4  UNL     1      29.139  -2.585  53.470  1.00  0.00    -0.191 NA
HETATM    8  C11 UNL     1      27.007  -0.063  52.417  1.00  0.00     0.052 A 
ENDROOT
BRANCH   1   9
HETATM    9  N3  UNL     1      25.212   1.263  51.472  1.00  0.00    -0.338 N 
HETATM   10  H5  UNL     1      25.255   1.172  50.436  1.00  0.00     0.167 HD
BRANCH   9  11
HETATM   11  C4  UNL     1      23.889   1.459  51.913  1.00  0.00     0.180 A 
HETATM   12  C3  UNL     1      22.947   2.355  51.475  1.00  0.00     0.151 A 
HETATM   13  N2  UNL     1      23.112   3.290  50.493  1.00  0.00    -0.236 NA
HETATM   14  C15 UNL     1      21.671   2.433  51.983  1.00  0.00     0.182 A 
HETATM   15  C2  UNL     1      21.917   3.953  50.396  1.00  0.00     0.211 A 
HETATM   16  N1  UNL     1      21.061   3.432  51.292  1.00  0.00    -0.328 N 
HETATM   17  C1  UNL     1      19.675   3.732  51.624  1.00  0.00     0.159 C 
HETATM   18  N8  UNL     1      21.340   1.559  52.983  1.00  0.00    -0.042 NA
HETATM   19  C12 UNL     1      22.277   0.675  53.414  1.00  0.00     0.726 A 
HETATM   20  N5  UNL     1      23.505   0.642  52.885  1.00  0.00    -0.043 NA
BRANCH  19  21
HETATM   21  N6  UNL     1      21.710  -0.150  54.453  1.00  0.00    -0.221 N 
HETATM   22  H10 UNL     1      20.862   0.049  55.060  1.00  0.00     0.177 HD
BRANCH  21  23
HETATM   23  C13 UNL     1      22.589  -1.314  54.455  1.00  0.00     0.168 C 
BRANCH  23  24
HETATM   24  C14 UNL     1      23.473  -1.353  55.677  1.00  0.00     0.286 C 
BRANCH  24  25
HETATM   25  N7  UNL     1      24.863  -1.226  55.265  1.00  0.00     0.079 N 
HETATM   26  H15 UNL     1      24.884  -0.566  54.439  1.00  0.00     0.312 HD
HETATM   27  H16 UNL     1      25.337  -0.708  56.025  1.00  0.00     0.312 HD
ENDBRANCH  24  25
ENDBRANCH  23  24
ENDBRANCH  21  23
ENDBRANCH  19  21
ENDBRANCH   9  11
ENDBRANCH   1   9
TORSDOF 6
ENDMDL
MODEL 9
REMARK VINA RESULT:      -7.2      2.453      6.082
REMARK  6 active torsions:
REMARK  status: ('A' for Active; 'I' for Inactive)
REMARK    1  A    between atoms: C4_6  and  N3_7 
REMARK    2  A    between atoms: N3_7  and  C5_8 
REMARK    3  A    between atoms: C12_17  and  N6_18 
REMARK    4  A    between atoms: N6_18  and  C13_19 
REMARK    5  A    between atoms: C13_19  and  C14_20 
REMARK    6  A    between atoms: C14_20  and  N7_21 
ROOT
HETATM    1  C5  UNL     1      23.895   1.294  51.953  1.00  0.00     0.035 A 
HETATM    2  C6  UNL     1      22.770   0.550  52.334  1.00  0.00     0.029 A 
HETATM    3  C7  UNL     1      22.770  -0.377  53.354  1.00  0.00     0.004 A 
HETATM    4  C8  UNL     1      23.960  -0.598  54.060  1.00  0.00     0.023 A 
HETATM    5  C9  UNL     1      25.080   0.130  53.694  1.00  0.00     0.046 A 
HETATM    6  C10 UNL     1      26.329  -0.067  54.384  1.00  0.00     0.099 C 
HETATM    7  N4  UNL     1      27.343  -0.244  54.937  1.00  0.00    -0.191 NA
HETATM    8  C11 UNL     1      25.058   1.048  52.674  1.00  0.00     0.052 A 
ENDROOT
BRANCH   1   9
HETATM    9  N3  UNL     1      23.916   2.240  50.899  1.00  0.00    -0.338 N 
HETATM   10  H5  UNL     1      24.433   2.000  50.028  1.00  0.00     0.167 HD
BRANCH   9  11
HETATM   11  C4  UNL     1      23.333   3.518  50.811  1.00  0.00     0.180 A 
HETATM   12  C3  UNL     1      22.122   3.892  50.287  1.00  0.00     0.151 A 
HETATM   13  N2  UNL     1      21.203   3.068  49.702  1.00  0.00    -0.236 NA
HETATM   14  C15 UNL     1      21.658   5.187  50.280  1.00  0.00     0.182 A 
HETATM   15  C2  UNL     1      20.157   3.869  49.329  1.00  0.00     0.211 A 
HETATM   16  N1  UNL     1      20.438   5.136  49.680  1.00  0.00    -0.328 N 
HETATM   17  C1  UNL     1      19.704   6.386  49.542  1.00  0.00     0.159 C 
HETATM   18  N8  UNL     1      22.464   6.144  50.831  1.00  0.00    -0.042 NA
HETATM   19  C12 UNL     1      23.663   5.770  51.349  1.00  0.00     0.726 A 
HETATM   20  N5  UNL     1      24.067   4.495  51.330  1.00  0.00    -0.043 NA
BRANCH  19  21
HETATM   21  N6  UNL     1      24.333   6.929  51.886  1.00  0.00    -0.221 N 
HETATM   22  H10 UNL     1      24.630   7.109  52.890  1.00  0.00     0.177 HD
BRANCH  21  23
HETATM   23  C13 UNL     1      24.497   7.780  50.712  1.00  0.00     0.168 C 
BRANCH  23  24
HETATM   24  C14 UNL     1      25.825   7.557  50.033  1.00  0.00     0.286 C 
BRANCH  24  25
HETATM   25  N7  UNL     1      26.827   8.411  50.652  1.00  0.00     0.079 N 
HETATM   26  H15 UNL     1      27.625   7.786  50.955  1.00  0.00     0.312 HD
HETATM   27  H16 UNL     1      27.221   8.986  49.887  1.00  0.00     0.312 HD
ENDBRANCH  24  25
ENDBRANCH  23  24
ENDBRANCH  21  23
ENDBRANCH  19  21
ENDBRANCH   9  11
ENDBRANCH   1   9
TORSDOF 6
ENDMDL
