MODEL 1
REMARK VINA RESULT:      -7.5      0.000      0.000
REMARK  5 active torsions:
REMARK  status: ('A' for Active; 'I' for Inactive)
REMARK    1  A    between atoms: C5_5  and  S1_6 
REMARK    2  A    between atoms: S1_6  and  N1_7 
REMARK       I    between atoms: N1_7  and  C6_8 
REMARK    3  A    between atoms: C6_8  and  C7_10 
REMARK    4  A    between atoms: C8_11  and  O2_12 
REMARK    5  A    between atoms: O2_12  and  C9_13 
ROOT
HETATM    1  N1  UNL     1      24.256  -0.355  53.562  1.00  0.00    -0.292 N 
HETATM    2  C6  UNL     1      25.424  -0.659  54.271  1.00  0.00     0.260 C 
HETATM    3  O1  UNL     1      25.088  -1.302  55.268  1.00  0.00    -0.267 OA
HETATM    4  H6  UNL     1      24.148   0.182  52.661  1.00  0.00     0.177 HD
ENDROOT
BRANCH   2   5
HETATM    5  C7  UNL     1      26.697  -0.198  53.746  1.00  0.00     0.043 C 
HETATM    6  C8  UNL     1      27.055   1.055  53.785  1.00  0.00     0.065 C 
HETATM    7  C10 UNL     1      28.377   1.425  53.217  1.00  0.00     0.092 C 
HETATM    8  C11 UNL     1      29.391   0.505  53.820  1.00  0.00    -0.024 C 
HETATM    9  C12 UNL     1      29.058  -0.780  53.770  1.00  0.00    -0.026 C 
HETATM   10  C13 UNL     1      27.741  -1.027  53.120  1.00  0.00     0.073 C 
BRANCH   6  11
HETATM   11  O2  UNL     1      26.327   2.113  54.307  1.00  0.00    -0.316 OA
BRANCH  11  12
HETATM   12  C9  UNL     1      25.413   2.787  53.488  1.00  0.00     0.567 C 
HETATM   13  O3  UNL     1      24.180   2.623  53.198  1.00  0.00    -0.406 OA
ENDBRANCH  11  12
ENDBRANCH   6  11
ENDBRANCH   2   5
BRANCH   1  14
HETATM   14  S1  UNL     1      22.774  -0.966  54.297  1.00  0.00    -0.012 SA
BRANCH  14  15
HETATM   15  C5  UNL     1      21.339  -0.576  53.308  1.00  0.00     0.021 A 
HETATM   16  C4  UNL     1      21.353   0.110  52.111  1.00  0.00     0.021 A 
HETATM   17  C3  UNL     1      20.167   0.344  51.447  1.00  0.00     0.008 A 
HETATM   18  C2  UNL     1      18.938  -0.071  51.909  1.00  0.00    -0.062 A 
HETATM   19  C1  UNL     1      17.661   0.166  51.222  1.00  0.00     0.048 C 
HETATM   20  C15 UNL     1      18.981  -0.759  53.123  1.00  0.00     0.008 A 
HETATM   21  C14 UNL     1      20.140  -1.035  53.855  1.00  0.00     0.021 A 
ENDBRANCH  14  15
ENDBRANCH   1  14
TORSDOF 5
ENDMDL
MODEL 2
REMARK VINA RESULT:      -7.3      4.348      7.248
REMARK  5 active torsions:
REMARK  status: ('A' for Active; 'I' for Inactive)
REMARK    1  A    between atoms: C5_5  and  S1_6 
REMARK    2  A    between atoms: S1_6  and  N1_7 
REMARK       I    between atoms: N1_7  and  C6_8 
REMARK    3  A    between atoms: C6_8  and  C7_10 
REMARK    4  A    between atoms: C8_11  and  O2_12 
REMARK    5  A    between atoms: O2_12  and  C9_13 
ROOT
HETATM    1  N1  UNL     1      24.928   2.839  50.600  1.00  0.00    -0.292 N 
HETATM    2  C6  UNL     1      24.633   2.521  51.930  1.00  0.00     0.260 C 
HETATM    3  O1  UNL     1      24.171   3.537  52.454  1.00  0.00    -0.267 OA
HETATM    4  H6  UNL     1      25.336   2.226  49.846  1.00  0.00     0.177 HD
ENDROOT
BRANCH   2   5
HETATM    5  C7  UNL     1      24.904   1.174  52.401  1.00  0.00     0.043 C 
HETATM    6  C8  UNL     1      26.115   0.699  52.497  1.00  0.00     0.065 C 
HETATM    7  C10 UNL     1      26.285  -0.693  52.986  1.00  0.00     0.092 C 
HETATM    8  C11 UNL     1      25.503  -0.815  54.255  1.00  0.00    -0.024 C 
HETATM    9  C12 UNL     1      24.257  -0.360  54.174  1.00  0.00    -0.026 C 
HETATM   10  C13 UNL     1      23.909   0.176  52.829  1.00  0.00     0.073 C 
BRANCH   6  11
HETATM   11  O2  UNL     1      27.294   1.358  52.188  1.00  0.00    -0.316 OA
BRANCH  11  12
HETATM   12  C9  UNL     1      28.125   1.801  53.224  1.00  0.00     0.567 C 
HETATM   13  O3  UNL     1      28.010   2.666  54.157  1.00  0.00    -0.406 OA
ENDBRANCH  11  12
ENDBRANCH   6  11
ENDBRANCH   2   5
BRANCH   1  14
HETATM   14  S1  UNL     1      24.557   4.502  50.146  1.00  0.00    -0.012 SA
BRANCH  14  15
HETATM   15  C5  UNL     1      25.943   5.289  49.341  1.00  0.00     0.021 A 
HETATM   16  C4  UNL     1      25.995   6.609  48.943  1.00  0.00     0.021 A 
HETATM   17  C3  UNL     1      27.132   7.091  48.329  1.00  0.00     0.008 A 
HETATM   18  C2  UNL     1      28.249   6.324  48.080  1.00  0.00    -0.062 A 
HETATM   19  C1  UNL     1      29.472   6.812  47.429  1.00  0.00     0.048 C 
HETATM   20  C15 UNL     1      28.143   4.998  48.503  1.00  0.00     0.008 A 
HETATM   21  C14 UNL     1      27.027   4.436  49.130  1.00  0.00     0.021 A 
ENDBRANCH  14  15
ENDBRANCH   1  14
TORSDOF 5
ENDMDL
MODEL 3
REMARK VINA RESULT:      -7.2      3.477      6.564
REMARK  5 active torsions:
REMARK  status: ('A' for Active; 'I' for Inactive)
REMARK    1  A    between atoms: C5_5  and  S1_6 
REMARK    2  A    between atoms: S1_6  and  N1_7 
REMARK       I    between atoms: N1_7  and  C6_8 
REMARK    3  A    between atoms: C6_8  and  C7_10 
REMARK    4  A    between atoms: C8_11  and  O2_12 
REMARK    5  A    between atoms: O2_12  and  C9_13 
ROOT
HETATM    1  N1  UNL     1      23.379   2.549  52.393  1.00  0.00    -0.292 N 
HETATM    2  C6  UNL     1      23.089   1.249  51.963  1.00  0.00     0.260 C 
HETATM    3  O1  UNL     1      22.746   1.324  50.781  1.00  0.00    -0.267 OA
HETATM    4  H6  UNL     1      23.700   2.877  53.341  1.00  0.00     0.177 HD
ENDROOT
BRANCH   2   5
HETATM    5  C7  UNL     1      23.232   0.155  52.907  1.00  0.00     0.043 C 
HETATM    6  C8  UNL     1      24.274   0.033  53.681  1.00  0.00     0.065 C 
HETATM    7  C10 UNL     1      24.327  -1.125  54.610  1.00  0.00     0.092 C 
HETATM    8  C11 UNL     1      23.032  -1.152  55.358  1.00  0.00    -0.024 C 
HETATM    9  C12 UNL     1      21.954  -1.054  54.587  1.00  0.00    -0.026 C 
HETATM   10  C13 UNL     1      22.272  -0.939  53.137  1.00  0.00     0.073 C 
BRANCH   6  11
HETATM   11  O2  UNL     1      25.370   0.880  53.741  1.00  0.00    -0.316 OA
BRANCH  11  12
HETATM   12  C9  UNL     1      26.453   0.542  54.561  1.00  0.00     0.567 C 
HETATM   13  O3  UNL     1      27.578   1.084  54.828  1.00  0.00    -0.406 OA
ENDBRANCH  11  12
ENDBRANCH   6  11
ENDBRANCH   2   5
BRANCH   1  14
HETATM   14  S1  UNL     1      23.167   3.792  51.160  1.00  0.00    -0.012 SA
BRANCH  14  15
HETATM   15  C5  UNL     1      24.703   4.161  50.327  1.00  0.00     0.021 A 
HETATM   16  C4  UNL     1      25.702   3.251  50.048  1.00  0.00     0.021 A 
HETATM   17  C3  UNL     1      26.842   3.672  49.395  1.00  0.00     0.008 A 
HETATM   18  C2  UNL     1      27.056   4.972  48.993  1.00  0.00    -0.062 A 
HETATM   19  C1  UNL     1      28.261   5.446  48.298  1.00  0.00     0.048 C 
HETATM   20  C15 UNL     1      26.015   5.849  49.301  1.00  0.00     0.008 A 
HETATM   21  C14 UNL     1      24.832   5.501  49.958  1.00  0.00     0.021 A 
ENDBRANCH  14  15
ENDBRANCH   1  14
TORSDOF 5
ENDMDL
MODEL 4
REMARK VINA RESULT:      -7.1      4.439      7.048
REMARK  5 active torsions:
REMARK  status: ('A' for Active; 'I' for Inactive)
REMARK    1  A    between atoms: C5_5  and  S1_6 
REMARK    2  A    between atoms: S1_6  and  N1_7 
REMARK       I    between atoms: N1_7  and  C6_8 
REMARK    3  A    between atoms: C6_8  and  C7_10 
REMARK    4  A    between atoms: C8_11  and  O2_12 
REMARK    5  A    between atoms: O2_12  and  C9_13 
ROOT
HETATM    1  N1  UNL     1      25.741   3.276  51.650  1.00  0.00    -0.292 N 
HETATM    2  C6  UNL     1      26.570   2.149  51.662  1.00  0.00     0.260 C 
HETATM    3  O1  UNL     1      26.671   1.757  50.497  1.00  0.00    -0.267 OA
HETATM    4  H6  UNL     1      25.428   3.878  52.456  1.00  0.00     0.177 HD
ENDROOT
BRANCH   2   5
HETATM    5  C7  UNL     1      27.107   1.693  52.932  1.00  0.00     0.043 C 
HETATM    6  C8  UNL     1      26.611   0.671  53.573  1.00  0.00     0.065 C 
HETATM    7  C10 UNL     1      27.230   0.288  54.868  1.00  0.00     0.092 C 
HETATM    8  C11 UNL     1      28.705   0.179  54.639  1.00  0.00    -0.024 C 
HETATM    9  C12 UNL     1      29.236   1.221  54.009  1.00  0.00    -0.026 C 
HETATM   10  C13 UNL     1      28.243   2.277  53.666  1.00  0.00     0.073 C 
BRANCH   6  11
HETATM   11  O2  UNL     1      25.545  -0.121  53.178  1.00  0.00    -0.316 OA
BRANCH  11  12
HETATM   12  C9  UNL     1      24.238   0.307  53.441  1.00  0.00     0.567 C 
HETATM   13  O3  UNL     1      23.577   1.371  53.194  1.00  0.00    -0.406 OA
ENDBRANCH  11  12
ENDBRANCH   6  11
ENDBRANCH   2   5
BRANCH   1  14
HETATM   14  S1  UNL     1      25.150   3.732  50.052  1.00  0.00    -0.012 SA
BRANCH  14  15
HETATM   15  C5  UNL     1      26.188   4.973  49.295  1.00  0.00     0.021 A 
HETATM   16  C4  UNL     1      25.840   6.292  49.089  1.00  0.00     0.021 A 
HETATM   17  C3  UNL     1      26.741   7.148  48.491  1.00  0.00     0.008 A 
HETATM   18  C2  UNL     1      27.997   6.766  48.075  1.00  0.00    -0.062 A 
HETATM   19  C1  UNL     1      28.975   7.657  47.436  1.00  0.00     0.048 C 
HETATM   20  C15 UNL     1      28.298   5.423  48.307  1.00  0.00     0.008 A 
HETATM   21  C14 UNL     1      27.441   4.494  48.906  1.00  0.00     0.021 A 
ENDBRANCH  14  15
ENDBRANCH   1  14
TORSDOF 5
ENDMDL
MODEL 5
REMARK VINA RESULT:      -6.9      5.086      8.169
REMARK  5 active torsions:
REMARK  status: ('A' for Active; 'I' for Inactive)
REMARK    1  A    between atoms: C5_5  and  S1_6 
REMARK    2  A    between atoms: S1_6  and  N1_7 
REMARK       I    between atoms: N1_7  and  C6_8 
REMARK    3  A    between atoms: C6_8  and  C7_10 
REMARK    4  A    between atoms: C8_11  and  O2_12 
REMARK    5  A    between atoms: O2_12  and  C9_13 
ROOT
HETATM    1  N1  UNL     1      25.886   4.027  50.925  1.00  0.00    -0.292 N 
HETATM    2  C6  UNL     1      25.437   4.403  49.654  1.00  0.00     0.260 C 
HETATM    3  O1  UNL     1      24.762   3.468  49.215  1.00  0.00    -0.267 OA
HETATM    4  H6  UNL     1      26.488   4.566  51.602  1.00  0.00     0.177 HD
ENDROOT
BRANCH   2   5
HETATM    5  C7  UNL     1      25.818   5.705  49.137  1.00  0.00     0.043 C 
HETATM    6  C8  UNL     1      26.995   5.935  48.623  1.00  0.00     0.065 C 
HETATM    7  C10 UNL     1      27.288   7.304  48.126  1.00  0.00     0.092 C 
HETATM    8  C11 UNL     1      26.164   7.696  47.220  1.00  0.00    -0.024 C 
HETATM    9  C12 UNL     1      24.955   7.493  47.733  1.00  0.00    -0.026 C 
HETATM   10  C13 UNL     1      24.982   6.917  49.106  1.00  0.00     0.073 C 
BRANCH   6  11
HETATM   11  O2  UNL     1      28.034   5.028  48.483  1.00  0.00    -0.316 OA
BRANCH  11  12
HETATM   12  C9  UNL     1      29.320   5.498  48.193  1.00  0.00     0.567 C 
HETATM   13  O3  UNL     1      30.476   5.322  48.707  1.00  0.00    -0.406 OA
ENDBRANCH  11  12
ENDBRANCH   6  11
ENDBRANCH   2   5
BRANCH   1  14
HETATM   14  S1  UNL     1      25.361   2.425  51.442  1.00  0.00    -0.012 SA
BRANCH  14  15
HETATM   15  C5  UNL     1      26.689   1.513  52.213  1.00  0.00     0.021 A 
HETATM   16  C4  UNL     1      27.791   2.069  52.829  1.00  0.00     0.021 A 
HETATM   17  C3  UNL     1      28.746   1.246  53.387  1.00  0.00     0.008 A 
HETATM   18  C2  UNL     1      28.674  -0.130  53.369  1.00  0.00    -0.062 A 
HETATM   19  C1  UNL     1      29.678  -1.029  53.954  1.00  0.00     0.048 C 
HETATM   20  C15 UNL     1      27.541  -0.639  52.733  1.00  0.00     0.008 A 
HETATM   21  C14 UNL     1      26.530   0.128  52.146  1.00  0.00     0.021 A 
ENDBRANCH  14  15
ENDBRANCH   1  14
TORSDOF 5
ENDMDL
MODEL 6
REMARK VINA RESULT:      -6.9      2.124      7.594
REMARK  5 active torsions:
REMARK  status: ('A' for Active; 'I' for Inactive)
REMARK    1  A    between atoms: C5_5  and  S1_6 
REMARK    2  A    between atoms: S1_6  and  N1_7 
REMARK       I    between atoms: N1_7  and  C6_8 
REMARK    3  A    between atoms: C6_8  and  C7_10 
REMARK    4  A    between atoms: C8_11  and  O2_12 
REMARK    5  A    between atoms: O2_12  and  C9_13 
ROOT
HETATM    1  N1  UNL     1      23.771   1.130  51.999  1.00  0.00    -0.292 N 
HETATM    2  C6  UNL     1      22.622   1.675  51.415  1.00  0.00     0.260 C 
HETATM    3  O1  UNL     1      22.940   2.764  50.932  1.00  0.00    -0.267 OA
HETATM    4  H6  UNL     1      23.886   0.214  52.506  1.00  0.00     0.177 HD
ENDROOT
BRANCH   2   5
HETATM    5  C7  UNL     1      21.382   0.922  51.483  1.00  0.00     0.043 C 
HETATM    6  C8  UNL     1      20.893   0.485  52.610  1.00  0.00     0.065 C 
HETATM    7  C10 UNL     1      19.620  -0.280  52.573  1.00  0.00     0.092 C 
HETATM    8  C11 UNL     1      18.641   0.530  51.782  1.00  0.00    -0.024 C 
HETATM    9  C12 UNL     1      19.109   0.967  50.619  1.00  0.00    -0.026 C 
HETATM   10  C13 UNL     1      20.515   0.552  50.352  1.00  0.00     0.073 C 
BRANCH   6  11
HETATM   11  O2  UNL     1      21.437   0.651  53.874  1.00  0.00    -0.316 OA
BRANCH  11  12
HETATM   12  C9  UNL     1      21.339  -0.389  54.806  1.00  0.00     0.567 C 
HETATM   13  O3  UNL     1      22.045  -1.417  55.079  1.00  0.00    -0.406 OA
ENDBRANCH  11  12
ENDBRANCH   6  11
ENDBRANCH   2   5
BRANCH   1  14
HETATM   14  S1  UNL     1      25.213   2.135  51.853  1.00  0.00    -0.012 SA
BRANCH  14  15
HETATM   15  C5  UNL     1      26.665   1.296  52.466  1.00  0.00     0.021 A 
HETATM   16  C4  UNL     1      27.801   1.911  52.951  1.00  0.00     0.021 A 
HETATM   17  C3  UNL     1      28.855   1.140  53.395  1.00  0.00     0.008 A 
HETATM   18  C2  UNL     1      28.850  -0.237  53.388  1.00  0.00    -0.062 A 
HETATM   19  C1  UNL     1      29.959  -1.081  53.855  1.00  0.00     0.048 C 
HETATM   20  C15 UNL     1      27.678  -0.807  52.888  1.00  0.00     0.008 A 
HETATM   21  C14 UNL     1      26.569  -0.096  52.419  1.00  0.00     0.021 A 
ENDBRANCH  14  15
ENDBRANCH   1  14
TORSDOF 5
ENDMDL
MODEL 7
REMARK VINA RESULT:      -6.8      2.751      6.829
REMARK  5 active torsions:
REMARK  status: ('A' for Active; 'I' for Inactive)
REMARK    1  A    between atoms: C5_5  and  S1_6 
REMARK    2  A    between atoms: S1_6  and  N1_7 
REMARK       I    between atoms: N1_7  and  C6_8 
REMARK    3  A    between atoms: C6_8  and  C7_10 
REMARK    4  A    between atoms: C8_11  and  O2_12 
REMARK    5  A    between atoms: O2_12  and  C9_13 
ROOT
HETATM    1  N1  UNL     1      23.386   0.339  52.184  1.00  0.00    -0.292 N 
HETATM    2  C6  UNL     1      23.202   1.701  51.924  1.00  0.00     0.260 C 
HETATM    3  O1  UNL     1      23.509   2.313  52.950  1.00  0.00    -0.267 OA
HETATM    4  H6  UNL     1      23.225  -0.485  51.548  1.00  0.00     0.177 HD
ENDROOT
BRANCH   2   5
HETATM    5  C7  UNL     1      22.724   2.102  50.612  1.00  0.00     0.043 C 
HETATM    6  C8  UNL     1      23.439   2.834  49.804  1.00  0.00     0.065 C 
HETATM    7  C10 UNL     1      22.858   3.194  48.485  1.00  0.00     0.092 C 
HETATM    8  C11 UNL     1      22.371   1.927  47.856  1.00  0.00    -0.024 C 
HETATM    9  C12 UNL     1      21.620   1.175  48.654  1.00  0.00    -0.026 C 
HETATM   10  C13 UNL     1      21.425   1.762  50.009  1.00  0.00     0.073 C 
BRANCH   6  11
HETATM   11  O2  UNL     1      24.712   3.332  50.036  1.00  0.00    -0.316 OA
BRANCH  11  12
HETATM   12  C9  UNL     1      24.864   4.664  50.439  1.00  0.00     0.567 C 
HETATM   13  O3  UNL     1      24.180   5.465  51.161  1.00  0.00    -0.406 OA
ENDBRANCH  11  12
ENDBRANCH   6  11
ENDBRANCH   2   5
BRANCH   1  14
HETATM   14  S1  UNL     1      23.967  -0.024  53.809  1.00  0.00    -0.012 SA
BRANCH  14  15
HETATM   15  C5  UNL     1      25.744  -0.187  53.853  1.00  0.00     0.021 A 
HETATM   16  C4  UNL     1      26.577   0.362  54.806  1.00  0.00     0.021 A 
HETATM   17  C3  UNL     1      27.938   0.157  54.720  1.00  0.00     0.008 A 
HETATM   18  C2  UNL     1      28.539  -0.576  53.721  1.00  0.00    -0.062 A 
HETATM   19  C1  UNL     1      29.985  -0.809  53.607  1.00  0.00     0.048 C 
HETATM   20  C15 UNL     1      27.652  -1.108  52.784  1.00  0.00     0.008 A 
HETATM   21  C14 UNL     1      26.263  -0.946  52.802  1.00  0.00     0.021 A 
ENDBRANCH  14  15
ENDBRANCH   1  14
TORSDOF 5
ENDMDL
MODEL 8
REMARK VINA RESULT:      -6.8      4.398      6.232
REMARK  5 active torsions:
REMARK  status: ('A' for Active; 'I' for Inactive)
REMARK    1  A    between atoms: C5_5  and  S1_6 
REMARK    2  A    between atoms: S1_6  and  N1_7 
REMARK       I    between atoms: N1_7  and  C6_8 
REMARK    3  A    between atoms: C6_8  and  C7_10 
REMARK    4  A    between atoms: C8_11  and  O2_12 
REMARK    5  A    between atoms: O2_12  and  C9_13 
ROOT
HETATM    1  N1  UNL     1      26.208   3.596  51.063  1.00  0.00    -0.292 N 
HETATM    2  C6  UNL     1      26.516   3.771  49.709  1.00  0.00     0.260 C 
HETATM    3  O1  UNL     1      27.045   2.728  49.318  1.00  0.00    -0.267 OA
HETATM    4  H6  UNL     1      25.751   4.270  51.732  1.00  0.00     0.177 HD
ENDROOT
BRANCH   2   5
HETATM    5  C7  UNL     1      26.184   5.036  49.077  1.00  0.00     0.043 C 
HETATM    6  C8  UNL     1      24.954   5.450  48.949  1.00  0.00     0.065 C 
HETATM    7  C10 UNL     1      24.721   6.758  48.283  1.00  0.00     0.092 C 
HETATM    8  C11 UNL     1      25.612   7.758  48.948  1.00  0.00    -0.024 C 
HETATM    9  C12 UNL     1      26.876   7.367  49.068  1.00  0.00    -0.026 C 
HETATM   10  C13 UNL     1      27.132   6.010  48.511  1.00  0.00     0.073 C 
BRANCH   6  11
HETATM   11  O2  UNL     1      23.807   4.797  49.371  1.00  0.00    -0.316 OA
BRANCH  11  12
HETATM   12  C9  UNL     1      23.198   5.186  50.569  1.00  0.00     0.567 C 
HETATM   13  O3  UNL     1      23.582   5.270  51.785  1.00  0.00    -0.406 OA
ENDBRANCH  11  12
ENDBRANCH   6  11
ENDBRANCH   2   5
BRANCH   1  14
HETATM   14  S1  UNL     1      26.659   2.022  51.718  1.00  0.00    -0.012 SA
BRANCH  14  15
HETATM   15  C5  UNL     1      25.234   1.121  52.307  1.00  0.00     0.021 A 
HETATM   16  C4  UNL     1      25.260   0.090  53.223  1.00  0.00     0.021 A 
HETATM   17  C3  UNL     1      24.080  -0.521  53.593  1.00  0.00     0.008 A 
HETATM   18  C2  UNL     1      22.846  -0.163  53.097  1.00  0.00    -0.062 A 
HETATM   19  C1  UNL     1      21.575  -0.798  53.474  1.00  0.00     0.048 C 
HETATM   20  C15 UNL     1      22.877   0.884  52.175  1.00  0.00     0.008 A 
HETATM   21  C14 UNL     1      24.028   1.554  51.751  1.00  0.00     0.021 A 
ENDBRANCH  14  15
ENDBRANCH   1  14
TORSDOF 5
ENDMDL
MODEL 9
REMARK VINA RESULT:      -6.7      2.389      3.743
REMARK  5 active torsions:
REMARK  status: ('A' for Active; 'I' for Inactive)
REMARK    1  A    between atoms: C5_5  and  S1_6 
REMARK    2  A    between atoms: S1_6  and  N1_7 
REMARK       I    between atoms: N1_7  and  C6_8 
REMARK    3  A    between atoms: C6_8  and  C7_10 
REMARK    4  A    between atoms: C8_11  and  O2_12 
REMARK    5  A    between atoms: O2_12  and  C9_13 
ROOT
HETATM    1  N1  UNL     1      22.269   0.874  51.128  1.00  0.00    -0.292 N 
HETATM    2  C6  UNL     1      22.954   1.581  52.123  1.00  0.00     0.260 C 
HETATM    3  O1  UNL     1      22.266   2.563  52.412  1.00  0.00    -0.267 OA
HETATM    4  H6  UNL     1      22.547  -0.014  50.635  1.00  0.00     0.177 HD
ENDROOT
BRANCH   2   5
HETATM    5  C7  UNL     1      24.233   1.070  52.585  1.00  0.00     0.043 C 
HETATM    6  C8  UNL     1      24.354  -0.100  53.147  1.00  0.00     0.065 C 
HETATM    7  C10 UNL     1      25.706  -0.528  53.590  1.00  0.00     0.092 C 
HETATM    8  C11 UNL     1      26.633  -0.333  52.432  1.00  0.00    -0.024 C 
HETATM    9  C12 UNL     1      26.544   0.862  51.858  1.00  0.00    -0.026 C 
HETATM   10  C13 UNL     1      25.535   1.752  52.496  1.00  0.00     0.073 C 
BRANCH   6  11
HETATM   11  O2  UNL     1      23.343  -1.017  53.389  1.00  0.00    -0.316 OA
BRANCH  11  12
HETATM   12  C9  UNL     1      22.686  -1.003  54.625  1.00  0.00     0.567 C 
HETATM   13  O3  UNL     1      22.314  -1.903  55.452  1.00  0.00    -0.406 OA
ENDBRANCH  11  12
ENDBRANCH   6  11
ENDBRANCH   2   5
BRANCH   1  14
HETATM   14  S1  UNL     1      20.731   1.592  50.648  1.00  0.00    -0.012 SA
BRANCH  14  15
HETATM   15  C5  UNL     1      19.346   0.611  51.204  1.00  0.00     0.021 A 
HETATM   16  C4  UNL     1      19.267  -0.054  52.410  1.00  0.00     0.021 A 
HETATM   17  C3  UNL     1      18.133  -0.777  52.715  1.00  0.00     0.008 A 
HETATM   18  C2  UNL     1      17.046  -0.885  51.876  1.00  0.00    -0.062 A 
HETATM   19  C1  UNL     1      15.828  -1.649  52.177  1.00  0.00     0.048 C 
HETATM   20  C15 UNL     1      17.179  -0.193  50.671  1.00  0.00     0.008 A 
HETATM   21  C14 UNL     1      18.292   0.561  50.289  1.00  0.00     0.021 A 
ENDBRANCH  14  15
ENDBRANCH   1  14
TORSDOF 5
ENDMDL
