MODEL 1
REMARK VINA RESULT:      -6.7      0.000      0.000
REMARK  6 active torsions:
REMARK  status: ('A' for Active; 'I' for Inactive)
REMARK    1  A    between atoms: C2_2  and  C3_3 
REMARK    2  A    between atoms: C3_3  and  C4_4 
REMARK    3  A    between atoms: C4_4  and  C5_5 
REMARK       I    between atoms: C5_5  and  N1_7 
REMARK    4  A    between atoms: N1_7  and  C6_8 
REMARK    5  A    between atoms: C11_15  and  C12_16 
REMARK    6  A    between atoms: C12_16  and  C13_17 
ROOT
HETATM    1  C13 UNL     1      27.382  -0.013  52.855  1.00  0.00    -0.084 C 
HETATM    2  C14 UNL     1      28.255  -0.891  53.106  1.00  0.00     0.005 C 
HETATM    3 CL1  UNL     1      29.464  -2.062  53.445  1.00  0.00    -0.023 Cl
ENDROOT
BRANCH   1   4
HETATM    4  C12 UNL     1      26.364   0.982  52.584  1.00  0.00     0.151 C 
BRANCH   4   5
HETATM    5  C11 UNL     1      24.981   0.505  52.863  1.00  0.00     0.040 C 
HETATM    6  N3  UNL     1      24.258  -0.453  53.271  1.00  0.00    -0.249 NA
HETATM    7  C10 UNL     1      22.870  -0.551  53.435  1.00  0.00     0.233 C 
HETATM    8  N2  UNL     1      22.312   0.537  53.134  1.00  0.00    -0.245 NA
HETATM    9  C9  UNL     1      22.815   1.759  52.704  1.00  0.00     0.051 A 
HETATM   10  C8  UNL     1      22.556   3.044  52.601  1.00  0.00     0.030 A 
HETATM   11  C15 UNL     1      24.133   1.439  52.148  1.00  0.00     0.136 A 
HETATM   12  C7  UNL     1      23.726   3.680  51.979  1.00  0.00     0.028 A 
HETATM   13  C6  UNL     1      24.655   2.745  51.728  1.00  0.00     0.028 A 
BRANCH  13  14
HETATM   14  N1  UNL     1      25.742   3.455  51.133  1.00  0.00    -0.319 N 
HETATM   15  C5  UNL     1      25.783   3.723  49.725  1.00  0.00     0.300 C 
HETATM   16  O1  UNL     1      24.871   3.344  48.942  1.00  0.00    -0.258 OA
HETATM   17  H6  UNL     1      26.584   3.829  51.651  1.00  0.00     0.169 HD
BRANCH  15  18
HETATM   18  C4  UNL     1      26.875   4.443  49.144  1.00  0.00    -0.005 C 
BRANCH  18  19
HETATM   19  C3  UNL     1      27.819   5.087  48.631  1.00  0.00    -0.097 C 
BRANCH  19  20
HETATM   20  C2  UNL     1      28.925   5.812  48.046  1.00  0.00     0.090 C 
HETATM   21  C1  UNL     1      28.490   7.180  47.514  1.00  0.00     0.018 C 
ENDBRANCH  19  20
ENDBRANCH  18  19
ENDBRANCH  15  18
ENDBRANCH  13  14
ENDBRANCH   4   5
ENDBRANCH   1   4
TORSDOF 6
ENDMDL
MODEL 2
REMARK VINA RESULT:      -6.5      2.929      5.712
REMARK  6 active torsions:
REMARK  status: ('A' for Active; 'I' for Inactive)
REMARK    1  A    between atoms: C2_2  and  C3_3 
REMARK    2  A    between atoms: C3_3  and  C4_4 
REMARK    3  A    between atoms: C4_4  and  C5_5 
REMARK       I    between atoms: C5_5  and  N1_7 
REMARK    4  A    between atoms: N1_7  and  C6_8 
REMARK    5  A    between atoms: C11_15  and  C12_16 
REMARK    6  A    between atoms: C12_16  and  C13_17 
ROOT
HETATM    1  C13 UNL     1      26.307   3.945  49.504  1.00  0.00    -0.084 C 
HETATM    2  C14 UNL     1      27.137   4.727  48.959  1.00  0.00     0.005 C 
HETATM    3 CL1  UNL     1      28.256   5.778  48.192  1.00  0.00    -0.023 Cl
ENDROOT
BRANCH   1   4
HETATM    4  C12 UNL     1      25.350   3.067  50.146  1.00  0.00     0.151 C 
BRANCH   4   5
HETATM    5  C11 UNL     1      24.064   3.738  50.481  1.00  0.00     0.040 C 
HETATM    6  N3  UNL     1      23.293   4.717  50.249  1.00  0.00    -0.249 NA
HETATM    7  C10 UNL     1      22.042   5.049  50.784  1.00  0.00     0.233 C 
HETATM    8  N2  UNL     1      21.667   4.171  51.606  1.00  0.00    -0.245 NA
HETATM    9  C9  UNL     1      22.248   2.986  52.039  1.00  0.00     0.051 A 
HETATM   10  C8  UNL     1      22.009   1.822  52.602  1.00  0.00     0.030 A 
HETATM   11  C15 UNL     1      23.676   3.148  51.747  1.00  0.00     0.136 A 
HETATM   12  C7  UNL     1      23.289   1.108  52.698  1.00  0.00     0.028 A 
HETATM   13  C6  UNL     1      24.263   1.875  52.186  1.00  0.00     0.028 A 
BRANCH  13  14
HETATM   14  N1  UNL     1      25.454   1.101  52.321  1.00  0.00    -0.319 N 
HETATM   15  C5  UNL     1      26.413   1.372  53.353  1.00  0.00     0.300 C 
HETATM   16  O1  UNL     1      26.258   2.306  54.185  1.00  0.00    -0.258 OA
HETATM   17  H6  UNL     1      25.733   0.293  51.699  1.00  0.00     0.169 HD
BRANCH  15  18
HETATM   18  C4  UNL     1      27.599   0.583  53.482  1.00  0.00    -0.005 C 
BRANCH  18  19
HETATM   19  C3  UNL     1      28.639  -0.110  53.576  1.00  0.00    -0.097 C 
BRANCH  19  20
HETATM   20  C2  UNL     1      29.825  -0.929  53.691  1.00  0.00     0.090 C 
HETATM   21  C1  UNL     1      29.535  -2.396  53.364  1.00  0.00     0.018 C 
ENDBRANCH  19  20
ENDBRANCH  18  19
ENDBRANCH  15  18
ENDBRANCH  13  14
ENDBRANCH   4   5
ENDBRANCH   1   4
TORSDOF 6
ENDMDL
MODEL 3
REMARK VINA RESULT:      -6.5      3.119      5.563
REMARK  6 active torsions:
REMARK  status: ('A' for Active; 'I' for Inactive)
REMARK    1  A    between atoms: C2_2  and  C3_3 
REMARK    2  A    between atoms: C3_3  and  C4_4 
REMARK    3  A    between atoms: C4_4  and  C5_5 
REMARK       I    between atoms: C5_5  and  N1_7 
REMARK    4  A    between atoms: N1_7  and  C6_8 
REMARK    5  A    between atoms: C11_15  and  C12_16 
REMARK    6  A    between atoms: C12_16  and  C13_17 
ROOT
HETATM    1  C13 UNL     1      24.459   3.026  50.063  1.00  0.00    -0.084 C 
HETATM    2  C14 UNL     1      25.310   3.846  49.616  1.00  0.00     0.005 C 
HETATM    3 CL1  UNL     1      26.443   4.983  49.007  1.00  0.00    -0.023 Cl
ENDROOT
BRANCH   1   4
HETATM    4  C12 UNL     1      23.502   2.076  50.592  1.00  0.00     0.151 C 
BRANCH   4   5
HETATM    5  C11 UNL     1      22.250   2.712  51.089  1.00  0.00     0.040 C 
HETATM    6  N3  UNL     1      21.411   3.649  50.936  1.00  0.00    -0.249 NA
HETATM    7  C10 UNL     1      20.238   3.956  51.638  1.00  0.00     0.233 C 
HETATM    8  N2  UNL     1      20.029   3.103  52.542  1.00  0.00    -0.245 NA
HETATM    9  C9  UNL     1      20.720   1.963  52.930  1.00  0.00     0.051 A 
HETATM   10  C8  UNL     1      20.619   0.818  53.568  1.00  0.00     0.030 A 
HETATM   11  C15 UNL     1      22.080   2.166  52.422  1.00  0.00     0.136 A 
HETATM   12  C7  UNL     1      21.931   0.158  53.500  1.00  0.00     0.028 A 
HETATM   13  C6  UNL     1      22.783   0.939  52.818  1.00  0.00     0.028 A 
BRANCH  13  14
HETATM   14  N1  UNL     1      24.015   0.218  52.804  1.00  0.00    -0.319 N 
HETATM   15  C5  UNL     1      25.243   0.822  53.233  1.00  0.00     0.300 C 
HETATM   16  O1  UNL     1      25.299   2.015  53.636  1.00  0.00    -0.258 OA
HETATM   17  H6  UNL     1      24.135  -0.783  52.487  1.00  0.00     0.169 HD
BRANCH  15  18
HETATM   18  C4  UNL     1      26.469   0.086  53.222  1.00  0.00    -0.005 C 
BRANCH  18  19
HETATM   19  C3  UNL     1      27.544  -0.558  53.232  1.00  0.00    -0.097 C 
BRANCH  19  20
HETATM   20  C2  UNL     1      28.772  -1.322  53.233  1.00  0.00     0.090 C 
HETATM   21  C1  UNL     1      29.985  -0.447  53.560  1.00  0.00     0.018 C 
ENDBRANCH  19  20
ENDBRANCH  18  19
ENDBRANCH  15  18
ENDBRANCH  13  14
ENDBRANCH   4   5
ENDBRANCH   1   4
TORSDOF 6
ENDMDL
MODEL 4
REMARK VINA RESULT:      -6.2      3.465      4.841
REMARK  6 active torsions:
REMARK  status: ('A' for Active; 'I' for Inactive)
REMARK    1  A    between atoms: C2_2  and  C3_3 
REMARK    2  A    between atoms: C3_3  and  C4_4 
REMARK    3  A    between atoms: C4_4  and  C5_5 
REMARK       I    between atoms: C5_5  and  N1_7 
REMARK    4  A    between atoms: N1_7  and  C6_8 
REMARK    5  A    between atoms: C11_15  and  C12_16 
REMARK    6  A    between atoms: C12_16  and  C13_17 
ROOT
HETATM    1  C13 UNL     1      20.682   1.118  50.643  1.00  0.00    -0.084 C 
HETATM    2  C14 UNL     1      19.625   1.531  50.088  1.00  0.00     0.005 C 
HETATM    3 CL1  UNL     1      18.197   2.121  49.339  1.00  0.00    -0.023 Cl
ENDROOT
BRANCH   1   4
HETATM    4  C12 UNL     1      21.896   0.627  51.263  1.00  0.00     0.151 C 
BRANCH   4   5
HETATM    5  C11 UNL     1      21.664  -0.038  52.574  1.00  0.00     0.040 C 
HETATM    6  N3  UNL     1      20.814  -0.564  53.354  1.00  0.00    -0.249 NA
HETATM    7  C10 UNL     1      20.967  -1.160  54.613  1.00  0.00     0.233 C 
HETATM    8  N2  UNL     1      22.180  -1.164  54.954  1.00  0.00    -0.245 NA
HETATM    9  C9  UNL     1      23.331  -0.714  54.322  1.00  0.00     0.051 A 
HETATM   10  C8  UNL     1      24.641  -0.826  54.280  1.00  0.00     0.030 A 
HETATM   11  C15 UNL     1      22.854   0.268  53.344  1.00  0.00     0.136 A 
HETATM   12  C7  UNL     1      25.127   0.078  53.228  1.00  0.00     0.028 A 
HETATM   13  C6  UNL     1      24.082   0.707  52.669  1.00  0.00     0.028 A 
BRANCH  13  14
HETATM   14  N1  UNL     1      24.651   1.551  51.668  1.00  0.00    -0.319 N 
HETATM   15  C5  UNL     1      24.639   2.979  51.794  1.00  0.00     0.300 C 
HETATM   16  O1  UNL     1      24.124   3.561  52.786  1.00  0.00    -0.258 OA
HETATM   17  H6  UNL     1      25.111   1.218  50.777  1.00  0.00     0.169 HD
BRANCH  15  18
HETATM   18  C4  UNL     1      25.220   3.812  50.787  1.00  0.00    -0.005 C 
BRANCH  18  19
HETATM   19  C3  UNL     1      25.737   4.553  49.918  1.00  0.00    -0.097 C 
BRANCH  19  20
HETATM   20  C2  UNL     1      26.310   5.410  48.905  1.00  0.00     0.090 C 
HETATM   21  C1  UNL     1      27.754   5.019  48.579  1.00  0.00     0.018 C 
ENDBRANCH  19  20
ENDBRANCH  18  19
ENDBRANCH  15  18
ENDBRANCH  13  14
ENDBRANCH   4   5
ENDBRANCH   1   4
TORSDOF 6
ENDMDL
MODEL 5
REMARK VINA RESULT:      -6.2      3.757      6.953
REMARK  6 active torsions:
REMARK  status: ('A' for Active; 'I' for Inactive)
REMARK    1  A    between atoms: C2_2  and  C3_3 
REMARK    2  A    between atoms: C3_3  and  C4_4 
REMARK    3  A    between atoms: C4_4  and  C5_5 
REMARK       I    between atoms: C5_5  and  N1_7 
REMARK    4  A    between atoms: N1_7  and  C6_8 
REMARK    5  A    between atoms: C11_15  and  C12_16 
REMARK    6  A    between atoms: C12_16  and  C13_17 
ROOT
HETATM    1  C13 UNL     1      24.501   2.308  51.318  1.00  0.00    -0.084 C 
HETATM    2  C14 UNL     1      24.973   3.158  50.512  1.00  0.00     0.005 C 
HETATM    3 CL1  UNL     1      25.635   4.293  49.407  1.00  0.00    -0.023 Cl
ENDROOT
BRANCH   1   4
HETATM    4  C12 UNL     1      23.936   1.340  52.238  1.00  0.00     0.151 C 
BRANCH   4   5
HETATM    5  C11 UNL     1      24.918   0.826  53.232  1.00  0.00     0.040 C 
HETATM    6  N3  UNL     1      26.097   0.910  53.691  1.00  0.00    -0.249 NA
HETATM    7  C10 UNL     1      26.726   0.224  54.737  1.00  0.00     0.233 C 
HETATM    8  N2  UNL     1      25.922  -0.574  55.288  1.00  0.00    -0.245 NA
HETATM    9  C9  UNL     1      24.584  -0.865  55.054  1.00  0.00     0.051 A 
HETATM   10  C8  UNL     1      23.493  -1.372  55.584  1.00  0.00     0.030 A 
HETATM   11  C15 UNL     1      24.350  -0.433  53.673  1.00  0.00     0.136 A 
HETATM   12  C7  UNL     1      22.431  -1.284  54.572  1.00  0.00     0.028 A 
HETATM   13  C6  UNL     1      22.926  -0.722  53.459  1.00  0.00     0.028 A 
BRANCH  13  14
HETATM   14  N1  UNL     1      21.829  -0.678  52.547  1.00  0.00    -0.319 N 
HETATM   15  C5  UNL     1      20.718   0.205  52.750  1.00  0.00     0.300 C 
HETATM   16  O1  UNL     1      20.648   0.980  53.742  1.00  0.00    -0.258 OA
HETATM   17  H6  UNL     1      21.735  -1.268  51.675  1.00  0.00     0.169 HD
BRANCH  15  18
HETATM   18  C4  UNL     1      19.630   0.245  51.823  1.00  0.00    -0.005 C 
BRANCH  18  19
HETATM   19  C3  UNL     1      18.667   0.267  51.020  1.00  0.00    -0.097 C 
BRANCH  19  20
HETATM   20  C2  UNL     1      17.571   0.306  50.079  1.00  0.00     0.090 C 
HETATM   21  C1  UNL     1      16.287  -0.275  50.677  1.00  0.00     0.018 C 
ENDBRANCH  19  20
ENDBRANCH  18  19
ENDBRANCH  15  18
ENDBRANCH  13  14
ENDBRANCH   4   5
ENDBRANCH   1   4
TORSDOF 6
ENDMDL
MODEL 6
REMARK VINA RESULT:      -6.1      3.463      4.816
REMARK  6 active torsions:
REMARK  status: ('A' for Active; 'I' for Inactive)
REMARK    1  A    between atoms: C2_2  and  C3_3 
REMARK    2  A    between atoms: C3_3  and  C4_4 
REMARK    3  A    between atoms: C4_4  and  C5_5 
REMARK       I    between atoms: C5_5  and  N1_7 
REMARK    4  A    between atoms: N1_7  and  C6_8 
REMARK    5  A    between atoms: C11_15  and  C12_16 
REMARK    6  A    between atoms: C12_16  and  C13_17 
ROOT
HETATM    1  C13 UNL     1      20.897   0.088  52.423  1.00  0.00    -0.084 C 
HETATM    2  C14 UNL     1      19.650  -0.112  52.377  1.00  0.00     0.005 C 
HETATM    3 CL1  UNL     1      17.953  -0.365  52.338  1.00  0.00    -0.023 Cl
ENDROOT
BRANCH   1   4
HETATM    4  C12 UNL     1      22.327   0.318  52.451  1.00  0.00     0.151 C 
BRANCH   4   5
HETATM    5  C11 UNL     1      23.006  -0.319  53.613  1.00  0.00     0.040 C 
HETATM    6  N3  UNL     1      22.862  -0.951  54.702  1.00  0.00    -0.249 NA
HETATM    7  C10 UNL     1      23.808  -1.454  55.605  1.00  0.00     0.233 C 
HETATM    8  N2  UNL     1      24.977  -1.231  55.190  1.00  0.00    -0.245 NA
HETATM    9  C9  UNL     1      25.460  -0.614  54.043  1.00  0.00     0.051 A 
HETATM   10  C8  UNL     1      26.504  -0.496  53.252  1.00  0.00     0.030 A 
HETATM   11  C15 UNL     1      24.350   0.225  53.581  1.00  0.00     0.136 A 
HETATM   12  C7  UNL     1      26.137   0.432  52.173  1.00  0.00     0.028 A 
HETATM   13  C6  UNL     1      24.873   0.843  52.355  1.00  0.00     0.028 A 
BRANCH  13  14
HETATM   14  N1  UNL     1      24.611   1.728  51.266  1.00  0.00    -0.319 N 
HETATM   15  C5  UNL     1      24.252   3.100  51.483  1.00  0.00     0.300 C 
HETATM   16  O1  UNL     1      24.144   3.591  52.639  1.00  0.00    -0.258 OA
HETATM   17  H6  UNL     1      24.651   1.468  50.243  1.00  0.00     0.169 HD
BRANCH  15  18
HETATM   18  C4  UNL     1      24.001   3.978  50.382  1.00  0.00    -0.005 C 
BRANCH  18  19
HETATM   19  C3  UNL     1      23.800   4.750  49.415  1.00  0.00    -0.097 C 
BRANCH  19  20
HETATM   20  C2  UNL     1      23.546   5.627  48.295  1.00  0.00     0.090 C 
HETATM   21  C1  UNL     1      24.618   6.713  48.170  1.00  0.00     0.018 C 
ENDBRANCH  19  20
ENDBRANCH  18  19
ENDBRANCH  15  18
ENDBRANCH  13  14
ENDBRANCH   4   5
ENDBRANCH   1   4
TORSDOF 6
ENDMDL
MODEL 7
REMARK VINA RESULT:      -6.0      2.418      6.370
REMARK  6 active torsions:
REMARK  status: ('A' for Active; 'I' for Inactive)
REMARK    1  A    between atoms: C2_2  and  C3_3 
REMARK    2  A    between atoms: C3_3  and  C4_4 
REMARK    3  A    between atoms: C4_4  and  C5_5 
REMARK       I    between atoms: C5_5  and  N1_7 
REMARK    4  A    between atoms: N1_7  and  C6_8 
REMARK    5  A    between atoms: C11_15  and  C12_16 
REMARK    6  A    between atoms: C12_16  and  C13_17 
ROOT
HETATM    1  C13 UNL     1      26.834   2.420  51.245  1.00  0.00    -0.084 C 
HETATM    2  C14 UNL     1      27.403   2.232  52.357  1.00  0.00     0.005 C 
HETATM    3 CL1  UNL     1      28.195   2.002  53.863  1.00  0.00    -0.023 Cl
ENDROOT
BRANCH   1   4
HETATM    4  C12 UNL     1      26.159   2.629  49.980  1.00  0.00     0.151 C 
BRANCH   4   5
HETATM    5  C11 UNL     1      26.339   4.002  49.433  1.00  0.00     0.040 C 
HETATM    6  N3  UNL     1      27.164   4.887  49.056  1.00  0.00    -0.249 NA
HETATM    7  C10 UNL     1      26.959   6.171  48.534  1.00  0.00     0.233 C 
HETATM    8  N2  UNL     1      25.728   6.410  48.422  1.00  0.00    -0.245 NA
HETATM    9  C9  UNL     1      24.598   5.652  48.702  1.00  0.00     0.051 A 
HETATM   10  C8  UNL     1      23.316   5.512  48.447  1.00  0.00     0.030 A 
HETATM   11  C15 UNL     1      25.059   4.645  49.661  1.00  0.00     0.136 A 
HETATM   12  C7  UNL     1      22.837   4.357  49.220  1.00  0.00     0.028 A 
HETATM   13  C6  UNL     1      23.859   3.840  49.919  1.00  0.00     0.028 A 
BRANCH  13  14
HETATM   14  N1  UNL     1      23.300   2.733  50.627  1.00  0.00    -0.319 N 
HETATM   15  C5  UNL     1      23.245   2.709  52.060  1.00  0.00     0.300 C 
HETATM   16  O1  UNL     1      23.689   3.655  52.765  1.00  0.00    -0.258 OA
HETATM   17  H6  UNL     1      22.895   1.864  50.182  1.00  0.00     0.169 HD
BRANCH  15  18
HETATM   18  C4  UNL     1      22.674   1.598  52.756  1.00  0.00    -0.005 C 
BRANCH  18  19
HETATM   19  C3  UNL     1      22.181   0.630  53.382  1.00  0.00    -0.097 C 
BRANCH  19  20
HETATM   20  C2  UNL     1      21.590  -0.479  54.096  1.00  0.00     0.090 C 
HETATM   21  C1  UNL     1      22.608  -1.182  54.998  1.00  0.00     0.018 C 
ENDBRANCH  19  20
ENDBRANCH  18  19
ENDBRANCH  15  18
ENDBRANCH  13  14
ENDBRANCH   4   5
ENDBRANCH   1   4
TORSDOF 6
ENDMDL
MODEL 8
REMARK VINA RESULT:      -5.8      3.554      5.016
REMARK  6 active torsions:
REMARK  status: ('A' for Active; 'I' for Inactive)
REMARK    1  A    between atoms: C2_2  and  C3_3 
REMARK    2  A    between atoms: C3_3  and  C4_4 
REMARK    3  A    between atoms: C4_4  and  C5_5 
REMARK       I    between atoms: C5_5  and  N1_7 
REMARK    4  A    between atoms: N1_7  and  C6_8 
REMARK    5  A    between atoms: C11_15  and  C12_16 
REMARK    6  A    between atoms: C12_16  and  C13_17 
ROOT
HETATM    1  C13 UNL     1      22.333   0.091  52.538  1.00  0.00    -0.084 C 
HETATM    2  C14 UNL     1      21.694  -0.674  53.315  1.00  0.00     0.005 C 
HETATM    3 CL1  UNL     1      20.847  -1.706  54.394  1.00  0.00    -0.023 Cl
ENDROOT
BRANCH   1   4
HETATM    4  C12 UNL     1      23.043   0.976  51.637  1.00  0.00     0.151 C 
BRANCH   4   5
HETATM    5  C11 UNL     1      22.150   1.921  50.911  1.00  0.00     0.040 C 
HETATM    6  N3  UNL     1      21.199   2.048  50.083  1.00  0.00    -0.249 NA
HETATM    7  C10 UNL     1      20.542   3.190  49.607  1.00  0.00     0.233 C 
HETATM    8  N2  UNL     1      21.006   4.226  50.153  1.00  0.00    -0.245 NA
HETATM    9  C9  UNL     1      21.998   4.417  51.106  1.00  0.00     0.051 A 
HETATM   10  C8  UNL     1      22.466   5.251  52.008  1.00  0.00     0.030 A 
HETATM   11  C15 UNL     1      22.817   3.203  51.033  1.00  0.00     0.136 A 
HETATM   12  C7  UNL     1      23.640   4.618  52.626  1.00  0.00     0.028 A 
HETATM   13  C6  UNL     1      23.837   3.414  52.068  1.00  0.00     0.028 A 
BRANCH  13  14
HETATM   14  N1  UNL     1      24.986   2.883  52.729  1.00  0.00    -0.319 N 
HETATM   15  C5  UNL     1      26.162   2.502  52.003  1.00  0.00     0.300 C 
HETATM   16  O1  UNL     1      26.240   2.608  50.749  1.00  0.00    -0.258 OA
HETATM   17  H6  UNL     1      25.073   2.725  53.771  1.00  0.00     0.169 HD
BRANCH  15  18
HETATM   18  C4  UNL     1      27.308   1.979  52.680  1.00  0.00    -0.005 C 
BRANCH  18  19
HETATM   19  C3  UNL     1      28.309   1.532  53.288  1.00  0.00    -0.097 C 
BRANCH  19  20
HETATM   20  C2  UNL     1      29.448   1.001  54.003  1.00  0.00     0.090 C 
HETATM   21  C1  UNL     1      29.734  -0.452  53.616  1.00  0.00     0.018 C 
ENDBRANCH  19  20
ENDBRANCH  18  19
ENDBRANCH  15  18
ENDBRANCH  13  14
ENDBRANCH   4   5
ENDBRANCH   1   4
TORSDOF 6
ENDMDL
MODEL 9
REMARK VINA RESULT:      -5.8      3.663      7.337
REMARK  6 active torsions:
REMARK  status: ('A' for Active; 'I' for Inactive)
REMARK    1  A    between atoms: C2_2  and  C3_3 
REMARK    2  A    between atoms: C3_3  and  C4_4 
REMARK    3  A    between atoms: C4_4  and  C5_5 
REMARK       I    between atoms: C5_5  and  N1_7 
REMARK    4  A    between atoms: N1_7  and  C6_8 
REMARK    5  A    between atoms: C11_15  and  C12_16 
REMARK    6  A    between atoms: C12_16  and  C13_17 
ROOT
HETATM    1  C13 UNL     1      22.109   4.723  51.764  1.00  0.00    -0.084 C 
HETATM    2  C14 UNL     1      20.898   4.373  51.685  1.00  0.00     0.005 C 
HETATM    3 CL1  UNL     1      19.261   3.867  51.584  1.00  0.00    -0.023 Cl
ENDROOT
BRANCH   1   4
HETATM    4  C12 UNL     1      23.492   5.146  51.866  1.00  0.00     0.151 C 
BRANCH   4   5
HETATM    5  C11 UNL     1      24.030   5.716  50.600  1.00  0.00     0.040 C 
HETATM    6  N3  UNL     1      23.957   6.654  49.750  1.00  0.00    -0.249 NA
HETATM    7  C10 UNL     1      24.701   6.902  48.589  1.00  0.00     0.233 C 
HETATM    8  N2  UNL     1      25.591   6.024  48.440  1.00  0.00    -0.245 NA
HETATM    9  C9  UNL     1      25.950   4.916  49.197  1.00  0.00     0.051 A 
HETATM   10  C8  UNL     1      26.917   4.062  49.449  1.00  0.00     0.030 A 
HETATM   11  C15 UNL     1      24.758   4.616  49.997  1.00  0.00     0.136 A 
HETATM   12  C7  UNL     1      26.427   3.132  50.477  1.00  0.00     0.028 A 
HETATM   13  C6  UNL     1      25.170   3.464  50.809  1.00  0.00     0.028 A 
BRANCH  13  14
HETATM   14  N1  UNL     1      24.788   2.515  51.805  1.00  0.00    -0.319 N 
HETATM   15  C5  UNL     1      23.709   1.595  51.590  1.00  0.00     0.300 C 
HETATM   16  O1  UNL     1      23.042   1.581  50.521  1.00  0.00    -0.258 OA
HETATM   17  H6  UNL     1      25.241   2.407  52.753  1.00  0.00     0.169 HD
BRANCH  15  18
HETATM   18  C4  UNL     1      23.342   0.644  52.593  1.00  0.00    -0.005 C 
BRANCH  18  19
HETATM   19  C3  UNL     1      23.038  -0.198  53.471  1.00  0.00    -0.097 C 
BRANCH  19  20
HETATM   20  C2  UNL     1      22.711  -1.165  54.494  1.00  0.00     0.090 C 
HETATM   21  C1  UNL     1      21.226  -1.537  54.470  1.00  0.00     0.018 C 
ENDBRANCH  19  20
ENDBRANCH  18  19
ENDBRANCH  15  18
ENDBRANCH  13  14
ENDBRANCH   4   5
ENDBRANCH   1   4
TORSDOF 6
ENDMDL
