MODEL 1
REMARK VINA RESULT:      -9.1      0.000      0.000
REMARK  6 active torsions:
REMARK  status: ('A' for Active; 'I' for Inactive)
REMARK    1  A    between atoms: C3_3  and  N1_5 
REMARK    2  A    between atoms: C5_7  and  C6_8 
REMARK    3  A    between atoms: C6_8  and  C7_9 
REMARK    4  A    between atoms: C7_9  and  N2_10 
REMARK    5  A    between atoms: C15_21  and  N5_22 
REMARK    6  A    between atoms: N5_22  and  C16_23 
ROOT
HETATM    1  N1  UNL     1      21.807   0.482  51.980  1.00  0.00    -0.357 N 
HETATM    2  C4  UNL     1      20.417   0.405  51.627  1.00  0.00     0.158 A 
HETATM    3  C5  UNL     1      19.604  -0.346  52.568  1.00  0.00    -0.058 A 
HETATM    4  C12 UNL     1      20.016  -0.951  53.670  1.00  0.00     0.038 A 
HETATM    5  C13 UNL     1      21.445  -0.818  53.926  1.00  0.00     0.088 A 
HETATM    6  N3  UNL     1      21.877  -1.435  55.039  1.00  0.00    -0.240 NA
HETATM    7  C14 UNL     1      23.161  -1.412  55.410  1.00  0.00     0.236 A 
HETATM    8  N4  UNL     1      24.016  -0.741  54.622  1.00  0.00    -0.222 NA
HETATM    9  C15 UNL     1      23.617  -0.122  53.517  1.00  0.00     0.158 A 
HETATM   10  C22 UNL     1      22.325  -0.137  53.130  1.00  0.00     0.107 A 
ENDROOT
BRANCH   9  11
HETATM   11  N5  UNL     1      24.574   0.553  52.729  1.00  0.00    -0.339 N 
HETATM   12  H20 UNL     1      24.916   1.202  52.019  1.00  0.00     0.167 HD
BRANCH  11  13
HETATM   13  C16 UNL     1      25.936   0.189  53.021  1.00  0.00     0.035 A 
HETATM   14  C17 UNL     1      26.243  -1.113  52.597  1.00  0.00     0.032 A 
HETATM   15  C18 UNL     1      27.528  -1.646  52.759  1.00  0.00     0.046 A 
HETATM   16  C19 UNL     1      28.527  -0.901  53.343  1.00  0.00     0.138 A 
HETATM   17  F1  UNL     1      29.803  -1.314  53.551  1.00  0.00    -0.204 F 
HETATM   18  C20 UNL     1      28.252   0.380  53.770  1.00  0.00     0.074 A 
HETATM   19 CL1  UNL     1      29.378   1.500  54.540  1.00  0.00    -0.081 Cl
HETATM   20  C21 UNL     1      26.988   0.895  53.606  1.00  0.00     0.056 A 
ENDBRANCH  11  13
ENDBRANCH   9  11
BRANCH   1  21
HETATM   21  C3  UNL     1      22.658   1.221  51.125  1.00  0.00     0.094 A 
HETATM   22  C2  UNL     1      22.435   2.687  51.098  1.00  0.00     0.026 A 
HETATM   23  C1  UNL     1      23.240   3.366  50.298  1.00  0.00     0.008 A 
HETATM   24  O1  UNL     1      23.325   2.051  50.418  1.00  0.00     0.000 OA
ENDBRANCH   1  21
BRANCH   3  25
HETATM   25  C6  UNL     1      18.133  -0.461  52.266  1.00  0.00     0.066 C 
BRANCH  25  26
HETATM   26  C7  UNL     1      17.513  -1.301  53.328  1.00  0.00     0.277 C 
BRANCH  26  27
HETATM   27  N2  UNL     1      16.877  -2.501  52.823  1.00  0.00     0.092 N 
HETATM   28  C8  UNL     1      17.127  -3.651  53.628  1.00  0.00     0.298 C 
HETATM   29  C9  UNL     1      16.001  -4.638  53.428  1.00  0.00     0.198 C 
HETATM   30  O2  UNL     1      15.553  -4.651  52.108  1.00  0.00    -0.388 OA
HETATM   31  C10 UNL     1      14.920  -3.455  51.777  1.00  0.00     0.198 C 
HETATM   32  C11 UNL     1      15.479  -2.283  52.518  1.00  0.00     0.298 C 
ENDBRANCH  26  27
ENDBRANCH  25  26
ENDBRANCH   3  25
TORSDOF 6
ENDMDL
MODEL 2
REMARK VINA RESULT:      -9.1      2.526      3.394
REMARK  6 active torsions:
REMARK  status: ('A' for Active; 'I' for Inactive)
REMARK    1  A    between atoms: C3_3  and  N1_5 
REMARK    2  A    between atoms: C5_7  and  C6_8 
REMARK    3  A    between atoms: C6_8  and  C7_9 
REMARK    4  A    between atoms: C7_9  and  N2_10 
REMARK    5  A    between atoms: C15_21  and  N5_22 
REMARK    6  A    between atoms: N5_22  and  C16_23 
ROOT
HETATM    1  N1  UNL     1      21.665   0.549  51.820  1.00  0.00    -0.357 N 
HETATM    2  C4  UNL     1      20.272   0.511  51.467  1.00  0.00     0.158 A 
HETATM    3  C5  UNL     1      19.436  -0.201  52.419  1.00  0.00    -0.058 A 
HETATM    4  C12 UNL     1      19.830  -0.801  53.530  1.00  0.00     0.038 A 
HETATM    5  C13 UNL     1      21.262  -0.710  53.784  1.00  0.00     0.088 A 
HETATM    6  N3  UNL     1      21.674  -1.323  54.906  1.00  0.00    -0.240 NA
HETATM    7  C14 UNL     1      22.958  -1.335  55.278  1.00  0.00     0.236 A 
HETATM    8  N4  UNL     1      23.834  -0.703  54.480  1.00  0.00    -0.222 NA
HETATM    9  C15 UNL     1      23.454  -0.088  53.366  1.00  0.00     0.158 A 
HETATM   10  C22 UNL     1      22.162  -0.068  52.978  1.00  0.00     0.107 A 
ENDROOT
BRANCH   9  11
HETATM   11  N5  UNL     1      24.432   0.545  52.568  1.00  0.00    -0.339 N 
HETATM   12  H20 UNL     1      24.793   1.159  51.838  1.00  0.00     0.167 HD
BRANCH  11  13
HETATM   13  C16 UNL     1      25.786   0.184  52.903  1.00  0.00     0.035 A 
HETATM   14  C17 UNL     1      26.484   1.237  53.511  1.00  0.00     0.032 A 
HETATM   15  C18 UNL     1      27.807   1.078  53.943  1.00  0.00     0.046 A 
HETATM   16  C19 UNL     1      28.458  -0.123  53.779  1.00  0.00     0.138 A 
HETATM   17  F1  UNL     1      29.734  -0.389  54.158  1.00  0.00    -0.204 F 
HETATM   18  C20 UNL     1      27.795  -1.174  53.184  1.00  0.00     0.074 A 
HETATM   19 CL1  UNL     1      28.437  -2.789  52.878  1.00  0.00    -0.081 Cl
HETATM   20  C21 UNL     1      26.496  -1.009  52.763  1.00  0.00     0.056 A 
ENDBRANCH  11  13
ENDBRANCH   9  11
BRANCH   1  21
HETATM   21  C3  UNL     1      22.538   1.249  50.954  1.00  0.00     0.094 A 
HETATM   22  C2  UNL     1      22.351   2.719  50.894  1.00  0.00     0.026 A 
HETATM   23  C1  UNL     1      23.177   3.360  50.085  1.00  0.00     0.008 A 
HETATM   24  O1  UNL     1      23.229   2.046  50.233  1.00  0.00     0.000 OA
ENDBRANCH   1  21
BRANCH   3  25
HETATM   25  C6  UNL     1      17.963  -0.273  52.118  1.00  0.00     0.066 C 
BRANCH  25  26
HETATM   26  C7  UNL     1      17.634   0.830  51.174  1.00  0.00     0.277 C 
BRANCH  26  27
HETATM   27  N2  UNL     1      17.085   2.005  51.821  1.00  0.00     0.092 N 
HETATM   28  C8  UNL     1      17.680   3.222  51.376  1.00  0.00     0.298 C 
HETATM   29  C9  UNL     1      16.697   4.349  51.590  1.00  0.00     0.198 C 
HETATM   30  O2  UNL     1      15.966   4.184  52.764  1.00  0.00    -0.388 OA
HETATM   31  C10 UNL     1      15.103   3.093  52.675  1.00  0.00     0.198 C 
HETATM   32  C11 UNL     1      15.637   2.008  51.795  1.00  0.00     0.298 C 
ENDBRANCH  26  27
ENDBRANCH  25  26
ENDBRANCH   3  25
TORSDOF 6
ENDMDL
MODEL 3
REMARK VINA RESULT:      -9.0      1.834      2.242
REMARK  6 active torsions:
REMARK  status: ('A' for Active; 'I' for Inactive)
REMARK    1  A    between atoms: C3_3  and  N1_5 
REMARK    2  A    between atoms: C5_7  and  C6_8 
REMARK    3  A    between atoms: C6_8  and  C7_9 
REMARK    4  A    between atoms: C7_9  and  N2_10 
REMARK    5  A    between atoms: C15_21  and  N5_22 
REMARK    6  A    between atoms: N5_22  and  C16_23 
ROOT
HETATM    1  N1  UNL     1      22.190   0.312  52.426  1.00  0.00    -0.357 N 
HETATM    2  C4  UNL     1      20.773   0.198  52.214  1.00  0.00     0.158 A 
HETATM    3  C5  UNL     1      20.080  -0.576  53.230  1.00  0.00    -0.058 A 
HETATM    4  C12 UNL     1      20.618  -1.168  54.284  1.00  0.00     0.038 A 
HETATM    5  C13 UNL     1      22.061  -0.996  54.395  1.00  0.00     0.088 A 
HETATM    6  N3  UNL     1      22.619  -1.600  55.457  1.00  0.00    -0.240 NA
HETATM    7  C14 UNL     1      23.933  -1.541  55.698  1.00  0.00     0.236 A 
HETATM    8  N4  UNL     1      24.686  -0.847  54.829  1.00  0.00    -0.222 NA
HETATM    9  C15 UNL     1      24.161  -0.240  53.771  1.00  0.00     0.158 A 
HETATM   10  C22 UNL     1      22.837  -0.291  53.516  1.00  0.00     0.107 A 
ENDROOT
BRANCH   9  11
HETATM   11  N5  UNL     1      25.014   0.461  52.892  1.00  0.00    -0.339 N 
HETATM   12  H20 UNL     1      25.263   1.069  52.111  1.00  0.00     0.167 HD
BRANCH  11  13
HETATM   13  C16 UNL     1      26.416   0.297  53.181  1.00  0.00     0.035 A 
HETATM   14  C17 UNL     1      26.903  -0.952  52.770  1.00  0.00     0.032 A 
HETATM   15  C18 UNL     1      28.251  -1.296  52.932  1.00  0.00     0.046 A 
HETATM   16  C19 UNL     1      29.136  -0.410  53.503  1.00  0.00     0.138 A 
HETATM   17  F1  UNL     1      30.459  -0.636  53.708  1.00  0.00    -0.204 F 
HETATM   18  C20 UNL     1      28.683   0.824  53.916  1.00  0.00     0.074 A 
HETATM   19 CL1  UNL     1      29.642   2.101  54.668  1.00  0.00    -0.081 Cl
HETATM   20  C21 UNL     1      27.358   1.153  53.753  1.00  0.00     0.056 A 
ENDBRANCH  11  13
ENDBRANCH   9  11
BRANCH   1  21
HETATM   21  C3  UNL     1      22.929   1.075  51.491  1.00  0.00     0.094 A 
HETATM   22  C2  UNL     1      22.665   2.535  51.491  1.00  0.00     0.026 A 
HETATM   23  C1  UNL     1      23.367   3.235  50.616  1.00  0.00     0.008 A 
HETATM   24  O1  UNL     1      23.499   1.923  50.723  1.00  0.00     0.000 OA
ENDBRANCH   1  21
BRANCH   3  25
HETATM   25  C6  UNL     1      18.590  -0.731  53.078  1.00  0.00     0.066 C 
BRANCH  25  26
HETATM   26  C7  UNL     1      18.226  -0.308  51.698  1.00  0.00     0.277 C 
BRANCH  26  27
HETATM   27  N2  UNL     1      16.878   0.211  51.585  1.00  0.00     0.092 N 
HETATM   28  C8  UNL     1      15.995  -0.297  52.582  1.00  0.00     0.298 C 
HETATM   29  C9  UNL     1      14.874   0.695  52.791  1.00  0.00     0.198 C 
HETATM   30  O2  UNL     1      14.488   1.299  51.595  1.00  0.00    -0.388 OA
HETATM   31  C10 UNL     1      15.492   2.131  51.102  1.00  0.00     0.198 C 
HETATM   32  C11 UNL     1      16.863   1.654  51.460  1.00  0.00     0.298 C 
ENDBRANCH  26  27
ENDBRANCH  25  26
ENDBRANCH   3  25
TORSDOF 6
ENDMDL
MODEL 4
REMARK VINA RESULT:      -8.6      2.487      3.883
REMARK  6 active torsions:
REMARK  status: ('A' for Active; 'I' for Inactive)
REMARK    1  A    between atoms: C3_3  and  N1_5 
REMARK    2  A    between atoms: C5_7  and  C6_8 
REMARK    3  A    between atoms: C6_8  and  C7_9 
REMARK    4  A    between atoms: C7_9  and  N2_10 
REMARK    5  A    between atoms: C15_21  and  N5_22 
REMARK    6  A    between atoms: N5_22  and  C16_23 
ROOT
HETATM    1  N1  UNL     1      21.058   0.561  52.524  1.00  0.00    -0.357 N 
HETATM    2  C4  UNL     1      19.731   0.176  52.130  1.00  0.00     0.158 A 
HETATM    3  C5  UNL     1      19.368   0.584  50.784  1.00  0.00    -0.058 A 
HETATM    4  C12 UNL     1      20.117   1.260  49.928  1.00  0.00     0.038 A 
HETATM    5  C13 UNL     1      21.438   1.607  50.435  1.00  0.00     0.088 A 
HETATM    6  N3  UNL     1      22.205   2.301  49.577  1.00  0.00    -0.240 NA
HETATM    7  C14 UNL     1      23.441   2.700  49.893  1.00  0.00     0.236 A 
HETATM    8  N4  UNL     1      23.897   2.378  51.114  1.00  0.00    -0.222 NA
HETATM    9  C15 UNL     1      23.161   1.693  51.982  1.00  0.00     0.158 A 
HETATM   10  C22 UNL     1      21.912   1.284  51.677  1.00  0.00     0.107 A 
ENDROOT
BRANCH   9  11
HETATM   11  N5  UNL     1      23.700   1.401  53.254  1.00  0.00    -0.339 N 
HETATM   12  H20 UNL     1      23.699   1.268  54.265  1.00  0.00     0.167 HD
BRANCH  11  13
HETATM   13  C16 UNL     1      25.101   1.066  53.234  1.00  0.00     0.035 A 
HETATM   14  C17 UNL     1      25.324  -0.276  52.893  1.00  0.00     0.032 A 
HETATM   15  C18 UNL     1      26.622  -0.793  52.787  1.00  0.00     0.046 A 
HETATM   16  C19 UNL     1      27.716   0.009  53.016  1.00  0.00     0.138 A 
HETATM   17  F1  UNL     1      29.013  -0.382  52.942  1.00  0.00    -0.204 F 
HETATM   18  C20 UNL     1      27.525   1.332  53.353  1.00  0.00     0.074 A 
HETATM   19 CL1  UNL     1      28.779   2.527  53.688  1.00  0.00    -0.081 Cl
HETATM   20  C21 UNL     1      26.247   1.830  53.455  1.00  0.00     0.056 A 
ENDBRANCH  11  13
ENDBRANCH   9  11
BRANCH   1  21
HETATM   21  C3  UNL     1      21.493   0.175  53.814  1.00  0.00     0.094 A 
HETATM   22  C2  UNL     1      21.865  -1.252  53.973  1.00  0.00     0.026 A 
HETATM   23  C1  UNL     1      22.274  -1.598  55.181  1.00  0.00     0.008 A 
HETATM   24  O1  UNL     1      21.908  -0.358  54.899  1.00  0.00     0.000 OA
ENDBRANCH   1  21
BRANCH   3  25
HETATM   25  C6  UNL     1      17.993   0.206  50.299  1.00  0.00     0.066 C 
BRANCH  25  26
HETATM   26  C7  UNL     1      17.189  -0.206  51.482  1.00  0.00     0.277 C 
BRANCH  26  27
HETATM   27  N2  UNL     1      15.905   0.459  51.573  1.00  0.00     0.092 N 
HETATM   28  C8  UNL     1      15.099  -0.017  52.648  1.00  0.00     0.298 C 
HETATM   29  C9  UNL     1      14.133   1.072  53.051  1.00  0.00     0.198 C 
HETATM   30  O2  UNL     1      13.674   1.791  51.949  1.00  0.00    -0.388 OA
HETATM   31  C10 UNL     1      14.697   2.542  51.373  1.00  0.00     0.198 C 
HETATM   32  C11 UNL     1      16.039   1.900  51.525  1.00  0.00     0.298 C 
ENDBRANCH  26  27
ENDBRANCH  25  26
ENDBRANCH   3  25
TORSDOF 6
ENDMDL
MODEL 5
REMARK VINA RESULT:      -8.5      5.168     10.330
REMARK  6 active torsions:
REMARK  status: ('A' for Active; 'I' for Inactive)
REMARK    1  A    between atoms: C3_3  and  N1_5 
REMARK    2  A    between atoms: C5_7  and  C6_8 
REMARK    3  A    between atoms: C6_8  and  C7_9 
REMARK    4  A    between atoms: C7_9  and  N2_10 
REMARK    5  A    between atoms: C15_21  and  N5_22 
REMARK    6  A    between atoms: N5_22  and  C16_23 
ROOT
HETATM    1  N1  UNL     1      25.689   2.561  51.092  1.00  0.00    -0.357 N 
HETATM    2  C4  UNL     1      26.677   3.040  50.165  1.00  0.00     0.158 A 
HETATM    3  C5  UNL     1      26.389   4.354  49.616  1.00  0.00    -0.058 A 
HETATM    4  C12 UNL     1      25.337   5.113  49.876  1.00  0.00     0.038 A 
HETATM    5  C13 UNL     1      24.395   4.525  50.820  1.00  0.00     0.088 A 
HETATM    6  N3  UNL     1      23.318   5.283  51.086  1.00  0.00    -0.240 NA
HETATM    7  C14 UNL     1      22.359   4.884  51.927  1.00  0.00     0.236 A 
HETATM    8  N4  UNL     1      22.512   3.682  52.506  1.00  0.00    -0.222 NA
HETATM    9  C15 UNL     1      23.567   2.912  52.263  1.00  0.00     0.158 A 
HETATM   10  C22 UNL     1      24.542   3.302  51.416  1.00  0.00     0.107 A 
ENDROOT
BRANCH   9  11
HETATM   11  N5  UNL     1      23.656   1.654  52.898  1.00  0.00    -0.339 N 
HETATM   12  H20 UNL     1      24.106   0.879  53.384  1.00  0.00     0.167 HD
BRANCH  11  13
HETATM   13  C16 UNL     1      22.406   0.941  52.961  1.00  0.00     0.035 A 
HETATM   14  C17 UNL     1      22.291   0.170  54.128  1.00  0.00     0.032 A 
HETATM   15  C18 UNL     1      21.135  -0.575  54.396  1.00  0.00     0.046 A 
HETATM   16  C19 UNL     1      20.078  -0.569  53.515  1.00  0.00     0.138 A 
HETATM   17  F1  UNL     1      18.915  -1.249  53.671  1.00  0.00    -0.204 F 
HETATM   18  C20 UNL     1      20.166   0.179  52.360  1.00  0.00     0.074 A 
HETATM   19 CL1  UNL     1      18.937   0.326  51.103  1.00  0.00    -0.081 Cl
HETATM   20  C21 UNL     1      21.305   0.907  52.106  1.00  0.00     0.056 A 
ENDBRANCH  11  13
ENDBRANCH   9  11
BRANCH   1  21
HETATM   21  C3  UNL     1      25.914   1.298  51.689  1.00  0.00     0.094 A 
HETATM   22  C2  UNL     1      27.104   1.200  52.569  1.00  0.00     0.026 A 
HETATM   23  C1  UNL     1      27.299   0.016  53.124  1.00  0.00     0.008 A 
HETATM   24  O1  UNL     1      26.278   0.244  52.314  1.00  0.00     0.000 OA
ENDBRANCH   1  21
BRANCH   3  25
HETATM   25  C6  UNL     1      27.387   4.925  48.643  1.00  0.00     0.066 C 
BRANCH  25  26
HETATM   26  C7  UNL     1      27.059   6.364  48.444  1.00  0.00     0.277 C 
BRANCH  26  27
HETATM   27  N2  UNL     1      28.130   7.263  48.823  1.00  0.00     0.092 N 
HETATM   28  C8  UNL     1      29.387   6.913  48.248  1.00  0.00     0.298 C 
HETATM   29  C9  UNL     1      30.244   8.155  48.163  1.00  0.00     0.198 C 
HETATM   30  O2  UNL     1      30.058   8.989  49.264  1.00  0.00    -0.388 OA
HETATM   31  C10 UNL     1      28.781   9.547  49.265  1.00  0.00     0.198 C 
HETATM   32  C11 UNL     1      27.760   8.651  48.640  1.00  0.00     0.298 C 
ENDBRANCH  26  27
ENDBRANCH  25  26
ENDBRANCH   3  25
TORSDOF 6
ENDMDL
MODEL 6
REMARK VINA RESULT:      -8.4      3.561      5.056
REMARK  6 active torsions:
REMARK  status: ('A' for Active; 'I' for Inactive)
REMARK    1  A    between atoms: C3_3  and  N1_5 
REMARK    2  A    between atoms: C5_7  and  C6_8 
REMARK    3  A    between atoms: C6_8  and  C7_9 
REMARK    4  A    between atoms: C7_9  and  N2_10 
REMARK    5  A    between atoms: C15_21  and  N5_22 
REMARK    6  A    between atoms: N5_22  and  C16_23 
ROOT
HETATM    1  N1  UNL     1      23.155   1.557  51.663  1.00  0.00    -0.357 N 
HETATM    2  C4  UNL     1      21.913   1.441  50.950  1.00  0.00     0.158 A 
HETATM    3  C5  UNL     1      21.927   2.043  49.628  1.00  0.00    -0.058 A 
HETATM    4  C12 UNL     1      22.938   2.671  49.050  1.00  0.00     0.038 A 
HETATM    5  C13 UNL     1      24.144   2.739  49.866  1.00  0.00     0.088 A 
HETATM    6  N3  UNL     1      25.175   3.382  49.292  1.00  0.00    -0.240 NA
HETATM    7  C14 UNL     1      26.350   3.534  49.913  1.00  0.00     0.236 A 
HETATM    8  N4  UNL     1      26.465   3.015  51.146  1.00  0.00    -0.222 NA
HETATM    9  C15 UNL     1      25.463   2.374  51.736  1.00  0.00     0.158 A 
HETATM   10  C22 UNL     1      24.272   2.213  51.122  1.00  0.00     0.107 A 
ENDROOT
BRANCH   9  11
HETATM   11  N5  UNL     1      25.651   1.865  53.039  1.00  0.00    -0.339 N 
HETATM   12  H20 UNL     1      25.446   1.719  54.028  1.00  0.00     0.167 HD
BRANCH  11  13
HETATM   13  C16 UNL     1      26.803   1.011  53.174  1.00  0.00     0.035 A 
HETATM   14  C17 UNL     1      27.921   1.699  53.670  1.00  0.00     0.032 A 
HETATM   15  C18 UNL     1      29.134   1.040  53.905  1.00  0.00     0.046 A 
HETATM   16  C19 UNL     1      29.260  -0.307  53.653  1.00  0.00     0.138 A 
HETATM   17  F1  UNL     1      30.383  -1.045  53.843  1.00  0.00    -0.204 F 
HETATM   18  C20 UNL     1      28.178  -1.006  53.165  1.00  0.00     0.074 A 
HETATM   19 CL1  UNL     1      28.122  -2.726  52.774  1.00  0.00    -0.081 Cl
HETATM   20  C21 UNL     1      26.990  -0.351  52.937  1.00  0.00     0.056 A 
ENDBRANCH  11  13
ENDBRANCH   9  11
BRANCH   1  21
HETATM   21  C3  UNL     1      23.225   0.971  52.948  1.00  0.00     0.094 A 
HETATM   22  C2  UNL     1      22.966  -0.489  53.011  1.00  0.00     0.026 A 
HETATM   23  C1  UNL     1      23.041  -1.024  54.218  1.00  0.00     0.008 A 
HETATM   24  O1  UNL     1      23.246   0.268  54.016  1.00  0.00     0.000 OA
ENDBRANCH   1  21
BRANCH   3  25
HETATM   25  C6  UNL     1      20.661   1.952  48.818  1.00  0.00     0.066 C 
BRANCH  25  26
HETATM   26  C7  UNL     1      19.826   3.142  49.140  1.00  0.00     0.277 C 
BRANCH  26  27
HETATM   27  N2  UNL     1      18.744   2.861  50.062  1.00  0.00     0.092 N 
HETATM   28  C8  UNL     1      18.508   3.916  50.991  1.00  0.00     0.298 C 
HETATM   29  C9  UNL     1      17.072   3.843  51.455  1.00  0.00     0.198 C 
HETATM   30  O2  UNL     1      16.639   2.526  51.594  1.00  0.00    -0.388 OA
HETATM   31  C10 UNL     1      16.552   1.888  50.358  1.00  0.00     0.198 C 
HETATM   32  C11 UNL     1      17.556   2.399  49.375  1.00  0.00     0.298 C 
ENDBRANCH  26  27
ENDBRANCH  25  26
ENDBRANCH   3  25
TORSDOF 6
ENDMDL
MODEL 7
REMARK VINA RESULT:      -8.3      3.933      5.591
REMARK  6 active torsions:
REMARK  status: ('A' for Active; 'I' for Inactive)
REMARK    1  A    between atoms: C3_3  and  N1_5 
REMARK    2  A    between atoms: C5_7  and  C6_8 
REMARK    3  A    between atoms: C6_8  and  C7_9 
REMARK    4  A    between atoms: C7_9  and  N2_10 
REMARK    5  A    between atoms: C15_21  and  N5_22 
REMARK    6  A    between atoms: N5_22  and  C16_23 
ROOT
HETATM    1  N1  UNL     1      23.522   2.450  50.652  1.00  0.00    -0.357 N 
HETATM    2  C4  UNL     1      22.338   1.990  51.324  1.00  0.00     0.158 A 
HETATM    3  C5  UNL     1      22.573   1.485  52.666  1.00  0.00    -0.058 A 
HETATM    4  C12 UNL     1      23.735   1.406  53.294  1.00  0.00     0.038 A 
HETATM    5  C13 UNL     1      24.869   1.891  52.517  1.00  0.00     0.088 A 
HETATM    6  N3  UNL     1      26.055   1.808  53.143  1.00  0.00    -0.240 NA
HETATM    7  C14 UNL     1      27.192   2.207  52.563  1.00  0.00     0.236 A 
HETATM    8  N4  UNL     1      27.106   2.700  51.317  1.00  0.00    -0.222 NA
HETATM    9  C15 UNL     1      25.947   2.794  50.676  1.00  0.00     0.158 A 
HETATM   10  C22 UNL     1      24.792   2.395  51.248  1.00  0.00     0.107 A 
ENDROOT
BRANCH   9  11
HETATM   11  N5  UNL     1      25.933   3.311  49.362  1.00  0.00    -0.339 N 
HETATM   12  H20 UNL     1      25.798   3.300  48.351  1.00  0.00     0.167 HD
BRANCH  11  13
HETATM   13  C16 UNL     1      26.328   4.693  49.272  1.00  0.00     0.035 A 
HETATM   14  C17 UNL     1      27.548   4.856  48.598  1.00  0.00     0.032 A 
HETATM   15  C18 UNL     1      28.091   6.129  48.376  1.00  0.00     0.046 A 
HETATM   16  C19 UNL     1      27.437   7.256  48.817  1.00  0.00     0.138 A 
HETATM   17  F1  UNL     1      27.868   8.533  48.658  1.00  0.00    -0.204 F 
HETATM   18  C20 UNL     1      26.238   7.123  49.483  1.00  0.00     0.074 A 
HETATM   19 CL1  UNL     1      25.241   8.428  50.129  1.00  0.00    -0.081 Cl
HETATM   20  C21 UNL     1      25.712   5.871  49.696  1.00  0.00     0.056 A 
ENDBRANCH  11  13
ENDBRANCH   9  11
BRANCH   1  21
HETATM   21  C3  UNL     1      23.368   2.982  49.351  1.00  0.00     0.094 A 
HETATM   22  C2  UNL     1      22.499   4.179  49.236  1.00  0.00     0.026 A 
HETATM   23  C1  UNL     1      22.368   4.667  48.015  1.00  0.00     0.008 A 
HETATM   24  O1  UNL     1      23.111   3.600  48.262  1.00  0.00     0.000 OA
ENDBRANCH   1  21
BRANCH   3  25
HETATM   25  C6  UNL     1      21.376   0.992  53.434  1.00  0.00     0.066 C 
BRANCH  25  26
HETATM   26  C7  UNL     1      20.783  -0.145  52.677  1.00  0.00     0.277 C 
BRANCH  26  27
HETATM   27  N2  UNL     1      19.349  -0.042  52.501  1.00  0.00     0.092 N 
HETATM   28  C8  UNL     1      18.970   0.316  51.174  1.00  0.00     0.298 C 
HETATM   29  C9  UNL     1      17.570  -0.190  50.915  1.00  0.00     0.198 C 
HETATM   30  O2  UNL     1      16.764  -0.084  52.047  1.00  0.00    -0.388 OA
HETATM   31  C10 UNL     1      17.181  -0.958  53.049  1.00  0.00     0.198 C 
HETATM   32  C11 UNL     1      18.656  -1.202  53.023  1.00  0.00     0.298 C 
ENDBRANCH  26  27
ENDBRANCH  25  26
ENDBRANCH   3  25
TORSDOF 6
ENDMDL
MODEL 8
REMARK VINA RESULT:      -8.3      5.516      8.388
REMARK  6 active torsions:
REMARK  status: ('A' for Active; 'I' for Inactive)
REMARK    1  A    between atoms: C3_3  and  N1_5 
REMARK    2  A    between atoms: C5_7  and  C6_8 
REMARK    3  A    between atoms: C6_8  and  C7_9 
REMARK    4  A    between atoms: C7_9  and  N2_10 
REMARK    5  A    between atoms: C15_21  and  N5_22 
REMARK    6  A    between atoms: N5_22  and  C16_23 
ROOT
HETATM    1  N1  UNL     1      24.012   2.893  51.499  1.00  0.00    -0.357 N 
HETATM    2  C4  UNL     1      24.514   1.643  51.997  1.00  0.00     0.158 A 
HETATM    3  C5  UNL     1      23.492   0.765  52.542  1.00  0.00    -0.058 A 
HETATM    4  C12 UNL     1      22.194   1.010  52.624  1.00  0.00     0.038 A 
HETATM    5  C13 UNL     1      21.797   2.310  52.099  1.00  0.00     0.088 A 
HETATM    6  N3  UNL     1      20.482   2.573  52.185  1.00  0.00    -0.240 NA
HETATM    7  C14 UNL     1      19.959   3.725  51.752  1.00  0.00     0.236 A 
HETATM    8  N4  UNL     1      20.805   4.622  51.220  1.00  0.00    -0.222 NA
HETATM    9  C15 UNL     1      22.108   4.388  51.121  1.00  0.00     0.158 A 
HETATM   10  C22 UNL     1      22.650   3.231  51.555  1.00  0.00     0.107 A 
ENDROOT
BRANCH   9  11
HETATM   11  N5  UNL     1      22.940   5.382  50.563  1.00  0.00    -0.339 N 
HETATM   12  H20 UNL     1      23.655   6.110  50.552  1.00  0.00     0.167 HD
BRANCH  11  13
HETATM   13  C16 UNL     1      22.764   5.565  49.145  1.00  0.00     0.035 A 
HETATM   14  C17 UNL     1      23.017   6.884  48.741  1.00  0.00     0.032 A 
HETATM   15  C18 UNL     1      22.932   7.262  47.395  1.00  0.00     0.046 A 
HETATM   16  C19 UNL     1      22.596   6.341  46.429  1.00  0.00     0.138 A 
HETATM   17  F1  UNL     1      22.485   6.593  45.101  1.00  0.00    -0.204 F 
HETATM   18  C20 UNL     1      22.342   5.038  46.799  1.00  0.00     0.074 A 
HETATM   19 CL1  UNL     1      21.898   3.706  45.730  1.00  0.00    -0.081 Cl
HETATM   20  C21 UNL     1      22.428   4.676  48.123  1.00  0.00     0.056 A 
ENDBRANCH  11  13
ENDBRANCH   9  11
BRANCH   1  21
HETATM   21  C3  UNL     1      24.945   3.789  50.928  1.00  0.00     0.094 A 
HETATM   22  C2  UNL     1      25.719   3.272  49.773  1.00  0.00     0.026 A 
HETATM   23  C1  UNL     1      26.584   4.122  49.247  1.00  0.00     0.008 A 
HETATM   24  O1  UNL     1      25.829   4.450  50.283  1.00  0.00     0.000 OA
ENDBRANCH   1  21
BRANCH   3  25
HETATM   25  C6  UNL     1      23.944  -0.568  53.076  1.00  0.00     0.066 C 
BRANCH  25  26
HETATM   26  C7  UNL     1      24.630  -0.330  54.376  1.00  0.00     0.277 C 
BRANCH  26  27
HETATM   27  N2  UNL     1      26.050  -0.618  54.346  1.00  0.00     0.092 N 
HETATM   28  C8  UNL     1      26.470  -1.251  53.140  1.00  0.00     0.298 C 
HETATM   29  C9  UNL     1      27.935  -0.956  52.920  1.00  0.00     0.198 C 
HETATM   30  O2  UNL     1      28.645  -0.939  54.119  1.00  0.00    -0.388 OA
HETATM   31  C10 UNL     1      28.272   0.144  54.913  1.00  0.00     0.198 C 
HETATM   32  C11 UNL     1      26.842   0.536  54.716  1.00  0.00     0.298 C 
ENDBRANCH  26  27
ENDBRANCH  25  26
ENDBRANCH   3  25
TORSDOF 6
ENDMDL
MODEL 9
REMARK VINA RESULT:      -8.2      2.497      3.065
REMARK  6 active torsions:
REMARK  status: ('A' for Active; 'I' for Inactive)
REMARK    1  A    between atoms: C3_3  and  N1_5 
REMARK    2  A    between atoms: C5_7  and  C6_8 
REMARK    3  A    between atoms: C6_8  and  C7_9 
REMARK    4  A    between atoms: C7_9  and  N2_10 
REMARK    5  A    between atoms: C15_21  and  N5_22 
REMARK    6  A    between atoms: N5_22  and  C16_23 
ROOT
HETATM    1  N1  UNL     1      20.558   1.270  52.005  1.00  0.00    -0.357 N 
HETATM    2  C4  UNL     1      19.229   1.164  51.469  1.00  0.00     0.158 A 
HETATM    3  C5  UNL     1      18.454   0.062  52.014  1.00  0.00    -0.058 A 
HETATM    4  C12 UNL     1      18.852  -0.821  52.916  1.00  0.00     0.038 A 
HETATM    5  C13 UNL     1      20.218  -0.625  53.382  1.00  0.00     0.088 A 
HETATM    6  N3  UNL     1      20.636  -1.522  54.292  1.00  0.00    -0.240 NA
HETATM    7  C14 UNL     1      21.866  -1.482  54.814  1.00  0.00     0.236 A 
HETATM    8  N4  UNL     1      22.681  -0.502  54.392  1.00  0.00    -0.222 NA
HETATM    9  C15 UNL     1      22.295   0.397  53.495  1.00  0.00     0.158 A 
HETATM   10  C22 UNL     1      21.057   0.370  52.959  1.00  0.00     0.107 A 
ENDROOT
BRANCH   9  11
HETATM   11  N5  UNL     1      23.209   1.393  53.088  1.00  0.00    -0.339 N 
HETATM   12  H20 UNL     1      23.514   2.312  52.768  1.00  0.00     0.167 HD
BRANCH  11  13
HETATM   13  C16 UNL     1      24.584   0.963  53.096  1.00  0.00     0.035 A 
HETATM   14  C17 UNL     1      25.455   1.969  53.542  1.00  0.00     0.032 A 
HETATM   15  C18 UNL     1      26.833   1.741  53.654  1.00  0.00     0.046 A 
HETATM   16  C19 UNL     1      27.369   0.517  53.326  1.00  0.00     0.138 A 
HETATM   17  F1  UNL     1      28.682   0.185  53.395  1.00  0.00    -0.204 F 
HETATM   18  C20 UNL     1      26.535  -0.488  52.884  1.00  0.00     0.074 A 
HETATM   19 CL1  UNL     1      27.010  -2.122  52.413  1.00  0.00    -0.081 Cl
HETATM   20  C21 UNL     1      25.184  -0.255  52.777  1.00  0.00     0.056 A 
ENDBRANCH  11  13
ENDBRANCH   9  11
BRANCH   1  21
HETATM   21  C3  UNL     1      21.364   2.336  51.542  1.00  0.00     0.094 A 
HETATM   22  C2  UNL     1      20.962   3.694  51.984  1.00  0.00     0.026 A 
HETATM   23  C1  UNL     1      21.727   4.680  51.547  1.00  0.00     0.008 A 
HETATM   24  O1  UNL     1      21.968   3.419  51.227  1.00  0.00     0.000 OA
ENDBRANCH   1  21
BRANCH   3  25
HETATM   25  C6  UNL     1      17.047  -0.106  51.505  1.00  0.00     0.066 C 
BRANCH  25  26
HETATM   26  C7  UNL     1      16.197  -0.542  52.647  1.00  0.00     0.277 C 
BRANCH  26  27
HETATM   27  N2  UNL     1      15.138   0.391  52.973  1.00  0.00     0.092 N 
HETATM   28  C8  UNL     1      15.158   1.568  52.169  1.00  0.00     0.298 C 
HETATM   29  C9  UNL     1      13.763   2.147  52.120  1.00  0.00     0.198 C 
HETATM   30  O2  UNL     1      13.100   2.006  53.338  1.00  0.00    -0.388 OA
HETATM   31  C10 UNL     1      12.824   0.667  53.612  1.00  0.00     0.198 C 
HETATM   32  C11 UNL     1      13.846  -0.261  53.038  1.00  0.00     0.298 C 
ENDBRANCH  26  27
ENDBRANCH  25  26
ENDBRANCH   3  25
TORSDOF 6
ENDMDL
