MODEL 1
REMARK VINA RESULT:      -8.7      0.000      0.000
REMARK  6 active torsions:
REMARK  status: ('A' for Active; 'I' for Inactive)
REMARK    1  A    between atoms: C4_4  and  N1_5 
REMARK       I    between atoms: N3_14  and  C12_15 
REMARK    2  A    between atoms: C12_15  and  C13_17 
REMARK    3  A    between atoms: C13_17  and  N4_18 
REMARK    4  A    between atoms: N4_18  and  C14_19 
REMARK    5  A    between atoms: C18_24  and  N6_25 
REMARK    6  A    between atoms: C20_27  and  O2_28 
ROOT
HETATM    1  C13 UNL     1      24.679   1.287  52.680  1.00  0.00     0.213 A 
HETATM    2  C19 UNL     1      24.584   2.675  53.202  1.00  0.00     0.092 A 
HETATM    3  C20 UNL     1      24.510   3.203  51.985  1.00  0.00     0.139 A 
HETATM    4  N7  UNL     1      24.590   1.944  51.355  1.00  0.00    -0.334 N 
HETATM    5  H27 UNL     1      24.567   1.853  50.317  1.00  0.00     0.165 HD
ENDROOT
BRANCH   1   6
HETATM    6  C12 UNL     1      23.454   0.514  52.988  1.00  0.00     0.278 C 
HETATM    7  N3  UNL     1      22.109   0.382  52.632  1.00  0.00    -0.316 N 
HETATM    8  C2  UNL     1      21.472  -0.669  53.432  1.00  0.00     0.113 A 
HETATM    9  C11 UNL     1      21.355   1.096  51.666  1.00  0.00     0.097 A 
HETATM   10  C1  UNL     1      21.511  -0.302  54.907  1.00  0.00     0.037 C 
HETATM   11  C3  UNL     1      20.053  -0.782  53.034  1.00  0.00     0.027 A 
HETATM   12  C4  UNL     1      19.321  -0.139  52.143  1.00  0.00     0.029 A 
HETATM   13  C10 UNL     1      20.081   0.874  51.427  1.00  0.00     0.046 A 
HETATM   14  O1  UNL     1      24.119  -0.121  53.841  1.00  0.00    -0.268 OA
BRANCH  12  15
HETATM   15  N1  UNL     1      17.948  -0.369  51.876  1.00  0.00    -0.378 N 
HETATM   16  C5  UNL     1      17.350   0.171  50.665  1.00  0.00     0.153 C 
HETATM   17  C6  UNL     1      16.121  -0.587  50.241  1.00  0.00     0.291 C 
HETATM   18  N2  UNL     1      15.287  -1.006  51.339  1.00  0.00     0.087 N 
HETATM   19  C7  UNL     1      14.248  -1.864  50.785  1.00  0.00     0.310 C 
HETATM   20  C8  UNL     1      15.993  -1.778  52.324  1.00  0.00     0.291 C 
HETATM   21  C9  UNL     1      17.233  -1.144  52.860  1.00  0.00     0.153 C 
ENDBRANCH  12  15
ENDBRANCH   1   6
BRANCH   1  22
HETATM   22  N4  UNL     1      25.927   0.681  52.915  1.00  0.00    -0.351 N 
HETATM   23  H19 UNL     1      25.681   0.057  52.087  1.00  0.00     0.163 HD
BRANCH  22  24
HETATM   24  C14 UNL     1      27.158   0.082  53.145  1.00  0.00     0.059 A 
HETATM   25  C15 UNL     1      27.729  -1.150  52.998  1.00  0.00     0.051 A 
HETATM   26  C16 UNL     1      29.040  -1.314  53.369  1.00  0.00     0.118 A 
HETATM   27  N5  UNL     1      29.747  -0.299  53.866  1.00  0.00    -0.271 NA
HETATM   28  C17 UNL     1      29.276   0.943  54.048  1.00  0.00     0.147 A 
HETATM   29  C18 UNL     1      27.936   1.127  53.672  1.00  0.00     0.070 A 
BRANCH  29  30
HETATM   30  N6  UNL     1      27.617   2.513  53.941  1.00  0.00    -0.396 N 
HETATM   31  H23 UNL     1      27.069   2.477  54.843  1.00  0.00     0.156 HD
HETATM   32  H24 UNL     1      27.933   3.261  53.290  1.00  0.00     0.156 HD
ENDBRANCH  29  30
ENDBRANCH  22  24
ENDBRANCH   1  22
BRANCH   3  33
HETATM   33  O2  UNL     1      24.398   4.587  51.858  1.00  0.00    -0.346 OA
HETATM   34  H26 UNL     1      24.568   5.172  52.690  1.00  0.00     0.219 HD
ENDBRANCH   3  33
TORSDOF 6
ENDMDL
MODEL 2
REMARK VINA RESULT:      -8.2      2.650      4.634
REMARK  6 active torsions:
REMARK  status: ('A' for Active; 'I' for Inactive)
REMARK    1  A    between atoms: C4_4  and  N1_5 
REMARK       I    between atoms: N3_14  and  C12_15 
REMARK    2  A    between atoms: C12_15  and  C13_17 
REMARK    3  A    between atoms: C13_17  and  N4_18 
REMARK    4  A    between atoms: N4_18  and  C14_19 
REMARK    5  A    between atoms: C18_24  and  N6_25 
REMARK    6  A    between atoms: C20_27  and  O2_28 
ROOT
HETATM    1  C13 UNL     1      24.161   3.473  52.098  1.00  0.00     0.213 A 
HETATM    2  C19 UNL     1      24.800   2.132  52.145  1.00  0.00     0.092 A 
HETATM    3  C20 UNL     1      25.270   2.320  53.373  1.00  0.00     0.139 A 
HETATM    4  N7  UNL     1      24.714   3.613  53.465  1.00  0.00    -0.334 N 
HETATM    5  H27 UNL     1      24.831   4.195  54.322  1.00  0.00     0.165 HD
ENDROOT
BRANCH   1   6
HETATM    6  C12 UNL     1      22.684   3.362  52.117  1.00  0.00     0.278 C 
HETATM    7  N3  UNL     1      21.638   2.461  51.906  1.00  0.00    -0.316 N 
HETATM    8  C2  UNL     1      20.346   3.121  52.121  1.00  0.00     0.113 A 
HETATM    9  C11 UNL     1      21.685   1.093  51.534  1.00  0.00     0.097 A 
HETATM   10  C1  UNL     1      20.166   4.256  51.126  1.00  0.00     0.037 C 
HETATM   11  C3  UNL     1      19.262   2.143  51.888  1.00  0.00     0.027 A 
HETATM   12  C4  UNL     1      19.267   0.868  51.544  1.00  0.00     0.029 A 
HETATM   13  C10 UNL     1      20.614   0.347  51.364  1.00  0.00     0.046 A 
HETATM   14  O1  UNL     1      22.640   4.572  52.448  1.00  0.00    -0.268 OA
BRANCH  12  15
HETATM   15  N1  UNL     1      18.122   0.054  51.357  1.00  0.00    -0.378 N 
HETATM   16  C5  UNL     1      17.708  -0.857  52.411  1.00  0.00     0.153 C 
HETATM   17  C6  UNL     1      16.247  -1.209  52.328  1.00  0.00     0.291 C 
HETATM   18  N2  UNL     1      15.766  -1.388  50.981  1.00  0.00     0.087 N 
HETATM   19  C7  UNL     1      14.320  -1.549  51.059  1.00  0.00     0.310 C 
HETATM   20  C8  UNL     1      16.022  -0.257  50.133  1.00  0.00     0.291 C 
HETATM   21  C9  UNL     1      17.441   0.202  50.094  1.00  0.00     0.153 C 
ENDBRANCH  12  15
ENDBRANCH   1   6
BRANCH   1  22
HETATM   22  N4  UNL     1      24.753   4.347  51.169  1.00  0.00    -0.351 N 
HETATM   23  H19 UNL     1      25.508   3.602  51.080  1.00  0.00     0.163 HD
BRANCH  22  24
HETATM   24  C14 UNL     1      25.339   5.210  50.252  1.00  0.00     0.059 A 
HETATM   25  C15 UNL     1      26.059   5.122  49.096  1.00  0.00     0.051 A 
HETATM   26  C16 UNL     1      26.459   6.283  48.482  1.00  0.00     0.118 A 
HETATM   27  N5  UNL     1      26.156   7.475  48.999  1.00  0.00    -0.271 NA
HETATM   28  C17 UNL     1      25.456   7.662  50.126  1.00  0.00     0.147 A 
HETATM   29  C18 UNL     1      25.039   6.484  50.765  1.00  0.00     0.070 A 
BRANCH  29  30
HETATM   30  N6  UNL     1      24.308   6.890  51.947  1.00  0.00    -0.396 N 
HETATM   31  H23 UNL     1      24.477   6.103  52.632  1.00  0.00     0.156 HD
HETATM   32  H24 UNL     1      23.783   7.788  51.957  1.00  0.00     0.156 HD
ENDBRANCH  29  30
ENDBRANCH  22  24
ENDBRANCH   1  22
BRANCH   3  33
HETATM   33  O2  UNL     1      26.011   1.303  53.973  1.00  0.00    -0.346 OA
HETATM   34  H26 UNL     1      25.816   0.328  53.702  1.00  0.00     0.219 HD
ENDBRANCH   3  33
TORSDOF 6
ENDMDL
MODEL 3
REMARK VINA RESULT:      -8.0      3.923      7.770
REMARK  6 active torsions:
REMARK  status: ('A' for Active; 'I' for Inactive)
REMARK    1  A    between atoms: C4_4  and  N1_5 
REMARK       I    between atoms: N3_14  and  C12_15 
REMARK    2  A    between atoms: C12_15  and  C13_17 
REMARK    3  A    between atoms: C13_17  and  N4_18 
REMARK    4  A    between atoms: N4_18  and  C14_19 
REMARK    5  A    between atoms: C18_24  and  N6_25 
REMARK    6  A    between atoms: C20_27  and  O2_28 
ROOT
HETATM    1  C13 UNL     1      24.051   0.063  52.994  1.00  0.00     0.213 A 
HETATM    2  C19 UNL     1      22.943  -0.903  52.776  1.00  0.00     0.092 A 
HETATM    3  C20 UNL     1      22.438  -0.707  53.988  1.00  0.00     0.139 A 
HETATM    4  N7  UNL     1      23.432   0.232  54.329  1.00  0.00    -0.334 N 
HETATM    5  H27 UNL     1      23.444   0.697  55.263  1.00  0.00     0.165 HD
ENDROOT
BRANCH   1   6
HETATM    6  C12 UNL     1      23.879   1.273  52.157  1.00  0.00     0.278 C 
HETATM    7  N3  UNL     1      24.592   2.203  51.396  1.00  0.00    -0.316 N 
HETATM    8  C2  UNL     1      23.678   3.198  50.824  1.00  0.00     0.113 A 
HETATM    9  C11 UNL     1      25.984   2.287  51.142  1.00  0.00     0.097 A 
HETATM   10  C1  UNL     1      22.980   3.968  51.934  1.00  0.00     0.037 C 
HETATM   11  C3  UNL     1      24.462   4.168  50.029  1.00  0.00     0.027 A 
HETATM   12  C4  UNL     1      25.751   4.276  49.770  1.00  0.00     0.029 A 
HETATM   13  C10 UNL     1      26.535   3.225  50.401  1.00  0.00     0.046 A 
HETATM   14  O1  UNL     1      22.647   1.200  52.378  1.00  0.00    -0.268 OA
BRANCH  12  15
HETATM   15  N1  UNL     1      26.357   5.280  48.974  1.00  0.00    -0.378 N 
HETATM   16  C5  UNL     1      25.593   6.458  48.597  1.00  0.00     0.153 C 
HETATM   17  C6  UNL     1      26.471   7.636  48.271  1.00  0.00     0.291 C 
HETATM   18  N2  UNL     1      27.671   7.287  47.553  1.00  0.00     0.087 N 
HETATM   19  C7  UNL     1      28.485   8.492  47.467  1.00  0.00     0.310 C 
HETATM   20  C8  UNL     1      28.460   6.288  48.219  1.00  0.00     0.291 C 
HETATM   21  C9  UNL     1      27.728   5.043  48.592  1.00  0.00     0.153 C 
ENDBRANCH  12  15
ENDBRANCH   1   6
BRANCH   1  22
HETATM   22  N4  UNL     1      25.322  -0.539  53.045  1.00  0.00    -0.351 N 
HETATM   23  H19 UNL     1      24.942  -1.200  52.302  1.00  0.00     0.163 HD
BRANCH  22  24
HETATM   24  C14 UNL     1      26.576  -1.134  53.094  1.00  0.00     0.059 A 
HETATM   25  C15 UNL     1      27.177  -2.268  52.631  1.00  0.00     0.051 A 
HETATM   26  C16 UNL     1      28.502  -2.475  52.925  1.00  0.00     0.118 A 
HETATM   27  N5  UNL     1      29.193  -1.592  53.646  1.00  0.00    -0.271 NA
HETATM   28  C17 UNL     1      28.692  -0.452  54.143  1.00  0.00     0.147 A 
HETATM   29  C18 UNL     1      27.337  -0.226  53.851  1.00  0.00     0.070 A 
BRANCH  29  30
HETATM   30  N6  UNL     1      26.986   1.036  54.464  1.00  0.00    -0.396 N 
HETATM   31  H23 UNL     1      27.176   0.880  55.492  1.00  0.00     0.156 HD
HETATM   32  H24 UNL     1      26.639   1.825  53.882  1.00  0.00     0.156 HD
ENDBRANCH  29  30
ENDBRANCH  22  24
ENDBRANCH   1  22
BRANCH   3  33
HETATM   33  O2  UNL     1      21.296  -1.413  54.363  1.00  0.00    -0.346 OA
HETATM   34  H26 UNL     1      21.346  -2.441  54.408  1.00  0.00     0.219 HD
ENDBRANCH   3  33
TORSDOF 6
ENDMDL
MODEL 4
REMARK VINA RESULT:      -8.0      1.698      2.224
REMARK  6 active torsions:
REMARK  status: ('A' for Active; 'I' for Inactive)
REMARK    1  A    between atoms: C4_4  and  N1_5 
REMARK       I    between atoms: N3_14  and  C12_15 
REMARK    2  A    between atoms: C12_15  and  C13_17 
REMARK    3  A    between atoms: C13_17  and  N4_18 
REMARK    4  A    between atoms: N4_18  and  C14_19 
REMARK    5  A    between atoms: C18_24  and  N6_25 
REMARK    6  A    between atoms: C20_27  and  O2_28 
ROOT
HETATM    1  C13 UNL     1      24.487   2.970  52.329  1.00  0.00     0.213 A 
HETATM    2  C19 UNL     1      23.916   4.162  53.008  1.00  0.00     0.092 A 
HETATM    3  C20 UNL     1      24.117   4.946  51.956  1.00  0.00     0.139 A 
HETATM    4  N7  UNL     1      24.679   3.903  51.193  1.00  0.00    -0.334 N 
HETATM    5  H27 UNL     1      25.010   4.059  50.217  1.00  0.00     0.165 HD
ENDROOT
BRANCH   1   6
HETATM    6  C12 UNL     1      23.438   1.966  52.037  1.00  0.00     0.278 C 
HETATM    7  N3  UNL     1      22.053   1.788  52.012  1.00  0.00    -0.316 N 
HETATM    8  C2  UNL     1      21.723   0.420  51.599  1.00  0.00     0.113 A 
HETATM    9  C11 UNL     1      21.017   2.707  52.319  1.00  0.00     0.097 A 
HETATM   10  C1  UNL     1      22.285  -0.579  52.598  1.00  0.00     0.037 C 
HETATM   11  C3  UNL     1      20.253   0.263  51.584  1.00  0.00     0.027 A 
HETATM   12  C4  UNL     1      19.264   1.091  51.861  1.00  0.00     0.029 A 
HETATM   13  C10 UNL     1      19.737   2.409  52.257  1.00  0.00     0.046 A 
HETATM   14  O1  UNL     1      24.352   1.152  51.762  1.00  0.00    -0.268 OA
BRANCH  12  15
HETATM   15  N1  UNL     1      17.882   0.784  51.798  1.00  0.00    -0.378 N 
HETATM   16  C5  UNL     1      17.424  -0.553  52.143  1.00  0.00     0.153 C 
HETATM   17  C6  UNL     1      15.982  -0.577  52.570  1.00  0.00     0.291 C 
HETATM   18  N2  UNL     1      15.134   0.308  51.811  1.00  0.00     0.087 N 
HETATM   19  C7  UNL     1      13.825   0.301  52.449  1.00  0.00     0.310 C 
HETATM   20  C8  UNL     1      15.596   1.669  51.806  1.00  0.00     0.291 C 
HETATM   21  C9  UNL     1      17.013   1.858  51.382  1.00  0.00     0.153 C 
ENDBRANCH  12  15
ENDBRANCH   1   6
BRANCH   1  22
HETATM   22  N4  UNL     1      25.698   2.526  52.891  1.00  0.00    -0.351 N 
HETATM   23  H19 UNL     1      25.084   2.040  53.612  1.00  0.00     0.163 HD
BRANCH  22  24
HETATM   24  C14 UNL     1      26.893   2.088  53.447  1.00  0.00     0.059 A 
HETATM   25  C15 UNL     1      28.203   2.468  53.459  1.00  0.00     0.051 A 
HETATM   26  C16 UNL     1      29.099   1.712  54.173  1.00  0.00     0.118 A 
HETATM   27  N5  UNL     1      28.706   0.627  54.841  1.00  0.00    -0.271 NA
HETATM   28  C17 UNL     1      27.445   0.175  54.888  1.00  0.00     0.147 A 
HETATM   29  C18 UNL     1      26.516   0.939  54.163  1.00  0.00     0.070 A 
BRANCH  29  30
HETATM   30  N6  UNL     1      25.229   0.299  54.335  1.00  0.00    -0.396 N 
HETATM   31  H23 UNL     1      24.705   0.954  54.978  1.00  0.00     0.156 HD
HETATM   32  H24 UNL     1      25.024  -0.603  53.861  1.00  0.00     0.156 HD
ENDBRANCH  29  30
ENDBRANCH  22  24
ENDBRANCH   1  22
BRANCH   3  33
HETATM   33  O2  UNL     1      23.739   6.287  52.034  1.00  0.00    -0.346 OA
HETATM   34  H26 UNL     1      23.066   6.649  51.344  1.00  0.00     0.219 HD
ENDBRANCH   3  33
TORSDOF 6
ENDMDL
MODEL 5
REMARK VINA RESULT:      -8.0      3.768      5.194
REMARK  6 active torsions:
REMARK  status: ('A' for Active; 'I' for Inactive)
REMARK    1  A    between atoms: C4_4  and  N1_5 
REMARK       I    between atoms: N3_14  and  C12_15 
REMARK    2  A    between atoms: C12_15  and  C13_17 
REMARK    3  A    between atoms: C13_17  and  N4_18 
REMARK    4  A    between atoms: N4_18  and  C14_19 
REMARK    5  A    between atoms: C18_24  and  N6_25 
REMARK    6  A    between atoms: C20_27  and  O2_28 
ROOT
HETATM    1  C13 UNL     1      23.617   0.238  52.866  1.00  0.00     0.213 A 
HETATM    2  C19 UNL     1      22.512  -0.749  52.749  1.00  0.00     0.092 A 
HETATM    3  C20 UNL     1      22.019  -0.446  53.944  1.00  0.00     0.139 A 
HETATM    4  N7  UNL     1      23.012   0.525  54.188  1.00  0.00    -0.334 N 
HETATM    5  H27 UNL     1      23.031   1.072  55.075  1.00  0.00     0.165 HD
ENDROOT
BRANCH   1   6
HETATM    6  C12 UNL     1      23.429   1.366  51.925  1.00  0.00     0.278 C 
HETATM    7  N3  UNL     1      22.751   1.736  50.761  1.00  0.00    -0.316 N 
HETATM    8  C2  UNL     1      23.092   3.114  50.390  1.00  0.00     0.113 A 
HETATM    9  C11 UNL     1      21.848   0.988  49.964  1.00  0.00     0.097 A 
HETATM   10  C1  UNL     1      24.580   3.224  50.096  1.00  0.00     0.037 C 
HETATM   11  C3  UNL     1      22.362   3.473  49.156  1.00  0.00     0.027 A 
HETATM   12  C4  UNL     1      21.518   2.807  48.391  1.00  0.00     0.029 A 
HETATM   13  C10 UNL     1      21.273   1.457  48.878  1.00  0.00     0.046 A 
HETATM   14  O1  UNL     1      24.226   2.032  52.630  1.00  0.00    -0.268 OA
BRANCH  12  15
HETATM   15  N1  UNL     1      20.891   3.301  47.219  1.00  0.00    -0.378 N 
HETATM   16  C5  UNL     1      21.704   3.846  46.144  1.00  0.00     0.153 C 
HETATM   17  C6  UNL     1      21.005   3.799  44.812  1.00  0.00     0.291 C 
HETATM   18  N2  UNL     1      19.597   4.096  44.881  1.00  0.00     0.087 N 
HETATM   19  C7  UNL     1      19.039   3.841  43.560  1.00  0.00     0.310 C 
HETATM   20  C8  UNL     1      18.887   3.260  45.810  1.00  0.00     0.291 C 
HETATM   21  C9  UNL     1      19.451   3.219  47.190  1.00  0.00     0.153 C 
ENDBRANCH  12  15
ENDBRANCH   1   6
BRANCH   1  22
HETATM   22  N4  UNL     1      24.891  -0.351  52.957  1.00  0.00    -0.351 N 
HETATM   23  H19 UNL     1      25.249   0.569  52.558  1.00  0.00     0.163 HD
BRANCH  22  24
HETATM   24  C14 UNL     1      26.150  -0.931  53.046  1.00  0.00     0.059 A 
HETATM   25  C15 UNL     1      26.786  -2.045  52.580  1.00  0.00     0.051 A 
HETATM   26  C16 UNL     1      28.100  -2.243  52.927  1.00  0.00     0.118 A 
HETATM   27  N5  UNL     1      28.747  -1.372  53.701  1.00  0.00    -0.271 NA
HETATM   28  C17 UNL     1      28.208  -0.253  54.205  1.00  0.00     0.147 A 
HETATM   29  C18 UNL     1      26.865  -0.036  53.860  1.00  0.00     0.070 A 
BRANCH  29  30
HETATM   30  N6  UNL     1      26.470   1.206  54.491  1.00  0.00    -0.396 N 
HETATM   31  H23 UNL     1      25.793   0.903  55.244  1.00  0.00     0.156 HD
HETATM   32  H24 UNL     1      26.858   2.111  54.158  1.00  0.00     0.156 HD
ENDBRANCH  29  30
ENDBRANCH  22  24
ENDBRANCH   1  22
BRANCH   3  33
HETATM   33  O2  UNL     1      20.885  -1.121  54.394  1.00  0.00    -0.346 OA
HETATM   34  H26 UNL     1      20.131  -1.319  53.720  1.00  0.00     0.219 HD
ENDBRANCH   3  33
TORSDOF 6
ENDMDL
MODEL 6
REMARK VINA RESULT:      -7.9      4.287      5.232
REMARK  6 active torsions:
REMARK  status: ('A' for Active; 'I' for Inactive)
REMARK    1  A    between atoms: C4_4  and  N1_5 
REMARK       I    between atoms: N3_14  and  C12_15 
REMARK    2  A    between atoms: C12_15  and  C13_17 
REMARK    3  A    between atoms: C13_17  and  N4_18 
REMARK    4  A    between atoms: N4_18  and  C14_19 
REMARK    5  A    between atoms: C18_24  and  N6_25 
REMARK    6  A    between atoms: C20_27  and  O2_28 
ROOT
HETATM    1  C13 UNL     1      24.345   2.369  51.904  1.00  0.00     0.213 A 
HETATM    2  C19 UNL     1      23.670   3.019  53.057  1.00  0.00     0.092 A 
HETATM    3  C20 UNL     1      24.215   4.202  52.801  1.00  0.00     0.139 A 
HETATM    4  N7  UNL     1      24.915   3.718  51.677  1.00  0.00    -0.334 N 
HETATM    5  H27 UNL     1      25.527   4.340  51.107  1.00  0.00     0.165 HD
ENDROOT
BRANCH   1   6
HETATM    6  C12 UNL     1      23.370   2.006  50.848  1.00  0.00     0.278 C 
HETATM    7  N3  UNL     1      22.750   2.498  49.698  1.00  0.00    -0.316 N 
HETATM    8  C2  UNL     1      21.829   1.497  49.149  1.00  0.00     0.113 A 
HETATM    9  C11 UNL     1      22.897   3.755  49.058  1.00  0.00     0.097 A 
HETATM   10  C1  UNL     1      20.730   1.188  50.153  1.00  0.00     0.037 C 
HETATM   11  C3  UNL     1      21.188   2.048  47.936  1.00  0.00     0.027 A 
HETATM   12  C4  UNL     1      21.300   3.206  47.313  1.00  0.00     0.029 A 
HETATM   13  C10 UNL     1      22.245   4.099  47.968  1.00  0.00     0.046 A 
HETATM   14  O1  UNL     1      23.240   0.892  51.410  1.00  0.00    -0.268 OA
BRANCH  12  15
HETATM   15  N1  UNL     1      20.605   3.589  46.140  1.00  0.00    -0.378 N 
HETATM   16  C5  UNL     1      21.349   4.060  44.983  1.00  0.00     0.153 C 
HETATM   17  C6  UNL     1      20.586   3.889  43.697  1.00  0.00     0.291 C 
HETATM   18  N2  UNL     1      19.176   4.162  43.815  1.00  0.00     0.087 N 
HETATM   19  C7  UNL     1      18.559   3.788  42.549  1.00  0.00     0.310 C 
HETATM   20  C8  UNL     1      18.533   3.392  44.844  1.00  0.00     0.291 C 
HETATM   21  C9  UNL     1      19.167   3.476  46.191  1.00  0.00     0.153 C 
ENDBRANCH  12  15
ENDBRANCH   1   6
BRANCH   1  22
HETATM   22  N4  UNL     1      25.309   1.416  52.278  1.00  0.00    -0.351 N 
HETATM   23  H19 UNL     1      24.639   0.702  51.860  1.00  0.00     0.163 HD
BRANCH  22  24
HETATM   24  C14 UNL     1      26.260   0.474  52.648  1.00  0.00     0.059 A 
HETATM   25  C15 UNL     1      26.552  -0.831  52.374  1.00  0.00     0.051 A 
HETATM   26  C16 UNL     1      27.639  -1.402  52.989  1.00  0.00     0.118 A 
HETATM   27  N5  UNL     1      28.397  -0.705  53.836  1.00  0.00    -0.271 NA
HETATM   28  C17 UNL     1      28.190   0.577  54.167  1.00  0.00     0.147 A 
HETATM   29  C18 UNL     1      27.082   1.176  53.546  1.00  0.00     0.070 A 
BRANCH  29  30
HETATM   30  N6  UNL     1      27.027   2.541  54.024  1.00  0.00    -0.396 N 
HETATM   31  H23 UNL     1      25.993   2.755  54.063  1.00  0.00     0.156 HD
HETATM   32  H24 UNL     1      27.904   3.059  54.237  1.00  0.00     0.156 HD
ENDBRANCH  29  30
ENDBRANCH  22  24
ENDBRANCH   1  22
BRANCH   3  33
HETATM   33  O2  UNL     1      23.910   5.278  53.634  1.00  0.00    -0.346 OA
HETATM   34  H26 UNL     1      24.598   6.039  53.726  1.00  0.00     0.219 HD
ENDBRANCH   3  33
TORSDOF 6
ENDMDL
MODEL 7
REMARK VINA RESULT:      -7.9      3.071      4.691
REMARK  6 active torsions:
REMARK  status: ('A' for Active; 'I' for Inactive)
REMARK    1  A    between atoms: C4_4  and  N1_5 
REMARK       I    between atoms: N3_14  and  C12_15 
REMARK    2  A    between atoms: C12_15  and  C13_17 
REMARK    3  A    between atoms: C13_17  and  N4_18 
REMARK    4  A    between atoms: N4_18  and  C14_19 
REMARK    5  A    between atoms: C18_24  and  N6_25 
REMARK    6  A    between atoms: C20_27  and  O2_28 
ROOT
HETATM    1  C13 UNL     1      24.716   2.845  52.043  1.00  0.00     0.213 A 
HETATM    2  C19 UNL     1      25.770   1.866  52.414  1.00  0.00     0.092 A 
HETATM    3  C20 UNL     1      25.814   2.282  53.674  1.00  0.00     0.139 A 
HETATM    4  N7  UNL     1      24.816   3.256  53.463  1.00  0.00    -0.334 N 
HETATM    5  H27 UNL     1      24.492   3.878  54.234  1.00  0.00     0.165 HD
ENDROOT
BRANCH   1   6
HETATM    6  C12 UNL     1      23.429   2.166  51.763  1.00  0.00     0.278 C 
HETATM    7  N3  UNL     1      22.049   2.377  51.736  1.00  0.00    -0.316 N 
HETATM    8  C2  UNL     1      21.354   1.147  51.342  1.00  0.00     0.113 A 
HETATM    9  C11 UNL     1      21.308   3.551  52.026  1.00  0.00     0.097 A 
HETATM   10  C1  UNL     1      21.618   0.047  52.357  1.00  0.00     0.037 C 
HETATM   11  C3  UNL     1      19.897   1.403  51.324  1.00  0.00     0.027 A 
HETATM   12  C4  UNL     1      19.176   2.476  51.586  1.00  0.00     0.029 A 
HETATM   13  C10 UNL     1      19.995   3.618  51.964  1.00  0.00     0.046 A 
HETATM   14  O1  UNL     1      24.082   1.127  51.503  1.00  0.00    -0.268 OA
BRANCH  12  15
HETATM   15  N1  UNL     1      17.762   2.562  51.523  1.00  0.00    -0.378 N 
HETATM   16  C5  UNL     1      16.972   1.348  51.399  1.00  0.00     0.153 C 
HETATM   17  C6  UNL     1      15.563   1.523  51.898  1.00  0.00     0.291 C 
HETATM   18  N2  UNL     1      14.985   2.803  51.574  1.00  0.00     0.087 N 
HETATM   19  C7  UNL     1      13.705   2.883  52.265  1.00  0.00     0.310 C 
HETATM   20  C8  UNL     1      15.779   3.913  52.022  1.00  0.00     0.291 C 
HETATM   21  C9  UNL     1      17.206   3.892  51.588  1.00  0.00     0.153 C 
ENDBRANCH  12  15
ENDBRANCH   1   6
BRANCH   1  22
HETATM   22  N4  UNL     1      25.156   3.836  51.148  1.00  0.00    -0.351 N 
HETATM   23  H19 UNL     1      24.121   4.043  51.004  1.00  0.00     0.163 HD
BRANCH  22  24
HETATM   24  C14 UNL     1      25.589   4.815  50.263  1.00  0.00     0.059 A 
HETATM   25  C15 UNL     1      26.406   4.904  49.173  1.00  0.00     0.051 A 
HETATM   26  C16 UNL     1      26.561   6.127  48.568  1.00  0.00     0.118 A 
HETATM   27  N5  UNL     1      25.933   7.209  49.030  1.00  0.00    -0.271 NA
HETATM   28  C17 UNL     1      25.113   7.220  50.091  1.00  0.00     0.147 A 
HETATM   29  C18 UNL     1      24.943   5.977  50.720  1.00  0.00     0.070 A 
BRANCH  29  30
HETATM   30  N6  UNL     1      24.036   6.193  51.827  1.00  0.00    -0.396 N 
HETATM   31  H23 UNL     1      24.675   6.294  52.663  1.00  0.00     0.156 HD
HETATM   32  H24 UNL     1      23.009   6.216  51.667  1.00  0.00     0.156 HD
ENDBRANCH  29  30
ENDBRANCH  22  24
ENDBRANCH   1  22
BRANCH   3  33
HETATM   33  O2  UNL     1      26.703   1.667  54.555  1.00  0.00    -0.346 OA
HETATM   34  H26 UNL     1      26.608   0.654  54.721  1.00  0.00     0.219 HD
ENDBRANCH   3  33
TORSDOF 6
ENDMDL
MODEL 8
REMARK VINA RESULT:      -7.7      1.621      2.380
REMARK  6 active torsions:
REMARK  status: ('A' for Active; 'I' for Inactive)
REMARK    1  A    between atoms: C4_4  and  N1_5 
REMARK       I    between atoms: N3_14  and  C12_15 
REMARK    2  A    between atoms: C12_15  and  C13_17 
REMARK    3  A    between atoms: C13_17  and  N4_18 
REMARK    4  A    between atoms: N4_18  and  C14_19 
REMARK    5  A    between atoms: C18_24  and  N6_25 
REMARK    6  A    between atoms: C20_27  and  O2_28 
ROOT
HETATM    1  C13 UNL     1      23.929   2.621  51.978  1.00  0.00     0.213 A 
HETATM    2  C19 UNL     1      23.571   3.489  53.129  1.00  0.00     0.092 A 
HETATM    3  C20 UNL     1      24.155   4.557  52.597  1.00  0.00     0.139 A 
HETATM    4  N7  UNL     1      24.558   3.852  51.445  1.00  0.00    -0.334 N 
HETATM    5  H27 UNL     1      25.091   4.319  50.680  1.00  0.00     0.165 HD
ENDROOT
BRANCH   1   6
HETATM    6  C12 UNL     1      22.727   2.243  51.199  1.00  0.00     0.278 C 
HETATM    7  N3  UNL     1      21.499   1.585  51.307  1.00  0.00    -0.316 N 
HETATM    8  C2  UNL     1      20.796   1.606  50.019  1.00  0.00     0.113 A 
HETATM    9  C11 UNL     1      20.910   0.949  52.429  1.00  0.00     0.097 A 
HETATM   10  C1  UNL     1      21.609   0.869  48.967  1.00  0.00     0.037 C 
HETATM   11  C3  UNL     1      19.505   0.901  50.166  1.00  0.00     0.027 A 
HETATM   12  C4  UNL     1      18.926   0.301  51.189  1.00  0.00     0.029 A 
HETATM   13  C10 UNL     1      19.735   0.357  52.397  1.00  0.00     0.046 A 
HETATM   14  O1  UNL     1      23.245   2.807  50.205  1.00  0.00    -0.268 OA
BRANCH  12  15
HETATM   15  N1  UNL     1      17.662  -0.340  51.168  1.00  0.00    -0.378 N 
HETATM   16  C5  UNL     1      17.178  -1.017  52.361  1.00  0.00     0.153 C 
HETATM   17  C6  UNL     1      15.679  -1.142  52.386  1.00  0.00     0.291 C 
HETATM   18  N2  UNL     1      15.096  -1.430  51.099  1.00  0.00     0.087 N 
HETATM   19  C7  UNL     1      13.650  -1.347  51.255  1.00  0.00     0.310 C 
HETATM   20  C8  UNL     1      15.468  -0.483  50.084  1.00  0.00     0.291 C 
HETATM   21  C9  UNL     1      16.935  -0.265  49.924  1.00  0.00     0.153 C 
ENDBRANCH  12  15
ENDBRANCH   1   6
BRANCH   1  22
HETATM   22  N4  UNL     1      24.860   1.617  52.297  1.00  0.00    -0.351 N 
HETATM   23  H19 UNL     1      25.580   2.401  52.281  1.00  0.00     0.163 HD
BRANCH  22  24
HETATM   24  C14 UNL     1      25.781   0.626  52.612  1.00  0.00     0.059 A 
HETATM   25  C15 UNL     1      26.000  -0.686  52.307  1.00  0.00     0.051 A 
HETATM   26  C16 UNL     1      27.083  -1.318  52.866  1.00  0.00     0.118 A 
HETATM   27  N5  UNL     1      27.908  -0.671  53.690  1.00  0.00    -0.271 NA
HETATM   28  C17 UNL     1      27.775   0.614  54.048  1.00  0.00     0.147 A 
HETATM   29  C18 UNL     1      26.672   1.274  53.484  1.00  0.00     0.070 A 
BRANCH  29  30
HETATM   30  N6  UNL     1      26.701   2.632  53.985  1.00  0.00    -0.396 N 
HETATM   31  H23 UNL     1      26.489   2.527  55.015  1.00  0.00     0.156 HD
HETATM   32  H24 UNL     1      26.902   3.424  53.342  1.00  0.00     0.156 HD
ENDBRANCH  29  30
ENDBRANCH  22  24
ENDBRANCH   1  22
BRANCH   3  33
HETATM   33  O2  UNL     1      24.129   5.760  53.303  1.00  0.00    -0.346 OA
HETATM   34  H26 UNL     1      24.528   5.781  54.252  1.00  0.00     0.219 HD
ENDBRANCH   3  33
TORSDOF 6
ENDMDL
MODEL 9
REMARK VINA RESULT:      -7.7      3.365      9.934
REMARK  6 active torsions:
REMARK  status: ('A' for Active; 'I' for Inactive)
REMARK    1  A    between atoms: C4_4  and  N1_5 
REMARK       I    between atoms: N3_14  and  C12_15 
REMARK    2  A    between atoms: C12_15  and  C13_17 
REMARK    3  A    between atoms: C13_17  and  N4_18 
REMARK    4  A    between atoms: N4_18  and  C14_19 
REMARK    5  A    between atoms: C18_24  and  N6_25 
REMARK    6  A    between atoms: C20_27  and  O2_28 
ROOT
HETATM    1  C13 UNL     1      16.692   0.397  51.322  1.00  0.00     0.213 A 
HETATM    2  C19 UNL     1      16.108  -0.803  50.670  1.00  0.00     0.092 A 
HETATM    3  C20 UNL     1      16.543  -0.448  49.466  1.00  0.00     0.139 A 
HETATM    4  N7  UNL     1      17.147   0.729  49.952  1.00  0.00    -0.334 N 
HETATM    5  H27 UNL     1      17.654   1.383  49.317  1.00  0.00     0.165 HD
ENDROOT
BRANCH   1   6
HETATM    6  C12 UNL     1      17.827   0.030  52.200  1.00  0.00     0.278 C 
HETATM    7  N3  UNL     1      19.220   0.087  52.290  1.00  0.00    -0.316 N 
HETATM    8  C2  UNL     1      19.675  -0.530  53.540  1.00  0.00     0.113 A 
HETATM    9  C11 UNL     1      20.164   0.627  51.379  1.00  0.00     0.097 A 
HETATM   10  C1  UNL     1      19.283  -1.999  53.573  1.00  0.00     0.037 C 
HETATM   11  C3  UNL     1      21.150  -0.457  53.604  1.00  0.00     0.027 A 
HETATM   12  C4  UNL     1      22.056   0.036  52.781  1.00  0.00     0.029 A 
HETATM   13  C10 UNL     1      21.464   0.614  51.584  1.00  0.00     0.046 A 
HETATM   14  O1  UNL     1      16.995  -0.445  53.009  1.00  0.00    -0.268 OA
BRANCH  12  15
HETATM   15  N1  UNL     1      23.458   0.030  52.989  1.00  0.00    -0.378 N 
HETATM   16  C5  UNL     1      24.303   0.939  52.232  1.00  0.00     0.153 C 
HETATM   17  C6  UNL     1      25.610   1.222  52.922  1.00  0.00     0.291 C 
HETATM   18  N2  UNL     1      26.183   0.074  53.578  1.00  0.00     0.087 N 
HETATM   19  C7  UNL     1      27.337   0.542  54.334  1.00  0.00     0.310 C 
HETATM   20  C8  UNL     1      25.288  -0.550  54.514  1.00  0.00     0.291 C 
HETATM   21  C9  UNL     1      23.947  -0.910  53.968  1.00  0.00     0.153 C 
ENDBRANCH  12  15
ENDBRANCH   1   6
BRANCH   1  22
HETATM   22  N4  UNL     1      15.728   1.294  51.818  1.00  0.00    -0.351 N 
HETATM   23  H19 UNL     1      15.255   0.429  52.219  1.00  0.00     0.163 HD
BRANCH  22  24
HETATM   24  C14 UNL     1      14.776   2.179  52.308  1.00  0.00     0.059 A 
HETATM   25  C15 UNL     1      14.460   3.500  52.177  1.00  0.00     0.051 A 
HETATM   26  C16 UNL     1      13.384   3.990  52.876  1.00  0.00     0.118 A 
HETATM   27  N5  UNL     1      12.660   3.199  53.668  1.00  0.00    -0.271 NA
HETATM   28  C17 UNL     1      12.892   1.893  53.860  1.00  0.00     0.147 A 
HETATM   29  C18 UNL     1      13.989   1.377  53.152  1.00  0.00     0.070 A 
BRANCH  29  30
HETATM   30  N6  UNL     1      14.075  -0.029  53.486  1.00  0.00    -0.396 N 
HETATM   31  H23 UNL     1      13.349  -0.154  54.245  1.00  0.00     0.156 HD
HETATM   32  H24 UNL     1      14.753  -0.645  52.995  1.00  0.00     0.156 HD
ENDBRANCH  29  30
ENDBRANCH  22  24
ENDBRANCH   1  22
BRANCH   3  33
HETATM   33  O2  UNL     1      16.261  -1.274  48.378  1.00  0.00    -0.346 OA
HETATM   34  H26 UNL     1      16.223  -0.853  47.439  1.00  0.00     0.219 HD
ENDBRANCH   3  33
TORSDOF 6
ENDMDL
