MODEL 1
REMARK VINA RESULT:      -7.9      0.000      0.000
REMARK  7 active torsions:
REMARK  status: ('A' for Active; 'I' for Inactive)
REMARK    1  A    between atoms: C3_3  and  C4_4 
REMARK    2  A    between atoms: C4_4  and  C5_5 
REMARK    3  A    between atoms: C5_5  and  C6_6 
REMARK    4  A    between atoms: C6_6  and  C7_7 
REMARK    5  A    between atoms: C7_7  and  O1_8 
REMARK    6  A    between atoms: O1_8  and  C8_9 
REMARK    7  A    between atoms: C9_10  and  O2_11 
ROOT
HETATM    1  C1  UNL     1      27.254  -1.973  52.701  1.00  0.00     0.012 C 
HETATM    2  C2  UNL     1      28.352  -1.640  53.090  1.00  0.00    -0.117 C 
HETATM    3  C3  UNL     1      29.677  -1.247  53.580  1.00  0.00     0.093 C 
ENDROOT
BRANCH   3   4
HETATM    4  C4  UNL     1      29.875   0.269  53.455  1.00  0.00     0.012 C 
BRANCH   4   5
HETATM    5  C5  UNL     1      28.820   0.921  54.303  1.00  0.00     0.003 C 
BRANCH   5   6
HETATM    6  C6  UNL     1      28.153   2.087  53.594  1.00  0.00     0.027 C 
BRANCH   6   7
HETATM    7  C7  UNL     1      26.669   2.062  53.743  1.00  0.00     0.176 C 
BRANCH   7   8
HETATM    8  O1  UNL     1      26.075   1.198  52.806  1.00  0.00    -0.347 OA
BRANCH   8   9
HETATM    9  C8  UNL     1      24.914   1.571  52.156  1.00  0.00     0.113 A 
HETATM   10  C9  UNL     1      24.803   2.566  51.210  1.00  0.00     0.104 A 
HETATM   11  C11 UNL     1      23.630   2.916  50.582  1.00  0.00     0.072 A 
HETATM   12  C12 UNL     1      22.478   2.204  50.938  1.00  0.00     0.074 A 
HETATM   13  N1  UNL     1      21.375   2.636  50.256  1.00  0.00    -0.241 NA
HETATM   14  C15 UNL     1      22.460   1.173  51.883  1.00  0.00     0.031 A 
HETATM   15  C13 UNL     1      20.210   2.056  50.489  1.00  0.00     0.234 A 
HETATM   16  N2  UNL     1      20.187   1.084  51.379  1.00  0.00    -0.245 NA
HETATM   17  C14 UNL     1      21.219   0.602  52.090  1.00  0.00     0.052 A 
HETATM   18  C21 UNL     1      20.548  -0.443  52.880  1.00  0.00     0.087 C 
HETATM   19  C20 UNL     1      21.055  -0.616  54.249  1.00  0.00    -0.018 C 
HETATM   20  C19 UNL     1      22.164  -0.736  54.958  1.00  0.00     0.038 C 
HETATM   21  C18 UNL     1      23.546  -0.732  54.467  1.00  0.00     0.117 C 
HETATM   22  C17 UNL     1      24.176  -0.082  53.467  1.00  0.00     0.057 C 
HETATM   23  F1  UNL     1      24.349  -1.581  55.192  1.00  0.00    -0.206 F 
HETATM   24  C16 UNL     1      23.715   0.907  52.456  1.00  0.00     0.018 A 
BRANCH  10  25
HETATM   25  O2  UNL     1      25.947   3.265  50.860  1.00  0.00    -0.353 OA
HETATM   26  C10 UNL     1      26.522   3.273  49.569  1.00  0.00     0.210 C 
ENDBRANCH  10  25
ENDBRANCH   8   9
ENDBRANCH   7   8
ENDBRANCH   6   7
ENDBRANCH   5   6
ENDBRANCH   4   5
ENDBRANCH   3   4
TORSDOF 7
ENDMDL
MODEL 2
REMARK VINA RESULT:      -7.5      2.661      5.448
REMARK  7 active torsions:
REMARK  status: ('A' for Active; 'I' for Inactive)
REMARK    1  A    between atoms: C3_3  and  C4_4 
REMARK    2  A    between atoms: C4_4  and  C5_5 
REMARK    3  A    between atoms: C5_5  and  C6_6 
REMARK    4  A    between atoms: C6_6  and  C7_7 
REMARK    5  A    between atoms: C7_7  and  O1_8 
REMARK    6  A    between atoms: O1_8  and  C8_9 
REMARK    7  A    between atoms: C9_10  and  O2_11 
ROOT
HETATM    1  C1  UNL     1      28.933   7.643  46.752  1.00  0.00     0.012 C 
HETATM    2  C2  UNL     1      28.248   7.037  47.546  1.00  0.00    -0.117 C 
HETATM    3  C3  UNL     1      27.424   6.317  48.523  1.00  0.00     0.093 C 
ENDROOT
BRANCH   3   4
HETATM    4  C4  UNL     1      27.823   4.837  48.583  1.00  0.00     0.012 C 
BRANCH   4   5
HETATM    5  C5  UNL     1      26.738   4.121  49.335  1.00  0.00     0.003 C 
BRANCH   5   6
HETATM    6  C6  UNL     1      25.561   5.030  49.650  1.00  0.00     0.027 C 
BRANCH   6   7
HETATM    7  C7  UNL     1      24.481   4.316  50.392  1.00  0.00     0.176 C 
BRANCH   7   8
HETATM    8  O1  UNL     1      24.565   2.925  50.204  1.00  0.00    -0.347 OA
BRANCH   8   9
HETATM    9  C8  UNL     1      23.745   2.077  50.923  1.00  0.00     0.113 A 
HETATM   10  C9  UNL     1      22.391   1.908  50.729  1.00  0.00     0.104 A 
HETATM   11  C11 UNL     1      21.600   1.056  51.465  1.00  0.00     0.072 A 
HETATM   12  C12 UNL     1      22.226   0.316  52.476  1.00  0.00     0.074 A 
HETATM   13  N1  UNL     1      21.347  -0.492  53.141  1.00  0.00    -0.241 NA
HETATM   14  C15 UNL     1      23.591   0.398  52.770  1.00  0.00     0.031 A 
HETATM   15  C13 UNL     1      21.795  -1.252  54.126  1.00  0.00     0.234 A 
HETATM   16  N2  UNL     1      23.080  -1.179  54.407  1.00  0.00    -0.245 NA
HETATM   17  C14 UNL     1      24.006  -0.415  53.806  1.00  0.00     0.052 A 
HETATM   18  C21 UNL     1      25.210  -0.787  54.569  1.00  0.00     0.087 C 
HETATM   19  C20 UNL     1      26.166   0.305  54.802  1.00  0.00    -0.018 C 
HETATM   20  C19 UNL     1      26.802   1.298  54.206  1.00  0.00     0.038 C 
HETATM   21  C18 UNL     1      26.721   1.697  52.797  1.00  0.00     0.117 C 
HETATM   22  C17 UNL     1      25.725   1.699  51.887  1.00  0.00     0.057 C 
HETATM   23  F1  UNL     1      27.928   2.157  52.325  1.00  0.00    -0.206 F 
HETATM   24  C16 UNL     1      24.294   1.300  51.953  1.00  0.00     0.018 A 
BRANCH  10  25
HETATM   25  O2  UNL     1      21.778   2.641  49.726  1.00  0.00    -0.353 OA
HETATM   26  C10 UNL     1      21.347   2.110  48.489  1.00  0.00     0.210 C 
ENDBRANCH  10  25
ENDBRANCH   8   9
ENDBRANCH   7   8
ENDBRANCH   6   7
ENDBRANCH   5   6
ENDBRANCH   4   5
ENDBRANCH   3   4
TORSDOF 7
ENDMDL
MODEL 3
REMARK VINA RESULT:      -7.1      2.977      5.616
REMARK  7 active torsions:
REMARK  status: ('A' for Active; 'I' for Inactive)
REMARK    1  A    between atoms: C3_3  and  C4_4 
REMARK    2  A    between atoms: C4_4  and  C5_5 
REMARK    3  A    between atoms: C5_5  and  C6_6 
REMARK    4  A    between atoms: C6_6  and  C7_7 
REMARK    5  A    between atoms: C7_7  and  O1_8 
REMARK    6  A    between atoms: O1_8  and  C8_9 
REMARK    7  A    between atoms: C9_10  and  O2_11 
ROOT
HETATM    1  C1  UNL     1      30.712   7.502  48.880  1.00  0.00     0.012 C 
HETATM    2  C2  UNL     1      29.655   7.284  48.328  1.00  0.00    -0.117 C 
HETATM    3  C3  UNL     1      28.376   7.042  47.654  1.00  0.00     0.093 C 
ENDROOT
BRANCH   3   4
HETATM    4  C4  UNL     1      27.383   6.360  48.604  1.00  0.00     0.012 C 
BRANCH   4   5
HETATM    5  C5  UNL     1      27.749   4.904  48.652  1.00  0.00     0.003 C 
BRANCH   5   6
HETATM    6  C6  UNL     1      26.570   4.027  49.037  1.00  0.00     0.027 C 
BRANCH   6   7
HETATM    7  C7  UNL     1      26.771   3.362  50.357  1.00  0.00     0.176 C 
BRANCH   7   8
HETATM    8  O1  UNL     1      25.670   3.571  51.208  1.00  0.00    -0.347 OA
BRANCH   8   9
HETATM    9  C8  UNL     1      25.138   2.518  51.927  1.00  0.00     0.113 A 
HETATM   10  C9  UNL     1      25.728   1.900  53.007  1.00  0.00     0.104 A 
HETATM   11  C11 UNL     1      25.173   0.849  53.701  1.00  0.00     0.072 A 
HETATM   12  C12 UNL     1      23.923   0.387  53.270  1.00  0.00     0.074 A 
HETATM   13  N1  UNL     1      23.470  -0.656  54.028  1.00  0.00    -0.241 NA
HETATM   14  C15 UNL     1      23.224   0.931  52.188  1.00  0.00     0.031 A 
HETATM   15  C13 UNL     1      22.300  -1.199  53.737  1.00  0.00     0.234 A 
HETATM   16  N2  UNL     1      21.636  -0.691  52.718  1.00  0.00    -0.245 NA
HETATM   17  C14 UNL     1      22.009   0.328  51.926  1.00  0.00     0.052 A 
HETATM   18  C21 UNL     1      20.860   0.399  51.008  1.00  0.00     0.087 C 
HETATM   19  C20 UNL     1      21.190   0.749  49.618  1.00  0.00    -0.018 C 
HETATM   20  C19 UNL     1      21.884   1.595  48.878  1.00  0.00     0.038 C 
HETATM   21  C18 UNL     1      22.734   2.698  49.337  1.00  0.00     0.117 C 
HETATM   22  C17 UNL     1      23.538   2.870  50.408  1.00  0.00     0.057 C 
HETATM   23  F1  UNL     1      22.682   3.775  48.484  1.00  0.00    -0.206 F 
HETATM   24  C16 UNL     1      23.889   1.997  51.558  1.00  0.00     0.018 A 
BRANCH  10  25
HETATM   25  O2  UNL     1      26.963   2.362  53.431  1.00  0.00    -0.353 OA
HETATM   26  C10 UNL     1      28.177   1.650  53.304  1.00  0.00     0.210 C 
ENDBRANCH  10  25
ENDBRANCH   8   9
ENDBRANCH   7   8
ENDBRANCH   6   7
ENDBRANCH   5   6
ENDBRANCH   4   5
ENDBRANCH   3   4
TORSDOF 7
ENDMDL
MODEL 4
REMARK VINA RESULT:      -6.9      3.207      6.516
REMARK  7 active torsions:
REMARK  status: ('A' for Active; 'I' for Inactive)
REMARK    1  A    between atoms: C3_3  and  C4_4 
REMARK    2  A    between atoms: C4_4  and  C5_5 
REMARK    3  A    between atoms: C5_5  and  C6_6 
REMARK    4  A    between atoms: C6_6  and  C7_7 
REMARK    5  A    between atoms: C7_7  and  O1_8 
REMARK    6  A    between atoms: O1_8  and  C8_9 
REMARK    7  A    between atoms: C9_10  and  O2_11 
ROOT
HETATM    1  C1  UNL     1      21.640   7.858  49.548  1.00  0.00     0.012 C 
HETATM    2  C2  UNL     1      22.674   7.582  50.114  1.00  0.00    -0.117 C 
HETATM    3  C3  UNL     1      23.938   7.255  50.781  1.00  0.00     0.093 C 
ENDROOT
BRANCH   3   4
HETATM    4  C4  UNL     1      23.942   5.794  51.251  1.00  0.00     0.012 C 
BRANCH   4   5
HETATM    5  C5  UNL     1      24.319   4.953  50.065  1.00  0.00     0.003 C 
BRANCH   5   6
HETATM    6  C6  UNL     1      23.121   4.235  49.467  1.00  0.00     0.027 C 
BRANCH   6   7
HETATM    7  C7  UNL     1      22.471   3.313  50.444  1.00  0.00     0.176 C 
BRANCH   7   8
HETATM    8  O1  UNL     1      23.088   2.049  50.443  1.00  0.00    -0.347 OA
BRANCH   8   9
HETATM    9  C8  UNL     1      23.020   1.243  51.563  1.00  0.00     0.113 A 
HETATM   10  C9  UNL     1      21.874   0.682  52.084  1.00  0.00     0.104 A 
HETATM   11  C11 UNL     1      21.839  -0.116  53.205  1.00  0.00     0.072 A 
HETATM   12  C12 UNL     1      23.056  -0.366  53.850  1.00  0.00     0.074 A 
HETATM   13  N1  UNL     1      22.902  -1.165  54.948  1.00  0.00    -0.241 NA
HETATM   14  C15 UNL     1      24.285   0.145  53.419  1.00  0.00     0.031 A 
HETATM   15  C13 UNL     1      23.968  -1.487  55.661  1.00  0.00     0.234 A 
HETATM   16  N2  UNL     1      25.129  -1.009  55.260  1.00  0.00    -0.245 NA
HETATM   17  C14 UNL     1      25.365  -0.221  54.199  1.00  0.00     0.052 A 
HETATM   18  C21 UNL     1      26.824  -0.046  54.303  1.00  0.00     0.087 C 
HETATM   19  C20 UNL     1      27.326   1.279  53.910  1.00  0.00    -0.018 C 
HETATM   20  C19 UNL     1      27.243   2.204  52.970  1.00  0.00     0.038 C 
HETATM   21  C18 UNL     1      26.428   2.172  51.751  1.00  0.00     0.117 C 
HETATM   22  C17 UNL     1      25.211   1.670  51.458  1.00  0.00     0.057 C 
HETATM   23  F1  UNL     1      27.061   2.786  50.696  1.00  0.00    -0.206 F 
HETATM   24  C16 UNL     1      24.195   0.944  52.267  1.00  0.00     0.018 A 
BRANCH  10  25
HETATM   25  O2  UNL     1      20.673   0.931  51.440  1.00  0.00    -0.353 OA
HETATM   26  C10 UNL     1      19.582   1.623  52.012  1.00  0.00     0.210 C 
ENDBRANCH  10  25
ENDBRANCH   8   9
ENDBRANCH   7   8
ENDBRANCH   6   7
ENDBRANCH   5   6
ENDBRANCH   4   5
ENDBRANCH   3   4
TORSDOF 7
ENDMDL
MODEL 5
REMARK VINA RESULT:      -6.5      2.211      3.413
REMARK  7 active torsions:
REMARK  status: ('A' for Active; 'I' for Inactive)
REMARK    1  A    between atoms: C3_3  and  C4_4 
REMARK    2  A    between atoms: C4_4  and  C5_5 
REMARK    3  A    between atoms: C5_5  and  C6_6 
REMARK    4  A    between atoms: C6_6  and  C7_7 
REMARK    5  A    between atoms: C7_7  and  O1_8 
REMARK    6  A    between atoms: O1_8  and  C8_9 
REMARK    7  A    between atoms: C9_10  and  O2_11 
ROOT
HETATM    1  C1  UNL     1      26.821  -1.596  52.560  1.00  0.00     0.012 C 
HETATM    2  C2  UNL     1      26.781  -0.446  52.180  1.00  0.00    -0.117 C 
HETATM    3  C3  UNL     1      26.753   0.944  51.714  1.00  0.00     0.093 C 
ENDROOT
BRANCH   3   4
HETATM    4  C4  UNL     1      26.338   1.889  52.848  1.00  0.00     0.012 C 
BRANCH   4   5
HETATM    5  C5  UNL     1      24.896   1.600  53.154  1.00  0.00     0.003 C 
BRANCH   5   6
HETATM    6  C6  UNL     1      24.004   2.805  52.904  1.00  0.00     0.027 C 
BRANCH   6   7
HETATM    7  C7  UNL     1      23.849   3.099  51.450  1.00  0.00     0.176 C 
BRANCH   7   8
HETATM    8  O1  UNL     1      23.257   2.018  50.770  1.00  0.00    -0.347 OA
BRANCH   8   9
HETATM    9  C8  UNL     1      21.979   2.136  50.259  1.00  0.00     0.113 A 
HETATM   10  C9  UNL     1      21.579   3.022  49.282  1.00  0.00     0.104 A 
HETATM   11  C11 UNL     1      20.295   3.116  48.796  1.00  0.00     0.072 A 
HETATM   12  C12 UNL     1      19.340   2.248  49.340  1.00  0.00     0.074 A 
HETATM   13  N1  UNL     1      18.104   2.431  48.786  1.00  0.00    -0.241 NA
HETATM   14  C15 UNL     1      19.621   1.306  50.334  1.00  0.00     0.031 A 
HETATM   15  C13 UNL     1      17.098   1.681  49.202  1.00  0.00     0.234 A 
HETATM   16  N2  UNL     1      17.357   0.791  50.139  1.00  0.00    -0.245 NA
HETATM   17  C14 UNL     1      18.536   0.550  50.734  1.00  0.00     0.052 A 
HETATM   18  C21 UNL     1      18.163  -0.530  51.662  1.00  0.00     0.087 C 
HETATM   19  C20 UNL     1      18.853  -0.507  52.960  1.00  0.00    -0.018 C 
HETATM   20  C19 UNL     1      20.042  -0.381  53.522  1.00  0.00     0.038 C 
HETATM   21  C18 UNL     1      21.332  -0.180  52.855  1.00  0.00     0.117 C 
HETATM   22  C17 UNL     1      21.712   0.489  51.746  1.00  0.00     0.057 C 
HETATM   23  F1  UNL     1      22.356  -0.820  53.513  1.00  0.00    -0.206 F 
HETATM   24  C16 UNL     1      20.963   1.303  50.751  1.00  0.00     0.018 A 
BRANCH  10  25
HETATM   25  O2  UNL     1      22.529   3.876  48.746  1.00  0.00    -0.353 OA
HETATM   26  C10 UNL     1      22.273   4.835  47.740  1.00  0.00     0.210 C 
ENDBRANCH  10  25
ENDBRANCH   8   9
ENDBRANCH   7   8
ENDBRANCH   6   7
ENDBRANCH   5   6
ENDBRANCH   4   5
ENDBRANCH   3   4
TORSDOF 7
ENDMDL
MODEL 6
REMARK VINA RESULT:      -6.4      3.059      7.086
REMARK  7 active torsions:
REMARK  status: ('A' for Active; 'I' for Inactive)
REMARK    1  A    between atoms: C3_3  and  C4_4 
REMARK    2  A    between atoms: C4_4  and  C5_5 
REMARK    3  A    between atoms: C5_5  and  C6_6 
REMARK    4  A    between atoms: C6_6  and  C7_7 
REMARK    5  A    between atoms: C7_7  and  O1_8 
REMARK    6  A    between atoms: O1_8  and  C8_9 
REMARK    7  A    between atoms: C9_10  and  O2_11 
ROOT
HETATM    1  C1  UNL     1      15.208  -2.045  48.609  1.00  0.00     0.012 C 
HETATM    2  C2  UNL     1      15.641  -1.264  49.428  1.00  0.00    -0.117 C 
HETATM    3  C3  UNL     1      16.147  -0.305  50.414  1.00  0.00     0.093 C 
ENDROOT
BRANCH   3   4
HETATM    4  C4  UNL     1      17.598   0.082  50.100  1.00  0.00     0.012 C 
BRANCH   4   5
HETATM    5  C5  UNL     1      18.117   0.841  51.288  1.00  0.00     0.003 C 
BRANCH   5   6
HETATM    6  C6  UNL     1      19.110   0.027  52.100  1.00  0.00     0.027 C 
BRANCH   6   7
HETATM    7  C7  UNL     1      20.492   0.104  51.543  1.00  0.00     0.176 C 
BRANCH   7   8
HETATM    8  O1  UNL     1      21.251   1.094  52.193  1.00  0.00    -0.347 OA
BRANCH   8   9
HETATM    9  C8  UNL     1      22.225   1.788  51.502  1.00  0.00     0.113 A 
HETATM   10  C9  UNL     1      22.004   2.684  50.479  1.00  0.00     0.104 A 
HETATM   11  C11 UNL     1      22.998   3.358  49.807  1.00  0.00     0.072 A 
HETATM   12  C12 UNL     1      24.319   3.107  50.199  1.00  0.00     0.074 A 
HETATM   13  N1  UNL     1      25.219   3.827  49.466  1.00  0.00    -0.241 NA
HETATM   14  C15 UNL     1      24.672   2.221  51.222  1.00  0.00     0.031 A 
HETATM   15  C13 UNL     1      26.509   3.692  49.723  1.00  0.00     0.234 A 
HETATM   16  N2  UNL     1      26.848   2.858  50.686  1.00  0.00    -0.245 NA
HETATM   17  C14 UNL     1      26.030   2.116  51.450  1.00  0.00     0.052 A 
HETATM   18  C21 UNL     1      27.006   1.422  52.307  1.00  0.00     0.087 C 
HETATM   19  C20 UNL     1      26.658   0.037  52.658  1.00  0.00    -0.018 C 
HETATM   20  C19 UNL     1      25.672  -0.726  53.095  1.00  0.00     0.038 C 
HETATM   21  C18 UNL     1      24.306  -0.316  53.441  1.00  0.00     0.117 C 
HETATM   22  C17 UNL     1      23.460   0.611  52.945  1.00  0.00     0.057 C 
HETATM   23  F1  UNL     1      23.807  -1.038  54.499  1.00  0.00    -0.206 F 
HETATM   24  C16 UNL     1      23.574   1.593  51.834  1.00  0.00     0.018 A 
BRANCH  10  25
HETATM   25  O2  UNL     1      20.696   2.931  50.097  1.00  0.00    -0.353 OA
HETATM   26  C10 UNL     1      20.312   3.814  49.063  1.00  0.00     0.210 C 
ENDBRANCH  10  25
ENDBRANCH   8   9
ENDBRANCH   7   8
ENDBRANCH   6   7
ENDBRANCH   5   6
ENDBRANCH   4   5
ENDBRANCH   3   4
TORSDOF 7
ENDMDL
MODEL 7
REMARK VINA RESULT:      -6.3      3.743      6.726
REMARK  7 active torsions:
REMARK  status: ('A' for Active; 'I' for Inactive)
REMARK    1  A    between atoms: C3_3  and  C4_4 
REMARK    2  A    between atoms: C4_4  and  C5_5 
REMARK    3  A    between atoms: C5_5  and  C6_6 
REMARK    4  A    between atoms: C6_6  and  C7_7 
REMARK    5  A    between atoms: C7_7  and  O1_8 
REMARK    6  A    between atoms: O1_8  and  C8_9 
REMARK    7  A    between atoms: C9_10  and  O2_11 
ROOT
HETATM    1  C1  UNL     1      22.094  10.774  48.241  1.00  0.00     0.012 C 
HETATM    2  C2  UNL     1      22.021   9.578  48.426  1.00  0.00    -0.117 C 
HETATM    3  C3  UNL     1      21.911   8.133  48.643  1.00  0.00     0.093 C 
ENDROOT
BRANCH   3   4
HETATM    4  C4  UNL     1      22.379   7.759  50.056  1.00  0.00     0.012 C 
BRANCH   4   5
HETATM    5  C5  UNL     1      21.338   6.844  50.635  1.00  0.00     0.003 C 
BRANCH   5   6
HETATM    6  C6  UNL     1      21.942   5.795  51.552  1.00  0.00     0.027 C 
BRANCH   6   7
HETATM    7  C7  UNL     1      23.254   5.294  51.048  1.00  0.00     0.176 C 
BRANCH   7   8
HETATM    8  O1  UNL     1      23.183   3.931  50.703  1.00  0.00    -0.347 OA
BRANCH   8   9
HETATM    9  C8  UNL     1      24.199   3.069  51.067  1.00  0.00     0.113 A 
HETATM   10  C9  UNL     1      25.507   3.140  50.640  1.00  0.00     0.104 A 
HETATM   11  C11 UNL     1      26.497   2.262  51.020  1.00  0.00     0.072 A 
HETATM   12  C12 UNL     1      26.137   1.233  51.898  1.00  0.00     0.074 A 
HETATM   13  N1  UNL     1      27.195   0.425  52.205  1.00  0.00    -0.241 NA
HETATM   14  C15 UNL     1      24.844   1.056  52.402  1.00  0.00     0.031 A 
HETATM   15  C13 UNL     1      27.006  -0.595  53.025  1.00  0.00     0.234 A 
HETATM   16  N2  UNL     1      25.790  -0.767  53.503  1.00  0.00    -0.245 NA
HETATM   17  C14 UNL     1      24.701  -0.022  53.253  1.00  0.00     0.052 A 
HETATM   18  C21 UNL     1      23.694  -0.723  54.067  1.00  0.00     0.087 C 
HETATM   19  C20 UNL     1      22.343  -0.771  53.488  1.00  0.00    -0.018 C 
HETATM   20  C19 UNL     1      21.416  -0.030  52.907  1.00  0.00     0.038 C 
HETATM   21  C18 UNL     1      21.478   1.402  52.595  1.00  0.00     0.117 C 
HETATM   22  C17 UNL     1      22.474   2.228  52.211  1.00  0.00     0.057 C 
HETATM   23  F1  UNL     1      20.253   2.010  52.733  1.00  0.00    -0.206 F 
HETATM   24  C16 UNL     1      23.921   2.011  51.944  1.00  0.00     0.018 A 
BRANCH  10  25
HETATM   25  O2  UNL     1      25.858   4.161  49.773  1.00  0.00    -0.353 OA
HETATM   26  C10 UNL     1      27.106   4.269  49.118  1.00  0.00     0.210 C 
ENDBRANCH  10  25
ENDBRANCH   8   9
ENDBRANCH   7   8
ENDBRANCH   6   7
ENDBRANCH   5   6
ENDBRANCH   4   5
ENDBRANCH   3   4
TORSDOF 7
ENDMDL
MODEL 8
REMARK VINA RESULT:      -6.3      3.037      5.843
REMARK  7 active torsions:
REMARK  status: ('A' for Active; 'I' for Inactive)
REMARK    1  A    between atoms: C3_3  and  C4_4 
REMARK    2  A    between atoms: C4_4  and  C5_5 
REMARK    3  A    between atoms: C5_5  and  C6_6 
REMARK    4  A    between atoms: C6_6  and  C7_7 
REMARK    5  A    between atoms: C7_7  and  O1_8 
REMARK    6  A    between atoms: O1_8  and  C8_9 
REMARK    7  A    between atoms: C9_10  and  O2_11 
ROOT
HETATM    1  C1  UNL     1      21.642   7.835  49.480  1.00  0.00     0.012 C 
HETATM    2  C2  UNL     1      22.755   7.871  49.957  1.00  0.00    -0.117 C 
HETATM    3  C3  UNL     1      24.109   7.927  50.517  1.00  0.00     0.093 C 
ENDROOT
BRANCH   3   4
HETATM    4  C4  UNL     1      24.636   6.515  50.806  1.00  0.00     0.012 C 
BRANCH   4   5
HETATM    5  C5  UNL     1      25.109   5.947  49.498  1.00  0.00     0.003 C 
BRANCH   5   6
HETATM    6  C6  UNL     1      24.738   4.482  49.341  1.00  0.00     0.027 C 
BRANCH   6   7
HETATM    7  C7  UNL     1      25.586   3.592  50.187  1.00  0.00     0.176 C 
BRANCH   7   8
HETATM    8  O1  UNL     1      25.153   3.597  51.526  1.00  0.00    -0.347 OA
BRANCH   8   9
HETATM    9  C8  UNL     1      24.786   2.415  52.141  1.00  0.00     0.113 A 
HETATM   10  C9  UNL     1      25.635   1.381  52.471  1.00  0.00     0.104 A 
HETATM   11  C11 UNL     1      25.237   0.214  53.082  1.00  0.00     0.072 A 
HETATM   12  C12 UNL     1      23.876   0.081  53.382  1.00  0.00     0.074 A 
HETATM   13  N1  UNL     1      23.596  -1.114  53.983  1.00  0.00    -0.241 NA
HETATM   14  C15 UNL     1      22.917   1.058  53.098  1.00  0.00     0.031 A 
HETATM   15  C13 UNL     1      22.347  -1.383  54.324  1.00  0.00     0.234 A 
HETATM   16  N2  UNL     1      21.439  -0.465  54.059  1.00  0.00    -0.245 NA
HETATM   17  C14 UNL     1      21.629   0.728  53.474  1.00  0.00     0.052 A 
HETATM   18  C21 UNL     1      20.255   1.257  53.469  1.00  0.00     0.087 C 
HETATM   19  C20 UNL     1      19.897   2.060  52.290  1.00  0.00    -0.018 C 
HETATM   20  C19 UNL     1      20.320   3.041  51.513  1.00  0.00     0.038 C 
HETATM   21  C18 UNL     1      21.571   3.798  51.625  1.00  0.00     0.117 C 
HETATM   22  C17 UNL     1      22.823   3.475  52.010  1.00  0.00     0.057 C 
HETATM   23  F1  UNL     1      21.408   5.114  51.259  1.00  0.00    -0.206 F 
HETATM   24  C16 UNL     1      23.441   2.204  52.475  1.00  0.00     0.018 A 
BRANCH  10  25
HETATM   25  O2  UNL     1      26.980   1.519  52.174  1.00  0.00    -0.353 OA
HETATM   26  C10 UNL     1      27.932   2.137  53.017  1.00  0.00     0.210 C 
ENDBRANCH  10  25
ENDBRANCH   8   9
ENDBRANCH   7   8
ENDBRANCH   6   7
ENDBRANCH   5   6
ENDBRANCH   4   5
ENDBRANCH   3   4
TORSDOF 7
ENDMDL
MODEL 9
REMARK VINA RESULT:      -6.2      2.776      5.306
REMARK  7 active torsions:
REMARK  status: ('A' for Active; 'I' for Inactive)
REMARK    1  A    between atoms: C3_3  and  C4_4 
REMARK    2  A    between atoms: C4_4  and  C5_5 
REMARK    3  A    between atoms: C5_5  and  C6_6 
REMARK    4  A    between atoms: C6_6  and  C7_7 
REMARK    5  A    between atoms: C7_7  and  O1_8 
REMARK    6  A    between atoms: O1_8  and  C8_9 
REMARK    7  A    between atoms: C9_10  and  O2_11 
ROOT
HETATM    1  C1  UNL     1      29.844   5.998  47.924  1.00  0.00     0.012 C 
HETATM    2  C2  UNL     1      28.691   5.895  48.281  1.00  0.00    -0.117 C 
HETATM    3  C3  UNL     1      27.298   5.787  48.727  1.00  0.00     0.093 C 
ENDROOT
BRANCH   3   4
HETATM    4  C4  UNL     1      26.994   4.367  49.219  1.00  0.00     0.012 C 
BRANCH   4   5
HETATM    5  C5  UNL     1      25.659   4.417  49.905  1.00  0.00     0.003 C 
BRANCH   5   6
HETATM    6  C6  UNL     1      24.533   3.936  49.005  1.00  0.00     0.027 C 
BRANCH   6   7
HETATM    7  C7  UNL     1      23.484   3.194  49.763  1.00  0.00     0.176 C 
BRANCH   7   8
HETATM    8  O1  UNL     1      23.684   3.301  51.152  1.00  0.00    -0.347 OA
BRANCH   8   9
HETATM    9  C8  UNL     1      23.510   2.199  51.965  1.00  0.00     0.113 A 
HETATM   10  C9  UNL     1      24.493   1.579  52.705  1.00  0.00     0.104 A 
HETATM   11  C11 UNL     1      24.288   0.478  53.505  1.00  0.00     0.072 A 
HETATM   12  C12 UNL     1      22.987  -0.037  53.562  1.00  0.00     0.074 A 
HETATM   13  N1  UNL     1      22.900  -1.126  54.383  1.00  0.00    -0.241 NA
HETATM   14  C15 UNL     1      21.905   0.503  52.860  1.00  0.00     0.031 A 
HETATM   15  C13 UNL     1      21.730  -1.722  54.536  1.00  0.00     0.234 A 
HETATM   16  N2  UNL     1      20.706  -1.218  53.876  1.00  0.00    -0.245 NA
HETATM   17  C14 UNL     1      20.706  -0.156  53.054  1.00  0.00     0.052 A 
HETATM   18  C21 UNL     1      19.291  -0.118  52.650  1.00  0.00     0.087 C 
HETATM   19  C20 UNL     1      19.046   0.293  51.260  1.00  0.00    -0.018 C 
HETATM   20  C19 UNL     1      19.370   1.199  50.354  1.00  0.00     0.038 C 
HETATM   21  C18 UNL     1      20.289   2.331  50.507  1.00  0.00     0.117 C 
HETATM   22  C17 UNL     1      21.436   2.512  51.195  1.00  0.00     0.057 C 
HETATM   23  F1  UNL     1      19.872   3.430  49.794  1.00  0.00    -0.206 F 
HETATM   24  C16 UNL     1      22.236   1.622  52.078  1.00  0.00     0.018 A 
BRANCH  10  25
HETATM   25  O2  UNL     1      25.778   2.094  52.646  1.00  0.00    -0.353 OA
HETATM   26  C10 UNL     1      26.808   1.796  53.567  1.00  0.00     0.210 C 
ENDBRANCH  10  25
ENDBRANCH   8   9
ENDBRANCH   7   8
ENDBRANCH   6   7
ENDBRANCH   5   6
ENDBRANCH   4   5
ENDBRANCH   3   4
TORSDOF 7
ENDMDL
