MODEL 1
REMARK VINA RESULT:      -8.6      0.000      0.000
REMARK  5 active torsions:
REMARK  status: ('A' for Active; 'I' for Inactive)
REMARK    1  A    between atoms: C2_2  and  C3_3 
REMARK       I    between atoms: C3_3  and  N1_5 
REMARK    2  A    between atoms: N1_5  and  C4_6 
REMARK    3  A    between atoms: C6_8  and  N2_9 
REMARK    4  A    between atoms: N2_9  and  C7_10 
REMARK    5  A    between atoms: C18_23  and  O2_24 
ROOT
HETATM    1  C4  UNL     1      25.886   1.071  52.334  1.00  0.00     0.063 C 
HETATM    2  C5  UNL     1      26.019   2.184  51.607  1.00  0.00     0.030 C 
HETATM    3  C6  UNL     1      25.094   2.865  50.712  1.00  0.00     0.110 C 
HETATM    4  C13 UNL     1      23.717   2.245  50.626  1.00  0.00     0.057 C 
HETATM    5  C14 UNL     1      22.935   2.282  51.848  1.00  0.00    -0.014 C 
HETATM    6  C15 UNL     1      22.359   1.424  52.725  1.00  0.00     0.045 C 
HETATM    7  N3  UNL     1      21.936   0.238  53.338  1.00  0.00    -0.319 NA
HETATM    8  C16 UNL     1      22.947  -0.602  53.590  1.00  0.00     0.203 C 
HETATM    9  C17 UNL     1      24.065   0.141  53.052  1.00  0.00     0.122 C 
HETATM   10  C18 UNL     1      25.401  -0.069  53.080  1.00  0.00     0.079 C 
ENDROOT
BRANCH   3  11
HETATM   11  N2  UNL     1      24.944   4.273  50.892  1.00  0.00    -0.382 N 
HETATM   12  H7  UNL     1      24.320   4.750  51.571  1.00  0.00     0.160 HD
BRANCH  11  13
HETATM   13  C7  UNL     1      25.724   5.163  50.094  1.00  0.00     0.029 A 
HETATM   14  C8  UNL     1      26.688   4.684  49.211  1.00  0.00     0.029 A 
HETATM   15  C9  UNL     1      27.393   5.593  48.425  1.00  0.00     0.004 A 
HETATM   16  C10 UNL     1      27.206   6.950  48.456  1.00  0.00     0.019 A 
HETATM   17  C11 UNL     1      26.245   7.461  49.332  1.00  0.00     0.013 A 
HETATM   18 BR1  UNL     1      25.896   9.343  49.471  1.00  0.00    -0.051 Br
HETATM   19  C12 UNL     1      25.543   6.553  50.112  1.00  0.00     0.048 A 
ENDBRANCH  11  13
ENDBRANCH   3  11
BRANCH   1  20
HETATM   20  N1  UNL     1      27.204   1.057  52.913  1.00  0.00    -0.322 N 
HETATM   21  C3  UNL     1      28.451   1.098  53.483  1.00  0.00     0.244 C 
HETATM   22  O1  UNL     1      28.686   2.250  54.022  1.00  0.00    -0.268 OA
HETATM   23  H4  UNL     1      27.357  -0.019  52.696  1.00  0.00     0.169 HD
BRANCH  21  24
HETATM   24  C2  UNL     1      29.605   0.376  53.714  1.00  0.00     0.064 C 
HETATM   25  C1  UNL     1      30.122  -0.885  53.678  1.00  0.00     0.017 C 
ENDBRANCH  21  24
ENDBRANCH   1  20
BRANCH  10  26
HETATM   26  O2  UNL     1      26.247  -1.070  53.628  1.00  0.00    -0.357 OA
HETATM   27  C19 UNL     1      26.706  -2.073  52.752  1.00  0.00     0.209 C 
ENDBRANCH  10  26
TORSDOF 5
ENDMDL
MODEL 2
REMARK VINA RESULT:      -8.5      1.861      2.267
REMARK  5 active torsions:
REMARK  status: ('A' for Active; 'I' for Inactive)
REMARK    1  A    between atoms: C2_2  and  C3_3 
REMARK       I    between atoms: C3_3  and  N1_5 
REMARK    2  A    between atoms: N1_5  and  C4_6 
REMARK    3  A    between atoms: C6_8  and  N2_9 
REMARK    4  A    between atoms: N2_9  and  C7_10 
REMARK    5  A    between atoms: C18_23  and  O2_24 
ROOT
HETATM    1  C4  UNL     1      26.128   1.852  51.614  1.00  0.00     0.063 C 
HETATM    2  C5  UNL     1      26.623   2.863  50.896  1.00  0.00     0.030 C 
HETATM    3  C6  UNL     1      26.056   3.629  49.794  1.00  0.00     0.110 C 
HETATM    4  C13 UNL     1      24.635   3.261  49.427  1.00  0.00     0.057 C 
HETATM    5  C14 UNL     1      23.634   3.531  50.444  1.00  0.00    -0.014 C 
HETATM    6  C15 UNL     1      22.733   2.860  51.201  1.00  0.00     0.045 C 
HETATM    7  N3  UNL     1      21.971   1.820  51.747  1.00  0.00    -0.319 NA
HETATM    8  C16 UNL     1      22.726   0.834  52.247  1.00  0.00     0.203 C 
HETATM    9  C17 UNL     1      24.053   1.321  51.944  1.00  0.00     0.122 C 
HETATM   10  C18 UNL     1      25.288   0.878  52.274  1.00  0.00     0.079 C 
ENDROOT
BRANCH   3  11
HETATM   11  N2  UNL     1      26.144   5.051  49.886  1.00  0.00    -0.382 N 
HETATM   12  H7  UNL     1      25.664   5.660  50.577  1.00  0.00     0.160 HD
BRANCH  11  13
HETATM   13  C7  UNL     1      26.980   5.757  48.970  1.00  0.00     0.029 A 
HETATM   14  C8  UNL     1      26.526   6.892  48.305  1.00  0.00     0.029 A 
HETATM   15  C9  UNL     1      27.396   7.568  47.454  1.00  0.00     0.004 A 
HETATM   16  C10 UNL     1      28.692   7.192  47.215  1.00  0.00     0.019 A 
HETATM   17  C11 UNL     1      29.177   6.057  47.868  1.00  0.00     0.013 A 
HETATM   18 BR1  UNL     1      30.972   5.425  47.612  1.00  0.00    -0.051 Br
HETATM   19  C12 UNL     1      28.309   5.387  48.718  1.00  0.00     0.048 A 
ENDBRANCH  11  13
ENDBRANCH   3  11
BRANCH   1  20
HETATM   20  N1  UNL     1      27.267   1.646  52.471  1.00  0.00    -0.322 N 
HETATM   21  C3  UNL     1      28.339   1.500  53.314  1.00  0.00     0.244 C 
HETATM   22  O1  UNL     1      28.439   2.500  54.128  1.00  0.00    -0.268 OA
HETATM   23  H4  UNL     1      27.465   0.631  52.070  1.00  0.00     0.169 HD
BRANCH  21  24
HETATM   24  C2  UNL     1      29.401   0.684  53.651  1.00  0.00     0.064 C 
HETATM   25  C1  UNL     1      29.761  -0.623  53.798  1.00  0.00     0.017 C 
ENDBRANCH  21  24
ENDBRANCH   1  20
BRANCH  10  26
HETATM   26  O2  UNL     1      25.791  -0.214  53.032  1.00  0.00    -0.357 OA
HETATM   27  C19 UNL     1      25.217  -0.434  54.299  1.00  0.00     0.209 C 
ENDBRANCH  10  26
TORSDOF 5
ENDMDL
MODEL 3
REMARK VINA RESULT:      -8.0      2.487      4.944
REMARK  5 active torsions:
REMARK  status: ('A' for Active; 'I' for Inactive)
REMARK    1  A    between atoms: C2_2  and  C3_3 
REMARK       I    between atoms: C3_3  and  N1_5 
REMARK    2  A    between atoms: N1_5  and  C4_6 
REMARK    3  A    between atoms: C6_8  and  N2_9 
REMARK    4  A    between atoms: N2_9  and  C7_10 
REMARK    5  A    between atoms: C18_23  and  O2_24 
ROOT
HETATM    1  C4  UNL     1      23.274   1.222  52.363  1.00  0.00     0.063 C 
HETATM    2  C5  UNL     1      23.603   2.128  51.439  1.00  0.00     0.030 C 
HETATM    3  C6  UNL     1      24.835   2.873  51.216  1.00  0.00     0.110 C 
HETATM    4  C13 UNL     1      25.968   2.526  52.157  1.00  0.00     0.057 C 
HETATM    5  C14 UNL     1      26.485   1.173  52.045  1.00  0.00    -0.014 C 
HETATM    6  C15 UNL     1      26.616   0.059  52.804  1.00  0.00     0.045 C 
HETATM    7  N3  UNL     1      26.560  -0.819  53.893  1.00  0.00    -0.319 NA
HETATM    8  C16 UNL     1      25.322  -0.953  54.385  1.00  0.00     0.203 C 
HETATM    9  C17 UNL     1      24.585  -0.051  53.529  1.00  0.00     0.122 C 
HETATM   10  C18 UNL     1      23.264   0.209  53.395  1.00  0.00     0.079 C 
ENDROOT
BRANCH   3  11
HETATM   11  N2  UNL     1      25.345   2.890  49.883  1.00  0.00    -0.382 N 
HETATM   12  H7  UNL     1      25.398   2.086  49.228  1.00  0.00     0.160 HD
BRANCH  11  13
HETATM   13  C7  UNL     1      25.827   4.118  49.339  1.00  0.00     0.029 A 
HETATM   14  C8  UNL     1      24.973   5.198  49.127  1.00  0.00     0.029 A 
HETATM   15  C9  UNL     1      25.501   6.388  48.633  1.00  0.00     0.004 A 
HETATM   16  C10 UNL     1      26.825   6.581  48.332  1.00  0.00     0.019 A 
HETATM   17  C11 UNL     1      27.706   5.516  48.535  1.00  0.00     0.013 A 
HETATM   18 BR1  UNL     1      29.580   5.661  48.146  1.00  0.00    -0.051 Br
HETATM   19  C12 UNL     1      27.177   4.332  49.030  1.00  0.00     0.048 A 
ENDBRANCH  11  13
ENDBRANCH   3  11
BRANCH   1  20
HETATM   20  N1  UNL     1      21.923   0.981  51.928  1.00  0.00    -0.322 N 
HETATM   21  C3  UNL     1      20.655   0.752  51.459  1.00  0.00     0.244 C 
HETATM   22  O1  UNL     1      20.630   0.709  50.167  1.00  0.00    -0.268 OA
HETATM   23  H4  UNL     1      21.548   0.842  52.962  1.00  0.00     0.169 HD
BRANCH  21  24
HETATM   24  C2  UNL     1      19.339   0.548  51.828  1.00  0.00     0.064 C 
HETATM   25  C1  UNL     1      18.483  -0.393  52.318  1.00  0.00     0.017 C 
ENDBRANCH  21  24
ENDBRANCH   1  20
BRANCH  10  26
HETATM   26  O2  UNL     1      22.081  -0.274  54.015  1.00  0.00    -0.357 OA
HETATM   27  C19 UNL     1      21.946  -1.671  54.141  1.00  0.00     0.209 C 
ENDBRANCH  10  26
TORSDOF 5
ENDMDL
MODEL 4
REMARK VINA RESULT:      -7.9      3.264      6.442
REMARK  5 active torsions:
REMARK  status: ('A' for Active; 'I' for Inactive)
REMARK    1  A    between atoms: C2_2  and  C3_3 
REMARK       I    between atoms: C3_3  and  N1_5 
REMARK    2  A    between atoms: N1_5  and  C4_6 
REMARK    3  A    between atoms: C6_8  and  N2_9 
REMARK    4  A    between atoms: N2_9  and  C7_10 
REMARK    5  A    between atoms: C18_23  and  O2_24 
ROOT
HETATM    1  C4  UNL     1      25.600   1.479  52.060  1.00  0.00     0.063 C 
HETATM    2  C5  UNL     1      24.369   0.983  52.209  1.00  0.00     0.030 C 
HETATM    3  C6  UNL     1      23.060   1.558  51.933  1.00  0.00     0.110 C 
HETATM    4  C13 UNL     1      23.088   2.939  51.315  1.00  0.00     0.057 C 
HETATM    5  C14 UNL     1      23.667   3.019  49.986  1.00  0.00    -0.014 C 
HETATM    6  C15 UNL     1      24.704   3.621  49.353  1.00  0.00     0.045 C 
HETATM    7  N3  UNL     1      25.837   4.408  49.116  1.00  0.00    -0.319 NA
HETATM    8  C16 UNL     1      26.857   4.104  49.928  1.00  0.00     0.203 C 
HETATM    9  C17 UNL     1      26.264   3.064  50.739  1.00  0.00     0.122 C 
HETATM   10  C18 UNL     1      26.773   2.233  51.677  1.00  0.00     0.079 C 
ENDROOT
BRANCH   3  11
HETATM   11  N2  UNL     1      22.145   0.751  51.192  1.00  0.00    -0.382 N 
HETATM   12  H7  UNL     1      22.215   0.495  50.188  1.00  0.00     0.160 HD
BRANCH  11  13
HETATM   13  C7  UNL     1      21.011   0.196  51.857  1.00  0.00     0.029 A 
HETATM   14  C8  UNL     1      21.132  -0.418  53.101  1.00  0.00     0.029 A 
HETATM   15  C9  UNL     1      19.987  -0.905  53.727  1.00  0.00     0.004 A 
HETATM   16  C10 UNL     1      18.725  -0.827  53.199  1.00  0.00     0.019 A 
HETATM   17  C11 UNL     1      18.571  -0.216  51.952  1.00  0.00     0.013 A 
HETATM   18 BR1  UNL     1      16.856  -0.052  51.106  1.00  0.00    -0.051 Br
HETATM   19  C12 UNL     1      19.713   0.271  51.332  1.00  0.00     0.048 A 
ENDBRANCH  11  13
ENDBRANCH   3  11
BRANCH   1  20
HETATM   20  N1  UNL     1      26.331   0.340  52.552  1.00  0.00    -0.322 N 
HETATM   21  C3  UNL     1      26.978  -0.763  53.049  1.00  0.00     0.244 C 
HETATM   22  O1  UNL     1      26.196  -1.474  53.793  1.00  0.00    -0.268 OA
HETATM   23  H4  UNL     1      27.230   0.576  51.949  1.00  0.00     0.169 HD
BRANCH  21  24
HETATM   24  C2  UNL     1      28.181  -1.440  53.080  1.00  0.00     0.064 C 
HETATM   25  C1  UNL     1      29.495  -1.304  53.418  1.00  0.00     0.017 C 
ENDBRANCH  21  24
ENDBRANCH   1  20
BRANCH  10  26
HETATM   26  O2  UNL     1      28.060   2.034  52.247  1.00  0.00    -0.357 OA
HETATM   27  C19 UNL     1      28.303   2.625  53.503  1.00  0.00     0.209 C 
ENDBRANCH  10  26
TORSDOF 5
ENDMDL
MODEL 5
REMARK VINA RESULT:      -7.9      2.292      2.676
REMARK  5 active torsions:
REMARK  status: ('A' for Active; 'I' for Inactive)
REMARK    1  A    between atoms: C2_2  and  C3_3 
REMARK       I    between atoms: C3_3  and  N1_5 
REMARK    2  A    between atoms: N1_5  and  C4_6 
REMARK    3  A    between atoms: C6_8  and  N2_9 
REMARK    4  A    between atoms: N2_9  and  C7_10 
REMARK    5  A    between atoms: C18_23  and  O2_24 
ROOT
HETATM    1  C4  UNL     1      24.645   0.729  52.600  1.00  0.00     0.063 C 
HETATM    2  C5  UNL     1      24.071   1.543  51.711  1.00  0.00     0.030 C 
HETATM    3  C6  UNL     1      22.735   1.546  51.130  1.00  0.00     0.110 C 
HETATM    4  C13 UNL     1      21.807   0.477  51.663  1.00  0.00     0.057 C 
HETATM    5  C14 UNL     1      21.455   0.594  53.067  1.00  0.00    -0.014 C 
HETATM    6  C15 UNL     1      21.580  -0.110  54.218  1.00  0.00     0.045 C 
HETATM    7  N3  UNL     1      21.907  -1.127  55.122  1.00  0.00    -0.319 NA
HETATM    8  C16 UNL     1      23.211  -1.431  55.108  1.00  0.00     0.203 C 
HETATM    9  C17 UNL     1      23.693  -0.534  54.082  1.00  0.00     0.122 C 
HETATM   10  C18 UNL     1      24.936  -0.230  53.642  1.00  0.00     0.079 C 
ENDROOT
BRANCH   3  11
HETATM   11  N2  UNL     1      22.036   2.791  51.129  1.00  0.00    -0.382 N 
HETATM   12  H7  UNL     1      21.228   3.050  51.728  1.00  0.00     0.160 HD
BRANCH  11  13
HETATM   13  C7  UNL     1      22.465   3.828  50.248  1.00  0.00     0.029 A 
HETATM   14  C8  UNL     1      22.458   3.651  48.867  1.00  0.00     0.029 A 
HETATM   15  C9  UNL     1      22.846   4.710  48.049  1.00  0.00     0.004 A 
HETATM   16  C10 UNL     1      23.244   5.937  48.511  1.00  0.00     0.019 A 
HETATM   17  C11 UNL     1      23.261   6.146  49.891  1.00  0.00     0.013 A 
HETATM   18 BR1  UNL     1      23.805   7.819  50.660  1.00  0.00    -0.051 Br
HETATM   19  C12 UNL     1      22.871   5.090  50.704  1.00  0.00     0.048 A 
ENDBRANCH  11  13
ENDBRANCH   3  11
BRANCH   1  20
HETATM   20  N1  UNL     1      25.937   1.363  52.640  1.00  0.00    -0.322 N 
HETATM   21  C3  UNL     1      27.157   1.990  52.626  1.00  0.00     0.244 C 
HETATM   22  O1  UNL     1      27.334   2.655  51.532  1.00  0.00    -0.268 OA
HETATM   23  H4  UNL     1      26.132   1.043  53.684  1.00  0.00     0.169 HD
BRANCH  21  24
HETATM   24  C2  UNL     1      28.322   2.197  53.338  1.00  0.00     0.064 C 
HETATM   25  C1  UNL     1      29.156   1.617  54.248  1.00  0.00     0.017 C 
ENDBRANCH  21  24
ENDBRANCH   1  20
BRANCH  10  26
HETATM   26  O2  UNL     1      26.250  -0.649  53.986  1.00  0.00    -0.357 OA
HETATM   27  C19 UNL     1      26.850  -1.620  53.161  1.00  0.00     0.209 C 
ENDBRANCH  10  26
TORSDOF 5
ENDMDL
MODEL 6
REMARK VINA RESULT:      -7.7      2.763      4.378
REMARK  5 active torsions:
REMARK  status: ('A' for Active; 'I' for Inactive)
REMARK    1  A    between atoms: C2_2  and  C3_3 
REMARK       I    between atoms: C3_3  and  N1_5 
REMARK    2  A    between atoms: N1_5  and  C4_6 
REMARK    3  A    between atoms: C6_8  and  N2_9 
REMARK    4  A    between atoms: N2_9  and  C7_10 
REMARK    5  A    between atoms: C18_23  and  O2_24 
ROOT
HETATM    1  C4  UNL     1      25.327   3.762  50.632  1.00  0.00     0.063 C 
HETATM    2  C5  UNL     1      26.308   4.367  49.958  1.00  0.00     0.030 C 
HETATM    3  C6  UNL     1      26.283   5.459  48.994  1.00  0.00     0.110 C 
HETATM    4  C13 UNL     1      24.915   6.058  48.746  1.00  0.00     0.057 C 
HETATM    5  C14 UNL     1      24.310   6.730  49.881  1.00  0.00    -0.014 C 
HETATM    6  C15 UNL     1      23.210   6.631  50.666  1.00  0.00     0.045 C 
HETATM    7  N3  UNL     1      21.993   6.184  51.194  1.00  0.00    -0.319 NA
HETATM    8  C16 UNL     1      22.018   4.887  51.523  1.00  0.00     0.203 C 
HETATM    9  C17 UNL     1      23.361   4.527  51.128  1.00  0.00     0.122 C 
HETATM   10  C18 UNL     1      24.090   3.399  51.287  1.00  0.00     0.079 C 
ENDROOT
BRANCH   3  11
HETATM   11  N2  UNL     1      27.211   6.524  49.201  1.00  0.00    -0.382 N 
HETATM   12  H7  UNL     1      27.183   7.232  49.960  1.00  0.00     0.160 HD
BRANCH  11  13
HETATM   13  C7  UNL     1      28.320   6.661  48.315  1.00  0.00     0.029 A 
HETATM   14  C8  UNL     1      28.365   7.680  47.367  1.00  0.00     0.029 A 
HETATM   15  C9  UNL     1      29.490   7.796  46.554  1.00  0.00     0.004 A 
HETATM   16  C10 UNL     1      30.578   6.965  46.617  1.00  0.00     0.019 A 
HETATM   17  C11 UNL     1      30.564   5.934  47.559  1.00  0.00     0.013 A 
HETATM   18 BR1  UNL     1      32.024   4.702  47.741  1.00  0.00    -0.051 Br
HETATM   19  C12 UNL     1      29.442   5.822  48.370  1.00  0.00     0.048 A 
ENDBRANCH  11  13
ENDBRANCH   3  11
BRANCH   1  20
HETATM   20  N1  UNL     1      26.138   2.809  51.344  1.00  0.00    -0.322 N 
HETATM   21  C3  UNL     1      26.951   1.943  52.031  1.00  0.00     0.244 C 
HETATM   22  O1  UNL     1      28.039   2.524  52.418  1.00  0.00    -0.268 OA
HETATM   23  H4  UNL     1      25.360   2.020  51.303  1.00  0.00     0.169 HD
BRANCH  21  24
HETATM   24  C2  UNL     1      27.080   0.646  52.486  1.00  0.00     0.064 C 
HETATM   25  C1  UNL     1      26.658  -0.631  52.260  1.00  0.00     0.017 C 
ENDBRANCH  21  24
ENDBRANCH   1  20
BRANCH  10  26
HETATM   26  O2  UNL     1      23.858   2.132  51.889  1.00  0.00    -0.357 OA
HETATM   27  C19 UNL     1      22.847   1.330  51.324  1.00  0.00     0.209 C 
ENDBRANCH  10  26
TORSDOF 5
ENDMDL
MODEL 7
REMARK VINA RESULT:      -7.6      3.064      5.998
REMARK  5 active torsions:
REMARK  status: ('A' for Active; 'I' for Inactive)
REMARK    1  A    between atoms: C2_2  and  C3_3 
REMARK       I    between atoms: C3_3  and  N1_5 
REMARK    2  A    between atoms: N1_5  and  C4_6 
REMARK    3  A    between atoms: C6_8  and  N2_9 
REMARK    4  A    between atoms: N2_9  and  C7_10 
REMARK    5  A    between atoms: C18_23  and  O2_24 
ROOT
HETATM    1  C4  UNL     1      23.602   2.891  50.741  1.00  0.00     0.063 C 
HETATM    2  C5  UNL     1      24.017   2.359  51.894  1.00  0.00     0.030 C 
HETATM    3  C6  UNL     1      23.286   1.697  52.966  1.00  0.00     0.110 C 
HETATM    4  C13 UNL     1      21.804   1.527  52.717  1.00  0.00     0.057 C 
HETATM    5  C14 UNL     1      21.450   0.652  51.614  1.00  0.00    -0.014 C 
HETATM    6  C15 UNL     1      20.800   0.709  50.426  1.00  0.00     0.045 C 
HETATM    7  N3  UNL     1      20.074   1.197  49.333  1.00  0.00    -0.319 NA
HETATM    8  C16 UNL     1      20.650   2.265  48.766  1.00  0.00     0.203 C 
HETATM    9  C17 UNL     1      21.803   2.442  49.619  1.00  0.00     0.122 C 
HETATM   10  C18 UNL     1      22.877   3.263  49.547  1.00  0.00     0.079 C 
ENDROOT
BRANCH   3  11
HETATM   11  N2  UNL     1      23.811   0.454  53.431  1.00  0.00    -0.382 N 
HETATM   12  H7  UNL     1      23.276  -0.323  53.865  1.00  0.00     0.160 HD
BRANCH  11  13
HETATM   13  C7  UNL     1      25.207   0.193  53.291  1.00  0.00     0.029 A 
HETATM   14  C8  UNL     1      25.669  -1.046  52.853  1.00  0.00     0.029 A 
HETATM   15  C9  UNL     1      27.040  -1.235  52.693  1.00  0.00     0.004 A 
HETATM   16  C10 UNL     1      27.987  -0.276  52.940  1.00  0.00     0.019 A 
HETATM   17  C11 UNL     1      27.554   0.977  53.380  1.00  0.00     0.013 A 
HETATM   18 BR1  UNL     1      28.784   2.399  53.765  1.00  0.00    -0.051 Br
HETATM   19  C12 UNL     1      26.188   1.164  53.536  1.00  0.00     0.048 A 
ENDBRANCH  11  13
ENDBRANCH   3  11
BRANCH   1  20
HETATM   20  N1  UNL     1      24.883   3.345  50.263  1.00  0.00    -0.322 N 
HETATM   21  C3  UNL     1      26.128   3.740  49.846  1.00  0.00     0.244 C 
HETATM   22  O1  UNL     1      27.061   3.123  50.494  1.00  0.00    -0.268 OA
HETATM   23  H4  UNL     1      24.435   3.964  49.460  1.00  0.00     0.169 HD
BRANCH  21  24
HETATM   24  C2  UNL     1      26.812   4.572  48.981  1.00  0.00     0.064 C 
HETATM   25  C1  UNL     1      28.067   4.952  48.606  1.00  0.00     0.017 C 
ENDBRANCH  21  24
ENDBRANCH   1  20
BRANCH  10  26
HETATM   26  O2  UNL     1      23.313   4.264  48.638  1.00  0.00    -0.357 OA
HETATM   27  C19 UNL     1      22.501   5.408  48.505  1.00  0.00     0.209 C 
ENDBRANCH  10  26
TORSDOF 5
ENDMDL
MODEL 8
REMARK VINA RESULT:      -7.6      4.816      8.175
REMARK  5 active torsions:
REMARK  status: ('A' for Active; 'I' for Inactive)
REMARK    1  A    between atoms: C2_2  and  C3_3 
REMARK       I    between atoms: C3_3  and  N1_5 
REMARK    2  A    between atoms: N1_5  and  C4_6 
REMARK    3  A    between atoms: C6_8  and  N2_9 
REMARK    4  A    between atoms: N2_9  and  C7_10 
REMARK    5  A    between atoms: C18_23  and  O2_24 
ROOT
HETATM    1  C4  UNL     1      23.323   1.314  52.529  1.00  0.00     0.063 C 
HETATM    2  C5  UNL     1      22.021   1.027  52.446  1.00  0.00     0.030 C 
HETATM    3  C6  UNL     1      21.286  -0.198  52.732  1.00  0.00     0.110 C 
HETATM    4  C13 UNL     1      22.126  -1.334  53.272  1.00  0.00     0.057 C 
HETATM    5  C14 UNL     1      22.725  -1.108  54.575  1.00  0.00    -0.014 C 
HETATM    6  C15 UNL     1      23.954  -1.030  55.140  1.00  0.00     0.045 C 
HETATM    7  N3  UNL     1      25.345  -1.040  55.298  1.00  0.00    -0.319 NA
HETATM    8  C16 UNL     1      25.965  -0.189  54.471  1.00  0.00     0.203 C 
HETATM    9  C17 UNL     1      24.842   0.352  53.739  1.00  0.00     0.122 C 
HETATM   10  C18 UNL     1      24.736   1.350  52.832  1.00  0.00     0.079 C 
ENDROOT
BRANCH   3  11
HETATM   11  N2  UNL     1      20.119  -0.074  53.545  1.00  0.00    -0.382 N 
HETATM   12  H7  UNL     1      20.049   0.413  54.460  1.00  0.00     0.160 HD
BRANCH  11  13
HETATM   13  C7  UNL     1      18.892  -0.642  53.091  1.00  0.00     0.029 A 
HETATM   14  C8  UNL     1      18.098   0.011  52.151  1.00  0.00     0.029 A 
HETATM   15  C9  UNL     1      16.930  -0.606  51.710  1.00  0.00     0.004 A 
HETATM   16  C10 UNL     1      16.493  -1.832  52.140  1.00  0.00     0.019 A 
HETATM   17  C11 UNL     1      17.269  -2.512  53.082  1.00  0.00     0.013 A 
HETATM   18 BR1  UNL     1      16.760  -4.232  53.765  1.00  0.00    -0.051 Br
HETATM   19  C12 UNL     1      18.433  -1.896  53.518  1.00  0.00     0.048 A 
ENDBRANCH  11  13
ENDBRANCH   3  11
BRANCH   1  20
HETATM   20  N1  UNL     1      23.251   2.680  52.076  1.00  0.00    -0.322 N 
HETATM   21  C3  UNL     1      23.146   3.962  51.603  1.00  0.00     0.244 C 
HETATM   22  O1  UNL     1      22.391   4.019  50.555  1.00  0.00    -0.268 OA
HETATM   23  H4  UNL     1      23.825   3.064  52.944  1.00  0.00     0.169 HD
BRANCH  21  24
HETATM   24  C2  UNL     1      23.546   5.269  51.801  1.00  0.00     0.064 C 
HETATM   25  C1  UNL     1      23.607   6.489  51.194  1.00  0.00     0.017 C 
ENDBRANCH  21  24
ENDBRANCH   1  20
BRANCH  10  26
HETATM   26  O2  UNL     1      25.649   2.259  52.233  1.00  0.00    -0.357 OA
HETATM   27  C19 UNL     1      26.590   1.724  51.331  1.00  0.00     0.209 C 
ENDBRANCH  10  26
TORSDOF 5
ENDMDL
MODEL 9
REMARK VINA RESULT:      -7.5      3.800      7.372
REMARK  5 active torsions:
REMARK  status: ('A' for Active; 'I' for Inactive)
REMARK    1  A    between atoms: C2_2  and  C3_3 
REMARK       I    between atoms: C3_3  and  N1_5 
REMARK    2  A    between atoms: N1_5  and  C4_6 
REMARK    3  A    between atoms: C6_8  and  N2_9 
REMARK    4  A    between atoms: N2_9  and  C7_10 
REMARK    5  A    between atoms: C18_23  and  O2_24 
ROOT
HETATM    1  C4  UNL     1      24.927   5.755  50.377  1.00  0.00     0.063 C 
HETATM    2  C5  UNL     1      24.738   4.557  50.938  1.00  0.00     0.030 C 
HETATM    3  C6  UNL     1      23.713   4.074  51.853  1.00  0.00     0.110 C 
HETATM    4  C13 UNL     1      22.635   5.080  52.191  1.00  0.00     0.057 C 
HETATM    5  C14 UNL     1      21.790   5.489  51.084  1.00  0.00    -0.014 C 
HETATM    6  C15 UNL     1      21.466   6.614  50.401  1.00  0.00     0.045 C 
HETATM    7  N3  UNL     1      21.417   7.955  49.999  1.00  0.00    -0.319 NA
HETATM    8  C16 UNL     1      22.627   8.457  49.725  1.00  0.00     0.203 C 
HETATM    9  C17 UNL     1      23.471   7.320  50.019  1.00  0.00     0.122 C 
HETATM   10  C18 UNL     1      24.793   7.093  49.846  1.00  0.00     0.079 C 
ENDROOT
BRANCH   3  11
HETATM   11  N2  UNL     1      23.087   2.835  51.521  1.00  0.00    -0.382 N 
HETATM   12  H7  UNL     1      22.369   2.679  50.786  1.00  0.00     0.160 HD
BRANCH  11  13
HETATM   13  C7  UNL     1      23.463   1.654  52.228  1.00  0.00     0.029 A 
HETATM   14  C8  UNL     1      24.797   1.268  52.330  1.00  0.00     0.029 A 
HETATM   15  C9  UNL     1      25.115   0.130  53.068  1.00  0.00     0.004 A 
HETATM   16  C10 UNL     1      24.195  -0.656  53.712  1.00  0.00     0.019 A 
HETATM   17  C11 UNL     1      22.848  -0.294  53.628  1.00  0.00     0.013 A 
HETATM   18 BR1  UNL     1      21.466  -1.316  54.482  1.00  0.00    -0.051 Br
HETATM   19  C12 UNL     1      22.535   0.842  52.896  1.00  0.00     0.048 A 
ENDBRANCH  11  13
ENDBRANCH   3  11
BRANCH   1  20
HETATM   20  N1  UNL     1      26.123   5.439  49.640  1.00  0.00    -0.322 N 
HETATM   21  C3  UNL     1      27.252   5.082  48.948  1.00  0.00     0.244 C 
HETATM   22  O1  UNL     1      27.423   3.801  48.952  1.00  0.00    -0.268 OA
HETATM   23  H4  UNL     1      26.280   6.490  49.322  1.00  0.00     0.169 HD
BRANCH  21  24
HETATM   24  C2  UNL     1      28.327   5.563  48.226  1.00  0.00     0.064 C 
HETATM   25  C1  UNL     1      29.239   6.576  48.182  1.00  0.00     0.017 C 
ENDBRANCH  21  24
ENDBRANCH   1  20
BRANCH  10  26
HETATM   26  O2  UNL     1      25.879   7.846  49.322  1.00  0.00    -0.357 OA
HETATM   27  C19 UNL     1      26.377   8.895  50.120  1.00  0.00     0.209 C 
ENDBRANCH  10  26
TORSDOF 5
ENDMDL
