MODEL 1
REMARK VINA RESULT:      -9.2      0.000      0.000
REMARK  2 active torsions:
REMARK  status: ('A' for Active; 'I' for Inactive)
REMARK    1  A    between atoms: C1_2  and  N1_3 
REMARK    2  A    between atoms: C7_10  and  C8_11 
ROOT
HETATM    1  N1  UNL     1      19.865   1.081  52.064  1.00  0.00    -0.358 N 
HETATM    2  C2  UNL     1      20.339   0.787  53.403  1.00  0.00     0.125 C 
HETATM    3  C3  UNL     1      21.026  -0.521  53.509  1.00  0.00     0.023 C 
HETATM    4  C4  UNL     1      21.653  -0.543  54.926  1.00  0.00     0.030 C 
HETATM    5  C5  UNL     1      22.786  -1.514  54.781  1.00  0.00    -0.010 C 
HETATM    6  C6  UNL     1      23.992  -0.902  54.847  1.00  0.00     0.079 C 
HETATM    7  N2  UNL     1      25.436  -0.767  54.842  1.00  0.00    -0.386 N 
HETATM    8  C7  UNL     1      26.022   0.343  54.055  1.00  0.00     0.165 C 
HETATM    9  C14 UNL     1      25.402   0.293  52.675  1.00  0.00     0.281 C 
HETATM   10  N3  UNL     1      26.402   0.614  51.657  1.00  0.00    -0.248 NA
HETATM   11  C15 UNL     1      26.686   1.890  51.571  1.00  0.00     0.233 C 
HETATM   12  N4  UNL     1      25.568   2.767  51.598  1.00  0.00    -0.212 NA
HETATM   13  C16 UNL     1      24.368   2.281  51.703  1.00  0.00     0.207 C 
HETATM   14  O2  UNL     1      24.318   1.182  52.523  1.00  0.00    -0.298 OA
HETATM   15  S1  UNL     1      23.118   3.193  50.742  1.00  0.00    -0.083 SA
HETATM   16  C17 UNL     1      21.461   2.928  51.516  1.00  0.00     0.103 C 
HETATM   17  C18 UNL     1      21.088   1.492  51.414  1.00  0.00     0.136 C 
HETATM   18  H10 UNL     1      25.652  -1.580  55.460  1.00  0.00     0.159 HD
ENDROOT
BRANCH   8  19
HETATM   19  C8  UNL     1      27.447  -0.077  53.859  1.00  0.00    -0.031 A 
HETATM   20  C9  UNL     1      27.670  -1.321  53.308  1.00  0.00     0.009 A 
HETATM   21  C10 UNL     1      28.998  -1.673  53.145  1.00  0.00     0.001 A 
HETATM   22  C11 UNL     1      30.010  -0.819  53.517  1.00  0.00     0.000 A 
HETATM   23  C12 UNL     1      29.712   0.424  54.069  1.00  0.00     0.001 A 
HETATM   24  C13 UNL     1      28.389   0.817  54.250  1.00  0.00     0.009 A 
ENDBRANCH   8  19
BRANCH   1  25
HETATM   25  C1  UNL     1      18.619   0.988  51.380  1.00  0.00     0.350 C 
HETATM   26  O1  UNL     1      18.205  -0.188  51.103  1.00  0.00    -0.284 OA
ENDBRANCH   1  25
TORSDOF 2
ENDMDL
MODEL 2
REMARK VINA RESULT:      -8.2      1.598      1.798
REMARK  2 active torsions:
REMARK  status: ('A' for Active; 'I' for Inactive)
REMARK    1  A    between atoms: C1_2  and  N1_3 
REMARK    2  A    between atoms: C7_10  and  C8_11 
ROOT
HETATM    1  N1  UNL     1      20.293   2.254  49.878  1.00  0.00    -0.358 N 
HETATM    2  C2  UNL     1      20.323   1.796  51.254  1.00  0.00     0.125 C 
HETATM    3  C3  UNL     1      20.853   0.421  51.404  1.00  0.00     0.023 C 
HETATM    4  C4  UNL     1      21.025   0.210  52.929  1.00  0.00     0.030 C 
HETATM    5  C5  UNL     1      22.077  -0.854  53.009  1.00  0.00    -0.010 C 
HETATM    6  C6  UNL     1      23.249  -0.376  53.492  1.00  0.00     0.079 C 
HETATM    7  N2  UNL     1      24.633  -0.387  53.921  1.00  0.00    -0.386 N 
HETATM    8  C7  UNL     1      25.505   0.723  53.472  1.00  0.00     0.165 C 
HETATM    9  C14 UNL     1      25.324   0.858  51.974  1.00  0.00     0.281 C 
HETATM   10  N3  UNL     1      26.603   1.166  51.334  1.00  0.00    -0.248 NA
HETATM   11  C15 UNL     1      26.989   2.409  51.481  1.00  0.00     0.233 C 
HETATM   12  N4  UNL     1      25.979   3.389  51.283  1.00  0.00    -0.212 NA
HETATM   13  C16 UNL     1      24.771   3.019  50.979  1.00  0.00     0.207 C 
HETATM   14  O2  UNL     1      24.401   1.863  51.617  1.00  0.00    -0.298 OA
HETATM   15  S1  UNL     1      23.933   4.134  49.808  1.00  0.00    -0.083 SA
HETATM   16  C17 UNL     1      22.107   3.971  50.032  1.00  0.00     0.103 C 
HETATM   17  C18 UNL     1      21.681   2.595  49.663  1.00  0.00     0.136 C 
HETATM   18  H10 UNL     1      24.597  -1.270  54.478  1.00  0.00     0.159 HD
ENDROOT
BRANCH   8  19
HETATM   19  C8  UNL     1      26.890   0.179  53.650  1.00  0.00    -0.031 A 
HETATM   20  C9  UNL     1      27.191  -1.008  53.017  1.00  0.00     0.009 A 
HETATM   21  C10 UNL     1      28.478  -1.477  53.209  1.00  0.00     0.001 A 
HETATM   22  C11 UNL     1      29.378  -0.785  53.985  1.00  0.00     0.000 A 
HETATM   23  C12 UNL     1      29.006   0.409  54.595  1.00  0.00     0.001 A 
HETATM   24  C13 UNL     1      27.721   0.917  54.429  1.00  0.00     0.009 A 
ENDBRANCH   8  19
BRANCH   1  25
HETATM   25  C1  UNL     1      19.305   2.348  48.855  1.00  0.00     0.350 C 
HETATM   26  O1  UNL     1      19.718   2.664  47.689  1.00  0.00    -0.284 OA
ENDBRANCH   1  25
TORSDOF 2
ENDMDL
MODEL 3
REMARK VINA RESULT:      -8.1      2.083      3.774
REMARK  2 active torsions:
REMARK  status: ('A' for Active; 'I' for Inactive)
REMARK    1  A    between atoms: C1_2  and  N1_3 
REMARK    2  A    between atoms: C7_10  and  C8_11 
ROOT
HETATM    1  N1  UNL     1      20.241   3.448  50.930  1.00  0.00    -0.358 N 
HETATM    2  C2  UNL     1      21.325   3.352  49.972  1.00  0.00     0.125 C 
HETATM    3  C3  UNL     1      22.519   4.142  50.353  1.00  0.00     0.023 C 
HETATM    4  C4  UNL     1      23.625   3.728  49.351  1.00  0.00     0.030 C 
HETATM    5  C5  UNL     1      24.890   4.031  50.095  1.00  0.00    -0.010 C 
HETATM    6  C6  UNL     1      25.551   2.904  50.455  1.00  0.00     0.079 C 
HETATM    7  N2  UNL     1      26.588   2.083  51.046  1.00  0.00    -0.386 N 
HETATM    8  C7  UNL     1      26.168   0.903  51.838  1.00  0.00     0.165 C 
HETATM    9  C14 UNL     1      25.117   1.374  52.822  1.00  0.00     0.281 C 
HETATM   10  N3  UNL     1      25.287   0.698  54.108  1.00  0.00    -0.248 NA
HETATM   11  C15 UNL     1      24.861  -0.541  54.121  1.00  0.00     0.233 C 
HETATM   12  N4  UNL     1      23.600  -0.759  53.501  1.00  0.00    -0.212 NA
HETATM   13  C16 UNL     1      22.959   0.240  52.973  1.00  0.00     0.207 C 
HETATM   14  O2  UNL     1      23.799   1.145  52.375  1.00  0.00    -0.298 OA
HETATM   15  S1  UNL     1      21.152   0.145  53.178  1.00  0.00    -0.083 SA
HETATM   16  C17 UNL     1      20.346   1.114  51.826  1.00  0.00     0.103 C 
HETATM   17  C18 UNL     1      20.699   2.552  51.967  1.00  0.00     0.136 C 
HETATM   18  H10 UNL     1      27.409   2.628  50.700  1.00  0.00     0.159 HD
ENDROOT
BRANCH   8  19
HETATM   19  C8  UNL     1      27.372   0.590  52.673  1.00  0.00    -0.031 A 
HETATM   20  C9  UNL     1      27.761  -0.730  52.753  1.00  0.00     0.009 A 
HETATM   21  C10 UNL     1      28.876  -0.977  53.535  1.00  0.00     0.001 A 
HETATM   22  C11 UNL     1      29.533   0.045  54.178  1.00  0.00     0.000 A 
HETATM   23  C12 UNL     1      29.084   1.356  54.053  1.00  0.00     0.001 A 
HETATM   24  C13 UNL     1      27.967   1.649  53.276  1.00  0.00     0.009 A 
ENDBRANCH   8  19
BRANCH   1  25
HETATM   25  C1  UNL     1      19.035   4.199  51.034  1.00  0.00     0.350 C 
HETATM   26  O1  UNL     1      18.511   4.593  49.938  1.00  0.00    -0.284 OA
ENDBRANCH   1  25
TORSDOF 2
ENDMDL
MODEL 4
REMARK VINA RESULT:      -8.1      3.364      5.231
REMARK  2 active torsions:
REMARK  status: ('A' for Active; 'I' for Inactive)
REMARK    1  A    between atoms: C1_2  and  N1_3 
REMARK    2  A    between atoms: C7_10  and  C8_11 
ROOT
HETATM    1  N1  UNL     1      21.479   6.748  50.034  1.00  0.00    -0.358 N 
HETATM    2  C2  UNL     1      22.507   6.254  49.139  1.00  0.00     0.125 C 
HETATM    3  C3  UNL     1      23.883   6.489  49.637  1.00  0.00     0.023 C 
HETATM    4  C4  UNL     1      24.809   5.696  48.681  1.00  0.00     0.030 C 
HETATM    5  C5  UNL     1      26.027   5.446  49.518  1.00  0.00    -0.010 C 
HETATM    6  C6  UNL     1      26.155   4.138  49.851  1.00  0.00     0.079 C 
HETATM    7  N2  UNL     1      26.731   2.954  50.455  1.00  0.00    -0.386 N 
HETATM    8  C7  UNL     1      25.816   2.019  51.150  1.00  0.00     0.165 C 
HETATM    9  C14 UNL     1      24.964   2.842  52.094  1.00  0.00     0.281 C 
HETATM   10  N3  UNL     1      24.750   2.118  53.346  1.00  0.00    -0.248 NA
HETATM   11  C15 UNL     1      23.867   1.153  53.262  1.00  0.00     0.233 C 
HETATM   12  N4  UNL     1      22.677   1.476  52.555  1.00  0.00    -0.212 NA
HETATM   13  C16 UNL     1      22.529   2.663  52.048  1.00  0.00     0.207 C 
HETATM   14  O2  UNL     1      23.703   3.173  51.556  1.00  0.00    -0.298 OA
HETATM   15  S1  UNL     1      20.822   3.293  52.138  1.00  0.00    -0.083 SA
HETATM   16  C17 UNL     1      20.577   4.543  50.798  1.00  0.00     0.103 C 
HETATM   17  C18 UNL     1      21.460   5.714  51.043  1.00  0.00     0.136 C 
HETATM   18  H10 UNL     1      27.725   3.134  50.192  1.00  0.00     0.159 HD
ENDROOT
BRANCH   8  19
HETATM   19  C8  UNL     1      26.727   1.226  52.037  1.00  0.00    -0.031 A 
HETATM   20  C9  UNL     1      26.610  -0.147  51.999  1.00  0.00     0.009 A 
HETATM   21  C10 UNL     1      27.468  -0.843  52.833  1.00  0.00     0.001 A 
HETATM   22  C11 UNL     1      28.367  -0.182  53.637  1.00  0.00     0.000 A 
HETATM   23  C12 UNL     1      28.429   1.208  53.626  1.00  0.00     0.001 A 
HETATM   24  C13 UNL     1      27.586   1.946  52.801  1.00  0.00     0.009 A 
ENDBRANCH   8  19
BRANCH   1  25
HETATM   25  C1  UNL     1      20.666   7.916  50.107  1.00  0.00     0.350 C 
HETATM   26  O1  UNL     1      20.968   8.873  49.318  1.00  0.00    -0.284 OA
ENDBRANCH   1  25
TORSDOF 2
ENDMDL
MODEL 5
REMARK VINA RESULT:      -7.7      3.224      4.997
REMARK  2 active torsions:
REMARK  status: ('A' for Active; 'I' for Inactive)
REMARK    1  A    between atoms: C1_2  and  N1_3 
REMARK    2  A    between atoms: C7_10  and  C8_11 
ROOT
HETATM    1  N1  UNL     1      19.464   0.480  52.160  1.00  0.00    -0.358 N 
HETATM    2  C2  UNL     1      20.593   0.745  53.030  1.00  0.00     0.125 C 
HETATM    3  C3  UNL     1      21.881   0.251  52.489  1.00  0.00     0.023 C 
HETATM    4  C4  UNL     1      22.970   0.828  53.427  1.00  0.00     0.030 C 
HETATM    5  C5  UNL     1      24.191   0.848  52.559  1.00  0.00    -0.010 C 
HETATM    6  C6  UNL     1      24.567   2.110  52.239  1.00  0.00     0.079 C 
HETATM    7  N2  UNL     1      25.351   3.168  51.632  1.00  0.00    -0.386 N 
HETATM    8  C7  UNL     1      24.621   4.278  50.976  1.00  0.00     0.165 C 
HETATM    9  C14 UNL     1      23.598   3.657  50.048  1.00  0.00     0.281 C 
HETATM   10  N3  UNL     1      23.499   4.432  48.811  1.00  0.00    -0.248 NA
HETATM   11  C15 UNL     1      22.827   5.550  48.933  1.00  0.00     0.233 C 
HETATM   12  N4  UNL     1      21.615   5.456  49.671  1.00  0.00    -0.212 NA
HETATM   13  C16 UNL     1      21.249   4.313  50.167  1.00  0.00     0.207 C 
HETATM   14  O2  UNL     1      22.312   3.572  50.619  1.00  0.00    -0.298 OA
HETATM   15  S1  UNL     1      19.450   4.034  50.120  1.00  0.00    -0.083 SA
HETATM   16  C17 UNL     1      18.997   2.833  51.450  1.00  0.00     0.103 C 
HETATM   17  C18 UNL     1      19.623   1.515  51.165  1.00  0.00     0.136 C 
HETATM   18  H10 UNL     1      26.296   2.790  51.864  1.00  0.00     0.159 HD
ENDROOT
BRANCH   8  19
HETATM   19  C8  UNL     1      25.647   4.891  50.073  1.00  0.00    -0.031 A 
HETATM   20  C9  UNL     1      26.527   4.037  49.443  1.00  0.00     0.009 A 
HETATM   21  C10 UNL     1      27.461   4.642  48.620  1.00  0.00     0.001 A 
HETATM   22  C11 UNL     1      27.486   6.008  48.460  1.00  0.00     0.000 A 
HETATM   23  C12 UNL     1      26.567   6.811  49.128  1.00  0.00     0.001 A 
HETATM   24  C13 UNL     1      25.611   6.243  49.965  1.00  0.00     0.009 A 
ENDBRANCH   8  19
BRANCH   1  25
HETATM   25  C1  UNL     1      18.434  -0.503  52.096  1.00  0.00     0.350 C 
HETATM   26  O1  UNL     1      18.110  -1.064  53.196  1.00  0.00    -0.284 OA
ENDBRANCH   1  25
TORSDOF 2
ENDMDL
MODEL 6
REMARK VINA RESULT:      -7.4      2.309      7.681
REMARK  2 active torsions:
REMARK  status: ('A' for Active; 'I' for Inactive)
REMARK    1  A    between atoms: C1_2  and  N1_3 
REMARK    2  A    between atoms: C7_10  and  C8_11 
ROOT
HETATM    1  N1  UNL     1      27.568  -0.187  53.235  1.00  0.00    -0.358 N 
HETATM    2  C2  UNL     1      27.292   1.190  52.873  1.00  0.00     0.125 C 
HETATM    3  C3  UNL     1      26.788   1.344  51.488  1.00  0.00     0.023 C 
HETATM    4  C4  UNL     1      26.337   2.822  51.376  1.00  0.00     0.030 C 
HETATM    5  C5  UNL     1      25.323   2.785  50.272  1.00  0.00    -0.010 C 
HETATM    6  C6  UNL     1      24.066   3.002  50.729  1.00  0.00     0.079 C 
HETATM    7  N2  UNL     1      22.627   3.165  50.683  1.00  0.00    -0.386 N 
HETATM    8  C7  UNL     1      21.821   2.476  51.718  1.00  0.00     0.165 C 
HETATM    9  C14 UNL     1      22.279   1.033  51.758  1.00  0.00     0.281 C 
HETATM   10  N3  UNL     1      21.135   0.143  51.960  1.00  0.00    -0.248 NA
HETATM   11  C15 UNL     1      20.688   0.119  53.191  1.00  0.00     0.233 C 
HETATM   12  N4  UNL     1      21.686   0.039  54.201  1.00  0.00    -0.212 NA
HETATM   13  C16 UNL     1      22.940  -0.005  53.868  1.00  0.00     0.207 C 
HETATM   14  O2  UNL     1      23.220   0.779  52.776  1.00  0.00    -0.298 OA
HETATM   15  S1  UNL     1      23.949  -1.081  54.936  1.00  0.00    -0.083 SA
HETATM   16  C17 UNL     1      25.704  -0.507  54.874  1.00  0.00     0.103 C 
HETATM   17  C18 UNL     1      26.236  -0.683  53.496  1.00  0.00     0.136 C 
HETATM   18  H10 UNL     1      22.585   3.784  49.844  1.00  0.00     0.159 HD
ENDROOT
BRANCH   8  19
HETATM   19  C8  UNL     1      20.445   2.434  51.125  1.00  0.00    -0.031 A 
HETATM   20  C9  UNL     1      20.313   1.874  49.872  1.00  0.00     0.009 A 
HETATM   21  C10 UNL     1      19.028   1.856  49.359  1.00  0.00     0.001 A 
HETATM   22  C11 UNL     1      17.971   2.369  50.073  1.00  0.00     0.000 A 
HETATM   23  C12 UNL     1      18.178   2.921  51.334  1.00  0.00     0.001 A 
HETATM   24  C13 UNL     1      19.454   2.959  51.888  1.00  0.00     0.009 A 
ENDBRANCH   8  19
BRANCH   1  25
HETATM   25  C1  UNL     1      28.729  -1.011  53.304  1.00  0.00     0.350 C 
HETATM   26  O1  UNL     1      28.533  -2.272  53.346  1.00  0.00    -0.284 OA
ENDBRANCH   1  25
TORSDOF 2
ENDMDL
MODEL 7
REMARK VINA RESULT:      -7.4      4.411      7.557
REMARK  2 active torsions:
REMARK  status: ('A' for Active; 'I' for Inactive)
REMARK    1  A    between atoms: C1_2  and  N1_3 
REMARK    2  A    between atoms: C7_10  and  C8_11 
ROOT
HETATM    1  N1  UNL     1      25.287   8.689  49.079  1.00  0.00    -0.358 N 
HETATM    2  C2  UNL     1      25.702   7.447  48.455  1.00  0.00     0.125 C 
HETATM    3  C3  UNL     1      26.443   6.548  49.370  1.00  0.00     0.023 C 
HETATM    4  C4  UNL     1      26.585   5.208  48.606  1.00  0.00     0.030 C 
HETATM    5  C5  UNL     1      26.752   4.205  49.707  1.00  0.00    -0.010 C 
HETATM    6  C6  UNL     1      25.671   3.397  49.826  1.00  0.00     0.079 C 
HETATM    7  N2  UNL     1      24.833   2.339  50.355  1.00  0.00    -0.386 N 
HETATM    8  C7  UNL     1      23.398   2.637  50.573  1.00  0.00     0.165 C 
HETATM    9  C14 UNL     1      23.322   3.933  51.353  1.00  0.00     0.281 C 
HETATM   10  N3  UNL     1      22.243   3.869  52.338  1.00  0.00    -0.248 NA
HETATM   11  C15 UNL     1      21.045   4.012  51.828  1.00  0.00     0.233 C 
HETATM   12  N4  UNL     1      20.910   5.054  50.870  1.00  0.00    -0.212 NA
HETATM   13  C16 UNL     1      21.939   5.783  50.559  1.00  0.00     0.207 C 
HETATM   14  O2  UNL     1      23.105   5.060  50.534  1.00  0.00    -0.298 OA
HETATM   15  S1  UNL     1      21.535   7.532  50.252  1.00  0.00    -0.083 SA
HETATM   16  C17 UNL     1      22.824   8.255  49.142  1.00  0.00     0.103 C 
HETATM   17  C18 UNL     1      24.137   8.255  49.839  1.00  0.00     0.136 C 
HETATM   18  H10 UNL     1      25.572   1.605  50.433  1.00  0.00     0.159 HD
ENDROOT
BRANCH   8  19
HETATM   19  C8  UNL     1      22.958   1.576  51.534  1.00  0.00    -0.031 A 
HETATM   20  C9  UNL     1      23.744   1.365  52.647  1.00  0.00     0.009 A 
HETATM   21  C10 UNL     1      23.304   0.375  53.509  1.00  0.00     0.001 A 
HETATM   22  C11 UNL     1      22.157  -0.336  53.248  1.00  0.00     0.000 A 
HETATM   23  C12 UNL     1      21.412  -0.070  52.102  1.00  0.00     0.001 A 
HETATM   24  C13 UNL     1      21.818   0.917  51.209  1.00  0.00     0.009 A 
ENDBRANCH   8  19
BRANCH   1  25
HETATM   25  C1  UNL     1      25.778  10.027  49.114  1.00  0.00     0.350 C 
HETATM   26  O1  UNL     1      26.852  10.224  49.776  1.00  0.00    -0.284 OA
ENDBRANCH   1  25
TORSDOF 2
ENDMDL
MODEL 8
REMARK VINA RESULT:      -7.2      3.171      6.856
REMARK  2 active torsions:
REMARK  status: ('A' for Active; 'I' for Inactive)
REMARK    1  A    between atoms: C1_2  and  N1_3 
REMARK    2  A    between atoms: C7_10  and  C8_11 
ROOT
HETATM    1  N1  UNL     1      24.224  -0.498  54.085  1.00  0.00    -0.358 N 
HETATM    2  C2  UNL     1      23.112  -0.488  53.155  1.00  0.00     0.125 C 
HETATM    3  C3  UNL     1      22.155   0.617  53.395  1.00  0.00     0.023 C 
HETATM    4  C4  UNL     1      21.192   0.599  52.182  1.00  0.00     0.030 C 
HETATM    5  C5  UNL     1      20.681   2.007  52.132  1.00  0.00    -0.010 C 
HETATM    6  C6  UNL     1      21.154   2.682  51.057  1.00  0.00     0.079 C 
HETATM    7  N2  UNL     1      21.353   3.791  50.145  1.00  0.00    -0.386 N 
HETATM    8  C7  UNL     1      22.734   4.063  49.680  1.00  0.00     0.165 C 
HETATM    9  C14 UNL     1      23.621   4.105  50.907  1.00  0.00     0.281 C 
HETATM   10  N3  UNL     1      24.630   5.154  50.768  1.00  0.00    -0.248 NA
HETATM   11  C15 UNL     1      25.618   4.842  49.966  1.00  0.00     0.233 C 
HETATM   12  N4  UNL     1      26.146   3.532  50.129  1.00  0.00    -0.212 NA
HETATM   13  C16 UNL     1      25.643   2.741  51.028  1.00  0.00     0.207 C 
HETATM   14  O2  UNL     1      24.284   2.885  51.153  1.00  0.00    -0.298 OA
HETATM   15  S1  UNL     1      26.877   1.683  51.849  1.00  0.00    -0.083 SA
HETATM   16  C17 UNL     1      26.032   0.169  52.489  1.00  0.00     0.103 C 
HETATM   17  C18 UNL     1      25.056   0.552  53.544  1.00  0.00     0.136 C 
HETATM   18  H10 UNL     1      20.358   4.099  50.082  1.00  0.00     0.159 HD
ENDROOT
BRANCH   8  19
HETATM   19  C8  UNL     1      22.671   5.479  49.194  1.00  0.00    -0.031 A 
HETATM   20  C9  UNL     1      23.130   5.732  47.919  1.00  0.00     0.009 A 
HETATM   21  C10 UNL     1      23.057   7.051  47.509  1.00  0.00     0.001 A 
HETATM   22  C11 UNL     1      22.555   8.026  48.339  1.00  0.00     0.000 A 
HETATM   23  C12 UNL     1      22.109   7.699  49.616  1.00  0.00     0.001 A 
HETATM   24  C13 UNL     1      22.164   6.384  50.069  1.00  0.00     0.009 A 
ENDBRANCH   8  19
BRANCH   1  25
HETATM   25  C1  UNL     1      24.550  -1.205  55.279  1.00  0.00     0.350 C 
HETATM   26  O1  UNL     1      25.627  -0.861  55.872  1.00  0.00    -0.284 OA
ENDBRANCH   1  25
TORSDOF 2
ENDMDL
MODEL 9
REMARK VINA RESULT:      -7.2     10.107     12.480
REMARK  2 active torsions:
REMARK  status: ('A' for Active; 'I' for Inactive)
REMARK    1  A    between atoms: C1_2  and  N1_3 
REMARK    2  A    between atoms: C7_10  and  C8_11 
ROOT
HETATM    1  N1  UNL     1      29.334  12.052  48.395  1.00  0.00    -0.358 N 
HETATM    2  C2  UNL     1      30.300  11.933  47.320  1.00  0.00     0.125 C 
HETATM    3  C3  UNL     1      31.671  11.632  47.794  1.00  0.00     0.023 C 
HETATM    4  C4  UNL     1      32.488  11.314  46.516  1.00  0.00     0.030 C 
HETATM    5  C5  UNL     1      33.605  10.458  47.031  1.00  0.00    -0.010 C 
HETATM    6  C6  UNL     1      33.489   9.171  46.622  1.00  0.00     0.079 C 
HETATM    7  N2  UNL     1      33.823   7.768  46.483  1.00  0.00    -0.386 N 
HETATM    8  C7  UNL     1      32.728   6.780  46.633  1.00  0.00     0.165 C 
HETATM    9  C14 UNL     1      31.990   7.117  47.912  1.00  0.00     0.281 C 
HETATM   10  N3  UNL     1      31.597   5.892  48.608  1.00  0.00    -0.248 NA
HETATM   11  C15 UNL     1      30.565   5.283  48.078  1.00  0.00     0.233 C 
HETATM   12  N4  UNL     1      29.482   6.128  47.709  1.00  0.00    -0.212 NA
HETATM   13  C16 UNL     1      29.566   7.409  47.908  1.00  0.00     0.207 C 
HETATM   14  O2  UNL     1      30.832   7.891  47.695  1.00  0.00    -0.298 OA
HETATM   15  S1  UNL     1      27.993   8.180  48.406  1.00  0.00    -0.083 SA
HETATM   16  C17 UNL     1      28.029   9.966  47.936  1.00  0.00     0.103 C 
HETATM   17  C18 UNL     1      29.090  10.663  48.711  1.00  0.00     0.136 C 
HETATM   18  H10 UNL     1      34.844   7.886  46.301  1.00  0.00     0.159 HD
ENDROOT
BRANCH   8  19
HETATM   19  C8  UNL     1      33.447   5.497  46.922  1.00  0.00    -0.031 A 
HETATM   20  C9  UNL     1      33.138   4.408  46.136  1.00  0.00     0.009 A 
HETATM   21  C10 UNL     1      33.822   3.242  46.436  1.00  0.00     0.001 A 
HETATM   22  C11 UNL     1      34.742   3.202  47.457  1.00  0.00     0.000 A 
HETATM   23  C12 UNL     1      35.004   4.341  48.212  1.00  0.00     0.001 A 
HETATM   24  C13 UNL     1      34.339   5.534  47.943  1.00  0.00     0.009 A 
ENDBRANCH   8  19
BRANCH   1  25
HETATM   25  C1  UNL     1      28.733  13.126  49.113  1.00  0.00     0.350 C 
HETATM   26  O1  UNL     1      27.503  13.363  48.865  1.00  0.00    -0.284 OA
ENDBRANCH   1  25
TORSDOF 2
ENDMDL
