MODEL 1
REMARK VINA RESULT:      -7.9      0.000      0.000
REMARK  5 active torsions:
REMARK  status: ('A' for Active; 'I' for Inactive)
REMARK       I    between atoms: C1_2  and  N1_3 
REMARK    1  A    between atoms: C1_2  and  O4_13 
REMARK    2  A    between atoms: N1_3  and  S1_4 
REMARK    3  A    between atoms: S1_4  and  C2_7 
REMARK    4  A    between atoms: O4_13  and  C8_14 
REMARK    5  A    between atoms: C8_14  and  C9_15 
ROOT
HETATM    1  O1  UNL     1      24.961   1.675  51.746  1.00  0.00    -0.237 OA
HETATM    2  C1  UNL     1      25.848   2.432  51.275  1.00  0.00     0.374 C 
HETATM    3  N1  UNL     1      27.087   2.716  51.904  1.00  0.00    -0.226 N 
HETATM    4  H1  UNL     1      27.769   3.367  51.427  1.00  0.00     0.184 HD
ENDROOT
BRANCH   2   5
HETATM    5  O4  UNL     1      25.543   3.011  50.037  1.00  0.00    -0.297 OA
BRANCH   5   6
HETATM    6  C8  UNL     1      25.243   4.394  49.925  1.00  0.00     0.239 C 
BRANCH   6   7
HETATM    7  C9  UNL     1      26.338   5.137  49.234  1.00  0.00     0.058 A 
HETATM    8  C10 UNL     1      27.588   4.655  48.837  1.00  0.00     0.031 A 
HETATM    9  C11 UNL     1      28.448   5.530  48.208  1.00  0.00     0.027 A 
HETATM   10  C12 UNL     1      28.081   6.842  47.981  1.00  0.00     0.051 A 
HETATM   11 CL1  UNL     1      29.255   7.865  47.174  1.00  0.00    -0.083 Cl
HETATM   12  C13 UNL     1      26.821   7.296  48.391  1.00  0.00     0.140 A 
HETATM   13  N2  UNL     1      26.007   6.428  48.998  1.00  0.00    -0.262 NA
ENDBRANCH   6   7
ENDBRANCH   5   6
ENDBRANCH   2   5
BRANCH   3  14
HETATM   14  S1  UNL     1      27.385   1.962  53.427  1.00  0.00     0.267 S 
HETATM   15  O2  UNL     1      26.167   2.150  54.275  1.00  0.00    -0.200 OA
HETATM   16  O3  UNL     1      28.541   2.684  54.103  1.00  0.00    -0.200 OA
BRANCH  14  17
HETATM   17  C2  UNL     1      27.856   0.306  53.258  1.00  0.00     0.080 A 
HETATM   18  C3  UNL     1      29.169   0.011  53.566  1.00  0.00     0.025 A 
HETATM   19  C4  UNL     1      29.709  -1.270  53.484  1.00  0.00     0.002 A 
HETATM   20  C5  UNL     1      28.833  -2.250  53.065  1.00  0.00     0.000 A 
HETATM   21  C6  UNL     1      27.507  -2.000  52.746  1.00  0.00     0.002 A 
HETATM   22  C7  UNL     1      27.043  -0.705  52.852  1.00  0.00     0.025 A 
ENDBRANCH  14  17
ENDBRANCH   3  14
TORSDOF 5
ENDMDL
MODEL 2
REMARK VINA RESULT:      -7.6      4.822      6.054
REMARK  5 active torsions:
REMARK  status: ('A' for Active; 'I' for Inactive)
REMARK       I    between atoms: C1_2  and  N1_3 
REMARK    1  A    between atoms: C1_2  and  O4_13 
REMARK    2  A    between atoms: N1_3  and  S1_4 
REMARK    3  A    between atoms: S1_4  and  C2_7 
REMARK    4  A    between atoms: O4_13  and  C8_14 
REMARK    5  A    between atoms: C8_14  and  C9_15 
ROOT
HETATM    1  O1  UNL     1      26.109   2.372  51.879  1.00  0.00    -0.237 OA
HETATM    2  C1  UNL     1      25.798   2.556  53.083  1.00  0.00     0.374 C 
HETATM    3  N1  UNL     1      26.641   2.275  54.188  1.00  0.00    -0.226 N 
HETATM    4  H1  UNL     1      26.288   2.464  55.166  1.00  0.00     0.184 HD
ENDROOT
BRANCH   2   5
HETATM    5  O4  UNL     1      24.515   3.077  53.296  1.00  0.00    -0.297 OA
BRANCH   5   6
HETATM    6  C8  UNL     1      23.451   2.803  52.397  1.00  0.00     0.239 C 
BRANCH   6   7
HETATM    7  C9  UNL     1      22.699   1.577  52.797  1.00  0.00     0.058 A 
HETATM    8  C10 UNL     1      23.211   0.314  53.102  1.00  0.00     0.031 A 
HETATM    9  C11 UNL     1      22.320  -0.679  53.450  1.00  0.00     0.027 A 
HETATM   10  C12 UNL     1      20.963  -0.427  53.494  1.00  0.00     0.051 A 
HETATM   11 CL1  UNL     1      19.923  -1.764  53.950  1.00  0.00    -0.083 Cl
HETATM   12  C13 UNL     1      20.479   0.849  53.183  1.00  0.00     0.140 A 
HETATM   13  N2  UNL     1      21.363   1.793  52.850  1.00  0.00    -0.262 NA
ENDBRANCH   6   7
ENDBRANCH   5   6
ENDBRANCH   2   5
BRANCH   3  14
HETATM   14  S1  UNL     1      28.205   1.636  53.841  1.00  0.00     0.267 S 
HETATM   15  O2  UNL     1      29.088   1.929  55.012  1.00  0.00    -0.200 OA
HETATM   16  O3  UNL     1      28.769   2.371  52.635  1.00  0.00    -0.200 OA
BRANCH  14  17
HETATM   17  C2  UNL     1      28.149  -0.043  53.426  1.00  0.00     0.080 A 
HETATM   18  C3  UNL     1      29.322  -0.752  53.592  1.00  0.00     0.025 A 
HETATM   19  C4  UNL     1      29.447  -2.109  53.306  1.00  0.00     0.002 A 
HETATM   20  C5  UNL     1      28.303  -2.717  52.833  1.00  0.00     0.000 A 
HETATM   21  C6  UNL     1      27.104  -2.045  52.651  1.00  0.00     0.002 A 
HETATM   22  C7  UNL     1      27.055  -0.701  52.957  1.00  0.00     0.025 A 
ENDBRANCH  14  17
ENDBRANCH   3  14
TORSDOF 5
ENDMDL
MODEL 3
REMARK VINA RESULT:      -7.6      2.822      3.524
REMARK  5 active torsions:
REMARK  status: ('A' for Active; 'I' for Inactive)
REMARK       I    between atoms: C1_2  and  N1_3 
REMARK    1  A    between atoms: C1_2  and  O4_13 
REMARK    2  A    between atoms: N1_3  and  S1_4 
REMARK    3  A    between atoms: S1_4  and  C2_7 
REMARK    4  A    between atoms: O4_13  and  C8_14 
REMARK    5  A    between atoms: C8_14  and  C9_15 
ROOT
HETATM    1  O1  UNL     1      26.513   2.322  53.665  1.00  0.00    -0.237 OA
HETATM    2  C1  UNL     1      26.879   1.828  52.568  1.00  0.00     0.374 C 
HETATM    3  N1  UNL     1      26.973   0.439  52.298  1.00  0.00    -0.226 N 
HETATM    4  H1  UNL     1      27.292   0.121  51.341  1.00  0.00     0.184 HD
ENDROOT
BRANCH   2   5
HETATM    5  O4  UNL     1      27.206   2.759  51.573  1.00  0.00    -0.297 OA
BRANCH   5   6
HETATM    6  C8  UNL     1      26.485   2.815  50.353  1.00  0.00     0.239 C 
BRANCH   6   7
HETATM    7  C9  UNL     1      26.573   4.168  49.727  1.00  0.00     0.058 A 
HETATM    8  C10 UNL     1      27.505   4.624  48.791  1.00  0.00     0.031 A 
HETATM    9  C11 UNL     1      27.392   5.924  48.348  1.00  0.00     0.027 A 
HETATM   10  C12 UNL     1      26.387   6.747  48.817  1.00  0.00     0.051 A 
HETATM   11 CL1  UNL     1      26.340   8.382  48.184  1.00  0.00    -0.083 Cl
HETATM   12  C13 UNL     1      25.468   6.261  49.755  1.00  0.00     0.140 A 
HETATM   13  N2  UNL     1      25.599   4.998  50.169  1.00  0.00    -0.262 NA
ENDBRANCH   6   7
ENDBRANCH   5   6
ENDBRANCH   2   5
BRANCH   3  14
HETATM   14  S1  UNL     1      26.553  -0.640  53.576  1.00  0.00     0.267 S 
HETATM   15  O2  UNL     1      27.391  -0.289  54.764  1.00  0.00    -0.200 OA
HETATM   16  O3  UNL     1      26.915  -2.055  53.151  1.00  0.00    -0.200 OA
BRANCH  14  17
HETATM   17  C2  UNL     1      24.855  -0.634  53.907  1.00  0.00     0.080 A 
HETATM   18  C3  UNL     1      24.460  -1.240  55.084  1.00  0.00     0.025 A 
HETATM   19  C4  UNL     1      23.134  -1.320  55.500  1.00  0.00     0.002 A 
HETATM   20  C5  UNL     1      22.216  -0.748  54.646  1.00  0.00     0.000 A 
HETATM   21  C6  UNL     1      22.565  -0.128  53.455  1.00  0.00     0.002 A 
HETATM   22  C7  UNL     1      23.900  -0.086  53.109  1.00  0.00     0.025 A 
ENDBRANCH  14  17
ENDBRANCH   3  14
TORSDOF 5
ENDMDL
MODEL 4
REMARK VINA RESULT:      -7.4      3.717      4.898
REMARK  5 active torsions:
REMARK  status: ('A' for Active; 'I' for Inactive)
REMARK       I    between atoms: C1_2  and  N1_3 
REMARK    1  A    between atoms: C1_2  and  O4_13 
REMARK    2  A    between atoms: N1_3  and  S1_4 
REMARK    3  A    between atoms: S1_4  and  C2_7 
REMARK    4  A    between atoms: O4_13  and  C8_14 
REMARK    5  A    between atoms: C8_14  and  C9_15 
ROOT
HETATM    1  O1  UNL     1      26.738   2.309  53.806  1.00  0.00    -0.237 OA
HETATM    2  C1  UNL     1      26.978   1.830  52.668  1.00  0.00     0.374 C 
HETATM    3  N1  UNL     1      26.969   0.447  52.354  1.00  0.00    -0.226 N 
HETATM    4  H1  UNL     1      27.184   0.142  51.365  1.00  0.00     0.184 HD
ENDROOT
BRANCH   2   5
HETATM    5  O4  UNL     1      27.268   2.772  51.673  1.00  0.00    -0.297 OA
BRANCH   5   6
HETATM    6  C8  UNL     1      26.517   2.827  50.470  1.00  0.00     0.239 C 
BRANCH   6   7
HETATM    7  C9  UNL     1      25.070   3.076  50.740  1.00  0.00     0.058 A 
HETATM    8  C10 UNL     1      24.002   2.188  50.587  1.00  0.00     0.031 A 
HETATM    9  C11 UNL     1      22.737   2.639  50.900  1.00  0.00     0.027 A 
HETATM   10  C12 UNL     1      22.537   3.929  51.350  1.00  0.00     0.051 A 
HETATM   11 CL1  UNL     1      20.886   4.394  51.718  1.00  0.00    -0.083 Cl
HETATM   12  C13 UNL     1      23.628   4.795  51.493  1.00  0.00     0.140 A 
HETATM   13  N2  UNL     1      24.843   4.334  51.184  1.00  0.00    -0.262 NA
ENDBRANCH   6   7
ENDBRANCH   5   6
ENDBRANCH   2   5
BRANCH   3  14
HETATM   14  S1  UNL     1      26.602  -0.647  53.636  1.00  0.00     0.267 S 
HETATM   15  O2  UNL     1      27.456  -0.280  54.808  1.00  0.00    -0.200 OA
HETATM   16  O3  UNL     1      26.990  -2.051  53.197  1.00  0.00    -0.200 OA
BRANCH  14  17
HETATM   17  C2  UNL     1      24.912  -0.684  54.003  1.00  0.00     0.080 A 
HETATM   18  C3  UNL     1      24.561  -1.261  55.207  1.00  0.00     0.025 A 
HETATM   19  C4  UNL     1      23.247  -1.370  55.653  1.00  0.00     0.002 A 
HETATM   20  C5  UNL     1      22.293  -0.857  54.800  1.00  0.00     0.000 A 
HETATM   21  C6  UNL     1      22.598  -0.267  53.582  1.00  0.00     0.002 A 
HETATM   22  C7  UNL     1      23.924  -0.194  53.207  1.00  0.00     0.025 A 
ENDBRANCH  14  17
ENDBRANCH   3  14
TORSDOF 5
ENDMDL
MODEL 5
REMARK VINA RESULT:      -7.3      4.308      6.244
REMARK  5 active torsions:
REMARK  status: ('A' for Active; 'I' for Inactive)
REMARK       I    between atoms: C1_2  and  N1_3 
REMARK    1  A    between atoms: C1_2  and  O4_13 
REMARK    2  A    between atoms: N1_3  and  S1_4 
REMARK    3  A    between atoms: S1_4  and  C2_7 
REMARK    4  A    between atoms: O4_13  and  C8_14 
REMARK    5  A    between atoms: C8_14  and  C9_15 
ROOT
HETATM    1  O1  UNL     1      23.824   3.757  52.581  1.00  0.00    -0.237 OA
HETATM    2  C1  UNL     1      24.080   3.324  51.429  1.00  0.00     0.374 C 
HETATM    3  N1  UNL     1      23.227   2.479  50.674  1.00  0.00    -0.226 N 
HETATM    4  H1  UNL     1      23.532   2.166  49.712  1.00  0.00     0.184 HD
ENDROOT
BRANCH   2   5
HETATM    5  O4  UNL     1      25.309   3.733  50.897  1.00  0.00    -0.297 OA
BRANCH   5   6
HETATM    6  C8  UNL     1      26.244   2.791  50.394  1.00  0.00     0.239 C 
BRANCH   6   7
HETATM    7  C9  UNL     1      26.793   1.930  51.483  1.00  0.00     0.058 A 
HETATM    8  C10 UNL     1      26.484   0.597  51.764  1.00  0.00     0.031 A 
HETATM    9  C11 UNL     1      27.120  -0.004  52.830  1.00  0.00     0.027 A 
HETATM   10  C12 UNL     1      28.033   0.696  53.593  1.00  0.00     0.051 A 
HETATM   11 CL1  UNL     1      28.781  -0.169  54.924  1.00  0.00    -0.083 Cl
HETATM   12  C13 UNL     1      28.322   2.031  53.287  1.00  0.00     0.140 A 
HETATM   13  N2  UNL     1      27.693   2.589  52.250  1.00  0.00    -0.262 NA
ENDBRANCH   6   7
ENDBRANCH   5   6
ENDBRANCH   2   5
BRANCH   3  14
HETATM   14  S1  UNL     1      21.732   2.020  51.401  1.00  0.00     0.267 S 
HETATM   15  O2  UNL     1      20.836   1.506  50.318  1.00  0.00    -0.200 OA
HETATM   16  O3  UNL     1      21.083   3.262  51.994  1.00  0.00    -0.200 OA
BRANCH  14  17
HETATM   17  C2  UNL     1      21.951   0.899  52.700  1.00  0.00     0.080 A 
HETATM   18  C3  UNL     1      20.912   0.801  53.604  1.00  0.00     0.025 A 
HETATM   19  C4  UNL     1      20.928  -0.053  54.704  1.00  0.00     0.002 A 
HETATM   20  C5  UNL     1      22.072  -0.811  54.842  1.00  0.00     0.000 A 
HETATM   21  C6  UNL     1      23.139  -0.746  53.960  1.00  0.00     0.002 A 
HETATM   22  C7  UNL     1      23.052   0.123  52.891  1.00  0.00     0.025 A 
ENDBRANCH  14  17
ENDBRANCH   3  14
TORSDOF 5
ENDMDL
MODEL 6
REMARK VINA RESULT:      -7.3      3.527      7.223
REMARK  5 active torsions:
REMARK  status: ('A' for Active; 'I' for Inactive)
REMARK       I    between atoms: C1_2  and  N1_3 
REMARK    1  A    between atoms: C1_2  and  O4_13 
REMARK    2  A    between atoms: N1_3  and  S1_4 
REMARK    3  A    between atoms: S1_4  and  C2_7 
REMARK    4  A    between atoms: O4_13  and  C8_14 
REMARK    5  A    between atoms: C8_14  and  C9_15 
ROOT
HETATM    1  O1  UNL     1      22.093   1.569  51.424  1.00  0.00    -0.237 OA
HETATM    2  C1  UNL     1      23.318   1.398  51.646  1.00  0.00     0.374 C 
HETATM    3  N1  UNL     1      24.359   2.187  51.094  1.00  0.00    -0.226 N 
HETATM    4  H1  UNL     1      25.362   1.964  51.341  1.00  0.00     0.184 HD
ENDROOT
BRANCH   2   5
HETATM    5  O4  UNL     1      23.626   0.338  52.508  1.00  0.00    -0.297 OA
BRANCH   5   6
HETATM    6  C8  UNL     1      24.344   0.554  53.713  1.00  0.00     0.239 C 
BRANCH   6   7
HETATM    7  C9  UNL     1      25.752   0.068  53.606  1.00  0.00     0.058 A 
HETATM    8  C10 UNL     1      26.296  -0.789  52.646  1.00  0.00     0.031 A 
HETATM    9  C11 UNL     1      27.634  -1.104  52.745  1.00  0.00     0.027 A 
HETATM   10  C12 UNL     1      28.409  -0.586  53.763  1.00  0.00     0.051 A 
HETATM   11 CL1  UNL     1      30.100  -1.055  53.791  1.00  0.00    -0.083 Cl
HETATM   12  C13 UNL     1      27.836   0.271  54.710  1.00  0.00     0.140 A 
HETATM   13  N2  UNL     1      26.538   0.561  54.592  1.00  0.00    -0.262 NA
ENDBRANCH   6   7
ENDBRANCH   5   6
ENDBRANCH   2   5
BRANCH   3  14
HETATM   14  S1  UNL     1      23.895   3.473  50.041  1.00  0.00     0.267 S 
HETATM   15  O2  UNL     1      22.911   4.330  50.773  1.00  0.00    -0.200 OA
HETATM   16  O3  UNL     1      23.188   2.877  48.834  1.00  0.00    -0.200 OA
BRANCH  14  17
HETATM   17  C2  UNL     1      25.259   4.353  49.442  1.00  0.00     0.080 A 
HETATM   18  C3  UNL     1      25.021   5.656  49.053  1.00  0.00     0.025 A 
HETATM   19  C4  UNL     1      26.007   6.500  48.550  1.00  0.00     0.002 A 
HETATM   20  C5  UNL     1      27.266   5.944  48.459  1.00  0.00     0.000 A 
HETATM   21  C6  UNL     1      27.551   4.641  48.837  1.00  0.00     0.002 A 
HETATM   22  C7  UNL     1      26.522   3.863  49.328  1.00  0.00     0.025 A 
ENDBRANCH  14  17
ENDBRANCH   3  14
TORSDOF 5
ENDMDL
MODEL 7
REMARK VINA RESULT:      -7.2      3.294      7.185
REMARK  5 active torsions:
REMARK  status: ('A' for Active; 'I' for Inactive)
REMARK       I    between atoms: C1_2  and  N1_3 
REMARK    1  A    between atoms: C1_2  and  O4_13 
REMARK    2  A    between atoms: N1_3  and  S1_4 
REMARK    3  A    between atoms: S1_4  and  C2_7 
REMARK    4  A    between atoms: O4_13  and  C8_14 
REMARK    5  A    between atoms: C8_14  and  C9_15 
ROOT
HETATM    1  O1  UNL     1      22.963   3.849  51.472  1.00  0.00    -0.237 OA
HETATM    2  C1  UNL     1      24.119   3.355  51.507  1.00  0.00     0.374 C 
HETATM    3  N1  UNL     1      25.248   3.891  50.836  1.00  0.00    -0.226 N 
HETATM    4  H1  UNL     1      26.180   3.402  50.926  1.00  0.00     0.184 HD
ENDROOT
BRANCH   2   5
HETATM    5  O4  UNL     1      24.248   2.192  52.277  1.00  0.00    -0.297 OA
BRANCH   5   6
HETATM    6  C8  UNL     1      24.991   2.189  53.486  1.00  0.00     0.239 C 
BRANCH   6   7
HETATM    7  C9  UNL     1      26.134   1.232  53.424  1.00  0.00     0.058 A 
HETATM    8  C10 UNL     1      26.191   0.001  52.765  1.00  0.00     0.031 A 
HETATM    9  C11 UNL     1      27.363  -0.721  52.845  1.00  0.00     0.027 A 
HETATM   10  C12 UNL     1      28.444  -0.238  53.556  1.00  0.00     0.051 A 
HETATM   11 CL1  UNL     1      29.883  -1.241  53.589  1.00  0.00    -0.083 Cl
HETATM   12  C13 UNL     1      28.357   0.999  54.206  1.00  0.00     0.140 A 
HETATM   13  N2  UNL     1      27.211   1.679  54.113  1.00  0.00    -0.262 NA
ENDBRANCH   6   7
ENDBRANCH   5   6
ENDBRANCH   2   5
BRANCH   3  14
HETATM   14  S1  UNL     1      25.004   5.325  49.909  1.00  0.00     0.267 S 
HETATM   15  O2  UNL     1      24.439   6.368  50.821  1.00  0.00    -0.200 OA
HETATM   16  O3  UNL     1      23.967   5.034  48.835  1.00  0.00    -0.200 OA
BRANCH  14  17
HETATM   17  C2  UNL     1      26.443   5.832  49.095  1.00  0.00     0.080 A 
HETATM   18  C3  UNL     1      27.419   4.870  48.923  1.00  0.00     0.025 A 
HETATM   19  C4  UNL     1      28.634   5.111  48.289  1.00  0.00     0.002 A 
HETATM   20  C5  UNL     1      28.812   6.400  47.833  1.00  0.00     0.000 A 
HETATM   21  C6  UNL     1      27.861   7.399  47.982  1.00  0.00     0.002 A 
HETATM   22  C7  UNL     1      26.679   7.084  48.621  1.00  0.00     0.025 A 
ENDBRANCH  14  17
ENDBRANCH   3  14
TORSDOF 5
ENDMDL
MODEL 8
REMARK VINA RESULT:      -7.2      5.402      7.004
REMARK  5 active torsions:
REMARK  status: ('A' for Active; 'I' for Inactive)
REMARK       I    between atoms: C1_2  and  N1_3 
REMARK    1  A    between atoms: C1_2  and  O4_13 
REMARK    2  A    between atoms: N1_3  and  S1_4 
REMARK    3  A    between atoms: S1_4  and  C2_7 
REMARK    4  A    between atoms: O4_13  and  C8_14 
REMARK    5  A    between atoms: C8_14  and  C9_15 
ROOT
HETATM    1  O1  UNL     1      24.441   0.454  53.748  1.00  0.00    -0.237 OA
HETATM    2  C1  UNL     1      24.485   0.904  52.575  1.00  0.00     0.374 C 
HETATM    3  N1  UNL     1      25.630   1.487  51.975  1.00  0.00    -0.226 N 
HETATM    4  H1  UNL     1      25.568   1.839  50.980  1.00  0.00     0.184 HD
ENDROOT
BRANCH   2   5
HETATM    5  O4  UNL     1      23.292   0.799  51.850  1.00  0.00    -0.297 OA
BRANCH   5   6
HETATM    6  C8  UNL     1      22.167   1.607  52.161  1.00  0.00     0.239 C 
BRANCH   6   7
HETATM    7  C9  UNL     1      20.938   0.782  52.357  1.00  0.00     0.058 A 
HETATM    8  C10 UNL     1      19.783   0.760  51.572  1.00  0.00     0.031 A 
HETATM    9  C11 UNL     1      18.763  -0.089  51.946  1.00  0.00     0.027 A 
HETATM   10  C12 UNL     1      18.885  -0.891  53.064  1.00  0.00     0.051 A 
HETATM   11 CL1  UNL     1      17.525  -1.931  53.445  1.00  0.00    -0.083 Cl
HETATM   12  C13 UNL     1      20.055  -0.847  53.831  1.00  0.00     0.140 A 
HETATM   13  N2  UNL     1      21.028  -0.016  53.447  1.00  0.00    -0.262 NA
ENDBRANCH   6   7
ENDBRANCH   5   6
ENDBRANCH   2   5
BRANCH   3  14
HETATM   14  S1  UNL     1      27.059   1.580  52.936  1.00  0.00     0.267 S 
HETATM   15  O2  UNL     1      26.683   2.170  54.259  1.00  0.00    -0.200 OA
HETATM   16  O3  UNL     1      28.034   2.532  52.260  1.00  0.00    -0.200 OA
BRANCH  14  17
HETATM   17  C2  UNL     1      27.860   0.052  53.069  1.00  0.00     0.080 A 
HETATM   18  C3  UNL     1      27.158  -1.047  52.614  1.00  0.00     0.025 A 
HETATM   19  C4  UNL     1      27.657  -2.346  52.648  1.00  0.00     0.002 A 
HETATM   20  C5  UNL     1      28.923  -2.474  53.178  1.00  0.00     0.000 A 
HETATM   21  C6  UNL     1      29.666  -1.400  53.646  1.00  0.00     0.002 A 
HETATM   22  C7  UNL     1      29.105  -0.141  53.579  1.00  0.00     0.025 A 
ENDBRANCH  14  17
ENDBRANCH   3  14
TORSDOF 5
ENDMDL
MODEL 9
REMARK VINA RESULT:      -7.1      2.830      3.823
REMARK  5 active torsions:
REMARK  status: ('A' for Active; 'I' for Inactive)
REMARK       I    between atoms: C1_2  and  N1_3 
REMARK    1  A    between atoms: C1_2  and  O4_13 
REMARK    2  A    between atoms: N1_3  and  S1_4 
REMARK    3  A    between atoms: S1_4  and  C2_7 
REMARK    4  A    between atoms: O4_13  and  C8_14 
REMARK    5  A    between atoms: C8_14  and  C9_15 
ROOT
HETATM    1  O1  UNL     1      27.928   2.073  52.614  1.00  0.00    -0.237 OA
HETATM    2  C1  UNL     1      26.961   2.132  51.813  1.00  0.00     0.374 C 
HETATM    3  N1  UNL     1      25.709   1.495  52.008  1.00  0.00    -0.226 N 
HETATM    4  H1  UNL     1      24.955   1.604  51.275  1.00  0.00     0.184 HD
ENDROOT
BRANCH   2   5
HETATM    5  O4  UNL     1      27.185   2.895  50.660  1.00  0.00    -0.297 OA
BRANCH   5   6
HETATM    6  C8  UNL     1      26.109   3.477  49.942  1.00  0.00     0.239 C 
BRANCH   6   7
HETATM    7  C9  UNL     1      26.534   4.718  49.229  1.00  0.00     0.058 A 
HETATM    8  C10 UNL     1      25.759   5.837  48.912  1.00  0.00     0.031 A 
HETATM    9  C11 UNL     1      26.369   6.877  48.244  1.00  0.00     0.027 A 
HETATM   10  C12 UNL     1      27.705   6.811  47.901  1.00  0.00     0.051 A 
HETATM   11 CL1  UNL     1      28.375   8.192  47.052  1.00  0.00    -0.083 Cl
HETATM   12  C13 UNL     1      28.455   5.676  48.232  1.00  0.00     0.140 A 
HETATM   13  N2  UNL     1      27.841   4.683  48.880  1.00  0.00    -0.262 NA
ENDBRANCH   6   7
ENDBRANCH   5   6
ENDBRANCH   2   5
BRANCH   3  14
HETATM   14  S1  UNL     1      25.513   0.574  53.454  1.00  0.00     0.267 S 
HETATM   15  O2  UNL     1      26.132   1.348  54.575  1.00  0.00    -0.200 OA
HETATM   16  O3  UNL     1      26.285  -0.728  53.304  1.00  0.00    -0.200 OA
BRANCH  14  17
HETATM   17  C2  UNL     1      23.861   0.149  53.742  1.00  0.00     0.080 A 
HETATM   18  C3  UNL     1      22.911   0.947  53.136  1.00  0.00     0.025 A 
HETATM   19  C4  UNL     1      21.540   0.743  53.265  1.00  0.00     0.002 A 
HETATM   20  C5  UNL     1      21.178  -0.329  54.053  1.00  0.00     0.000 A 
HETATM   21  C6  UNL     1      22.097  -1.158  54.680  1.00  0.00     0.002 A 
HETATM   22  C7  UNL     1      23.440  -0.894  54.506  1.00  0.00     0.025 A 
ENDBRANCH  14  17
ENDBRANCH   3  14
TORSDOF 5
ENDMDL
