MODEL 1
REMARK VINA RESULT:      -9.7      0.000      0.000
REMARK  4 active torsions:
REMARK  status: ('A' for Active; 'I' for Inactive)
REMARK    1  A    between atoms: O1_2  and  C2_3 
REMARK    2  A    between atoms: C8_11  and  N3_12 
REMARK    3  A    between atoms: N3_12  and  C9_13 
REMARK    4  A    between atoms: C17_23  and  N4_24 
REMARK       I    between atoms: N4_24  and  C18_25 
REMARK       I    between atoms: C18_25  and  N5_27 
ROOT
HETATM    1  C2  UNL     1      22.833   2.714  49.169  1.00  0.00     0.097 A 
HETATM    2  C3  UNL     1      21.863   1.843  49.640  1.00  0.00     0.071 A 
HETATM    3  C4  UNL     1      22.024   1.179  50.840  1.00  0.00     0.071 A 
HETATM    4  N1  UNL     1      21.076   0.338  51.285  1.00  0.00    -0.259 NA
HETATM    5  C5  UNL     1      21.187  -0.332  52.447  1.00  0.00     0.142 A 
HETATM    6  C6  UNL     1      22.361  -0.096  53.167  1.00  0.00     0.089 A 
HETATM    7  C7  UNL     1      22.545  -0.788  54.432  1.00  0.00     0.103 C 
HETATM    8  N2  UNL     1      22.700  -1.326  55.443  1.00  0.00    -0.191 NA
HETATM    9  C8  UNL     1      23.384   0.748  52.788  1.00  0.00     0.067 A 
HETATM   10  C15 UNL     1      23.190   1.405  51.570  1.00  0.00     0.023 A 
HETATM   11  C16 UNL     1      24.174   2.272  51.116  1.00  0.00     0.048 A 
HETATM   12  C17 UNL     1      23.971   2.904  49.929  1.00  0.00     0.070 A 
ENDROOT
BRANCH   9  13
HETATM   13  N3  UNL     1      24.533   0.930  53.572  1.00  0.00    -0.354 N 
HETATM   14  H6  UNL     1      24.234   1.605  54.310  1.00  0.00     0.166 HD
BRANCH  13  15
HETATM   15  C9  UNL     1      25.822   0.389  53.477  1.00  0.00     0.034 A 
HETATM   16  C10 UNL     1      25.951  -0.857  52.899  1.00  0.00     0.032 A 
HETATM   17  C11 UNL     1      27.201  -1.431  52.783  1.00  0.00     0.046 A 
HETATM   18  C12 UNL     1      28.287  -0.697  53.270  1.00  0.00     0.138 A 
HETATM   19  F1  UNL     1      29.541  -1.208  53.183  1.00  0.00    -0.204 F 
HETATM   20  C13 UNL     1      28.146   0.546  53.844  1.00  0.00     0.074 A 
HETATM   21 CL1  UNL     1      29.552   1.402  54.428  1.00  0.00    -0.081 Cl
HETATM   22  C14 UNL     1      26.888   1.122  53.959  1.00  0.00     0.056 A 
ENDBRANCH  13  15
ENDBRANCH   9  13
BRANCH  12  23
HETATM   23  N4  UNL     1      25.011   3.781  49.512  1.00  0.00    -0.306 N 
HETATM   24  C18 UNL     1      26.425   3.632  49.370  1.00  0.00     0.323 C 
HETATM   25  O2  UNL     1      26.800   2.480  49.683  1.00  0.00    -0.247 OA
HETATM   26  N5  UNL     1      27.057   4.833  48.906  1.00  0.00    -0.331 N 
HETATM   27  C19 UNL     1      27.170   6.224  48.452  1.00  0.00     0.147 A 
HETATM   28  C20 UNL     1      28.361   5.467  48.531  1.00  0.00     0.147 A 
HETATM   29  H11 UNL     1      24.451   4.657  49.311  1.00  0.00     0.171 HD
ENDBRANCH  12  23
BRANCH   1  30
HETATM   30  O1  UNL     1      22.770   3.428  47.980  1.00  0.00    -0.354 OA
HETATM   31  C1  UNL     1      21.694   3.176  47.112  1.00  0.00     0.210 C 
ENDBRANCH   1  30
TORSDOF 4
ENDMDL
MODEL 2
REMARK VINA RESULT:      -9.4      3.626      6.443
REMARK  4 active torsions:
REMARK  status: ('A' for Active; 'I' for Inactive)
REMARK    1  A    between atoms: O1_2  and  C2_3 
REMARK    2  A    between atoms: C8_11  and  N3_12 
REMARK    3  A    between atoms: N3_12  and  C9_13 
REMARK    4  A    between atoms: C17_23  and  N4_24 
REMARK       I    between atoms: N4_24  and  C18_25 
REMARK       I    between atoms: C18_25  and  N5_27 
ROOT
HETATM    1  C2  UNL     1      23.316   0.717  53.162  1.00  0.00     0.097 A 
HETATM    2  C3  UNL     1      22.094   1.232  52.762  1.00  0.00     0.071 A 
HETATM    3  C4  UNL     1      21.982   2.533  52.313  1.00  0.00     0.071 A 
HETATM    4  N1  UNL     1      20.790   3.019  51.927  1.00  0.00    -0.259 NA
HETATM    5  C5  UNL     1      20.630   4.280  51.483  1.00  0.00     0.142 A 
HETATM    6  C6  UNL     1      21.791   5.057  51.447  1.00  0.00     0.089 A 
HETATM    7  C7  UNL     1      21.689   6.429  50.977  1.00  0.00     0.103 C 
HETATM    8  N2  UNL     1      21.622   7.518  50.598  1.00  0.00    -0.191 NA
HETATM    9  C8  UNL     1      23.051   4.642  51.822  1.00  0.00     0.067 A 
HETATM   10  C15 UNL     1      23.131   3.321  52.272  1.00  0.00     0.023 A 
HETATM   11  C16 UNL     1      24.366   2.825  52.668  1.00  0.00     0.048 A 
HETATM   12  C17 UNL     1      24.427   1.538  53.103  1.00  0.00     0.070 A 
ENDROOT
BRANCH   9  13
HETATM   13  N3  UNL     1      24.168   5.487  51.756  1.00  0.00    -0.354 N 
HETATM   14  H6  UNL     1      24.233   5.899  52.713  1.00  0.00     0.166 HD
BRANCH  13  15
HETATM   15  C9  UNL     1      25.054   5.784  50.712  1.00  0.00     0.034 A 
HETATM   16  C10 UNL     1      25.583   4.725  50.003  1.00  0.00     0.032 A 
HETATM   17  C11 UNL     1      26.460   4.967  48.965  1.00  0.00     0.046 A 
HETATM   18  C12 UNL     1      26.765   6.303  48.688  1.00  0.00     0.138 A 
HETATM   19  F1  UNL     1      27.620   6.605  47.678  1.00  0.00    -0.204 F 
HETATM   20  C13 UNL     1      26.231   7.352  49.400  1.00  0.00     0.074 A 
HETATM   21 CL1  UNL     1      26.660   8.995  48.993  1.00  0.00    -0.081 Cl
HETATM   22  C14 UNL     1      25.348   7.106  50.445  1.00  0.00     0.056 A 
ENDBRANCH  13  15
ENDBRANCH   9  13
BRANCH  12  23
HETATM   23  N4  UNL     1      25.716   1.082  53.497  1.00  0.00    -0.306 N 
HETATM   24  C18 UNL     1      26.784   0.434  52.803  1.00  0.00     0.323 C 
HETATM   25  O2  UNL     1      26.500   0.239  51.600  1.00  0.00    -0.247 OA
HETATM   26  N5  UNL     1      27.908   0.170  53.655  1.00  0.00    -0.331 N 
HETATM   27  C19 UNL     1      28.708   0.147  54.884  1.00  0.00     0.147 A 
HETATM   28  C20 UNL     1      29.286  -0.412  53.722  1.00  0.00     0.147 A 
HETATM   29  H11 UNL     1      25.710   1.355  54.521  1.00  0.00     0.171 HD
ENDBRANCH  12  23
BRANCH   1  30
HETATM   30  O1  UNL     1      23.538  -0.572  53.629  1.00  0.00    -0.354 OA
HETATM   31  C1  UNL     1      22.662  -1.084  54.602  1.00  0.00     0.210 C 
ENDBRANCH   1  30
TORSDOF 4
ENDMDL
MODEL 3
REMARK VINA RESULT:      -9.2      3.487      6.142
REMARK  4 active torsions:
REMARK  status: ('A' for Active; 'I' for Inactive)
REMARK    1  A    between atoms: O1_2  and  C2_3 
REMARK    2  A    between atoms: C8_11  and  N3_12 
REMARK    3  A    between atoms: N3_12  and  C9_13 
REMARK    4  A    between atoms: C17_23  and  N4_24 
REMARK       I    between atoms: N4_24  and  C18_25 
REMARK       I    between atoms: C18_25  and  N5_27 
ROOT
HETATM    1  C2  UNL     1      24.146  -0.890  54.565  1.00  0.00     0.097 A 
HETATM    2  C3  UNL     1      22.766  -0.951  54.457  1.00  0.00     0.071 A 
HETATM    3  C4  UNL     1      22.104  -0.319  53.423  1.00  0.00     0.071 A 
HETATM    4  N1  UNL     1      20.765  -0.386  53.330  1.00  0.00    -0.259 NA
HETATM    5  C5  UNL     1      20.075   0.213  52.342  1.00  0.00     0.142 A 
HETATM    6  C6  UNL     1      20.845   0.914  51.411  1.00  0.00     0.089 A 
HETATM    7  C7  UNL     1      20.163   1.585  50.317  1.00  0.00     0.103 C 
HETATM    8  N2  UNL     1      19.632   2.116  49.438  1.00  0.00    -0.191 NA
HETATM    9  C8  UNL     1      22.219   1.036  51.428  1.00  0.00     0.067 A 
HETATM   10  C15 UNL     1      22.859   0.386  52.487  1.00  0.00     0.023 A 
HETATM   11  C16 UNL     1      24.242   0.459  52.576  1.00  0.00     0.048 A 
HETATM   12  C17 UNL     1      24.850  -0.179  53.612  1.00  0.00     0.070 A 
ENDROOT
BRANCH   9  13
HETATM   13  N3  UNL     1      22.918   1.761  50.452  1.00  0.00    -0.354 N 
HETATM   14  H6  UNL     1      22.880   1.151  49.605  1.00  0.00     0.166 HD
BRANCH  13  15
HETATM   15  C9  UNL     1      23.555   3.008  50.494  1.00  0.00     0.034 A 
HETATM   16  C10 UNL     1      22.967   4.000  51.253  1.00  0.00     0.032 A 
HETATM   17  C11 UNL     1      23.558   5.245  51.325  1.00  0.00     0.046 A 
HETATM   18  C12 UNL     1      24.744   5.431  50.608  1.00  0.00     0.138 A 
HETATM   19  F1  UNL     1      25.371   6.634  50.641  1.00  0.00    -0.204 F 
HETATM   20  C13 UNL     1      25.321   4.435  49.855  1.00  0.00     0.074 A 
HETATM   21 CL1  UNL     1      26.805   4.743  48.987  1.00  0.00    -0.081 Cl
HETATM   22  C14 UNL     1      24.726   3.182  49.783  1.00  0.00     0.056 A 
ENDBRANCH  13  15
ENDBRANCH   9  13
BRANCH  12  23
HETATM   23  N4  UNL     1      26.268  -0.071  53.655  1.00  0.00    -0.306 N 
HETATM   24  C18 UNL     1      27.332  -0.958  53.305  1.00  0.00     0.323 C 
HETATM   25  O2  UNL     1      26.899  -2.050  52.874  1.00  0.00    -0.247 OA
HETATM   26  N5  UNL     1      28.624  -0.378  53.534  1.00  0.00    -0.331 N 
HETATM   27  C19 UNL     1      29.611   0.631  53.933  1.00  0.00     0.147 A 
HETATM   28  C20 UNL     1      30.102  -0.602  53.447  1.00  0.00     0.147 A 
HETATM   29  H11 UNL     1      26.372   0.910  54.041  1.00  0.00     0.171 HD
ENDBRANCH  12  23
BRANCH   1  30
HETATM   30  O1  UNL     1      24.907  -1.487  55.562  1.00  0.00    -0.354 OA
HETATM   31  C1  UNL     1      24.972  -0.852  56.815  1.00  0.00     0.210 C 
ENDBRANCH   1  30
TORSDOF 4
ENDMDL
MODEL 4
REMARK VINA RESULT:      -9.0      3.330      6.240
REMARK  4 active torsions:
REMARK  status: ('A' for Active; 'I' for Inactive)
REMARK    1  A    between atoms: O1_2  and  C2_3 
REMARK    2  A    between atoms: C8_11  and  N3_12 
REMARK    3  A    between atoms: N3_12  and  C9_13 
REMARK    4  A    between atoms: C17_23  and  N4_24 
REMARK       I    between atoms: N4_24  and  C18_25 
REMARK       I    between atoms: C18_25  and  N5_27 
ROOT
HETATM    1  C2  UNL     1      23.773  -0.252  53.745  1.00  0.00     0.097 A 
HETATM    2  C3  UNL     1      22.435  -0.107  53.417  1.00  0.00     0.071 A 
HETATM    3  C4  UNL     1      22.044   0.675  52.348  1.00  0.00     0.071 A 
HETATM    4  N1  UNL     1      20.743   0.806  52.041  1.00  0.00    -0.259 NA
HETATM    5  C5  UNL     1      20.313   1.557  51.010  1.00  0.00     0.142 A 
HETATM    6  C6  UNL     1      21.313   2.195  50.272  1.00  0.00     0.089 A 
HETATM    7  C7  UNL     1      20.918   3.022  49.143  1.00  0.00     0.103 C 
HETATM    8  N2  UNL     1      20.617   3.675  48.239  1.00  0.00    -0.191 NA
HETATM    9  C8  UNL     1      22.669   2.116  50.514  1.00  0.00     0.067 A 
HETATM   10  C15 UNL     1      23.032   1.318  51.603  1.00  0.00     0.023 A 
HETATM   11  C16 UNL     1      24.378   1.186  51.914  1.00  0.00     0.048 A 
HETATM   12  C17 UNL     1      24.714   0.406  52.975  1.00  0.00     0.070 A 
ENDROOT
BRANCH   9  13
HETATM   13  N3  UNL     1      23.611   2.791  49.723  1.00  0.00    -0.354 N 
HETATM   14  H6  UNL     1      23.762   2.154  48.909  1.00  0.00     0.166 HD
BRANCH  13  15
HETATM   15  C9  UNL     1      24.259   4.021  49.889  1.00  0.00     0.034 A 
HETATM   16  C10 UNL     1      23.708   4.917  50.783  1.00  0.00     0.032 A 
HETATM   17  C11 UNL     1      24.311   6.143  50.981  1.00  0.00     0.046 A 
HETATM   18  C12 UNL     1      25.471   6.409  50.247  1.00  0.00     0.138 A 
HETATM   19  F1  UNL     1      26.109   7.596  50.399  1.00  0.00    -0.204 F 
HETATM   20  C13 UNL     1      26.012   5.507  49.359  1.00  0.00     0.074 A 
HETATM   21 CL1  UNL     1      27.466   5.912  48.480  1.00  0.00    -0.081 Cl
HETATM   22  C14 UNL     1      25.404   4.274  49.161  1.00  0.00     0.056 A 
ENDBRANCH  13  15
ENDBRANCH   9  13
BRANCH  12  23
HETATM   23  N4  UNL     1      26.107   0.306  53.249  1.00  0.00    -0.306 N 
HETATM   24  C18 UNL     1      27.101  -0.673  52.942  1.00  0.00     0.323 C 
HETATM   25  O2  UNL     1      26.620  -1.632  52.299  1.00  0.00    -0.247 OA
HETATM   26  N5  UNL     1      28.396  -0.314  53.447  1.00  0.00    -0.331 N 
HETATM   27  C19 UNL     1      29.414   0.489  54.133  1.00  0.00     0.147 A 
HETATM   28  C20 UNL     1      29.829  -0.732  53.555  1.00  0.00     0.147 A 
HETATM   29  H11 UNL     1      26.260   1.208  53.784  1.00  0.00     0.171 HD
ENDBRANCH  12  23
BRANCH   1  30
HETATM   30  O1  UNL     1      24.272  -1.011  54.796  1.00  0.00    -0.354 OA
HETATM   31  C1  UNL     1      23.355  -1.564  55.706  1.00  0.00     0.210 C 
ENDBRANCH   1  30
TORSDOF 4
ENDMDL
MODEL 5
REMARK VINA RESULT:      -8.7      3.470      5.556
REMARK  4 active torsions:
REMARK  status: ('A' for Active; 'I' for Inactive)
REMARK    1  A    between atoms: O1_2  and  C2_3 
REMARK    2  A    between atoms: C8_11  and  N3_12 
REMARK    3  A    between atoms: N3_12  and  C9_13 
REMARK    4  A    between atoms: C17_23  and  N4_24 
REMARK       I    between atoms: N4_24  and  C18_25 
REMARK       I    between atoms: C18_25  and  N5_27 
ROOT
HETATM    1  C2  UNL     1      25.848   3.775  50.003  1.00  0.00     0.097 A 
HETATM    2  C3  UNL     1      24.777   4.266  49.273  1.00  0.00     0.071 A 
HETATM    3  C4  UNL     1      23.483   4.153  49.742  1.00  0.00     0.071 A 
HETATM    4  N1  UNL     1      22.455   4.633  49.024  1.00  0.00    -0.259 NA
HETATM    5  C5  UNL     1      21.177   4.547  49.439  1.00  0.00     0.142 A 
HETATM    6  C6  UNL     1      20.987   3.921  50.674  1.00  0.00     0.089 A 
HETATM    7  C7  UNL     1      19.631   3.794  51.181  1.00  0.00     0.103 C 
HETATM    8  N2  UNL     1      18.558   3.694  51.599  1.00  0.00    -0.191 NA
HETATM    9  C8  UNL     1      21.980   3.400  51.476  1.00  0.00     0.067 A 
HETATM   10  C15 UNL     1      23.278   3.530  50.973  1.00  0.00     0.023 A 
HETATM   11  C16 UNL     1      24.336   3.032  51.720  1.00  0.00     0.048 A 
HETATM   12  C17 UNL     1      25.592   3.167  51.217  1.00  0.00     0.070 A 
ENDROOT
BRANCH   9  13
HETATM   13  N3  UNL     1      21.704   2.786  52.706  1.00  0.00    -0.354 N 
HETATM   14  H6  UNL     1      21.602   3.583  53.372  1.00  0.00     0.166 HD
BRANCH  13  15
HETATM   15  C9  UNL     1      21.575   1.439  53.068  1.00  0.00     0.034 A 
HETATM   16  C10 UNL     1      22.723   0.760  53.422  1.00  0.00     0.032 A 
HETATM   17  C11 UNL     1      22.647  -0.569  53.787  1.00  0.00     0.046 A 
HETATM   18  C12 UNL     1      21.380  -1.161  53.775  1.00  0.00     0.138 A 
HETATM   19  F1  UNL     1      21.241  -2.465  54.124  1.00  0.00    -0.204 F 
HETATM   20  C13 UNL     1      20.242  -0.475  53.420  1.00  0.00     0.074 A 
HETATM   21 CL1  UNL     1      18.694  -1.284  53.430  1.00  0.00    -0.081 Cl
HETATM   22  C14 UNL     1      20.320   0.863  53.054  1.00  0.00     0.056 A 
ENDBRANCH  13  15
ENDBRANCH   9  13
BRANCH  12  23
HETATM   23  N4  UNL     1      26.639   2.638  52.024  1.00  0.00    -0.306 N 
HETATM   24  C18 UNL     1      27.147   1.320  52.234  1.00  0.00     0.323 C 
HETATM   25  O2  UNL     1      26.526   0.472  51.555  1.00  0.00    -0.247 OA
HETATM   26  N5  UNL     1      28.238   1.297  53.166  1.00  0.00    -0.331 N 
HETATM   27  C19 UNL     1      29.233   1.819  54.110  1.00  0.00     0.147 A 
HETATM   28  C20 UNL     1      29.232   0.427  53.870  1.00  0.00     0.147 A 
HETATM   29  H11 UNL     1      26.993   3.526  52.480  1.00  0.00     0.171 HD
ENDBRANCH  12  23
BRANCH   1  30
HETATM   30  O1  UNL     1      27.182   3.837  49.623  1.00  0.00    -0.354 OA
HETATM   31  C1  UNL     1      27.559   4.810  48.682  1.00  0.00     0.210 C 
ENDBRANCH   1  30
TORSDOF 4
ENDMDL
MODEL 6
REMARK VINA RESULT:      -8.7      3.480      5.610
REMARK  4 active torsions:
REMARK  status: ('A' for Active; 'I' for Inactive)
REMARK    1  A    between atoms: O1_2  and  C2_3 
REMARK    2  A    between atoms: C8_11  and  N3_12 
REMARK    3  A    between atoms: N3_12  and  C9_13 
REMARK    4  A    between atoms: C17_23  and  N4_24 
REMARK       I    between atoms: N4_24  and  C18_25 
REMARK       I    between atoms: C18_25  and  N5_27 
ROOT
HETATM    1  C2  UNL     1      26.478   2.010  52.536  1.00  0.00     0.097 A 
HETATM    2  C3  UNL     1      26.110   0.898  53.278  1.00  0.00     0.071 A 
HETATM    3  C4  UNL     1      24.786   0.524  53.391  1.00  0.00     0.071 A 
HETATM    4  N1  UNL     1      24.443  -0.556  54.113  1.00  0.00    -0.259 NA
HETATM    5  C5  UNL     1      23.167  -0.960  54.253  1.00  0.00     0.142 A 
HETATM    6  C6  UNL     1      22.213  -0.179  53.594  1.00  0.00     0.089 A 
HETATM    7  C7  UNL     1      20.815  -0.560  53.704  1.00  0.00     0.103 C 
HETATM    8  N2  UNL     1      19.701  -0.858  53.777  1.00  0.00    -0.191 NA
HETATM    9  C8  UNL     1      22.473   0.941  52.834  1.00  0.00     0.067 A 
HETATM   10  C15 UNL     1      23.823   1.294  52.740  1.00  0.00     0.023 A 
HETATM   11  C16 UNL     1      24.170   2.410  51.992  1.00  0.00     0.048 A 
HETATM   12  C17 UNL     1      25.486   2.740  51.909  1.00  0.00     0.070 A 
ENDROOT
BRANCH   9  13
HETATM   13  N3  UNL     1      21.455   1.671  52.204  1.00  0.00    -0.354 N 
HETATM   14  H6  UNL     1      20.841   1.981  52.989  1.00  0.00     0.166 HD
BRANCH  13  15
HETATM   15  C9  UNL     1      21.220   1.973  50.857  1.00  0.00     0.034 A 
HETATM   16  C10 UNL     1      21.432   0.972  49.931  1.00  0.00     0.032 A 
HETATM   17  C11 UNL     1      21.213   1.221  48.592  1.00  0.00     0.046 A 
HETATM   18  C12 UNL     1      20.780   2.505  48.245  1.00  0.00     0.138 A 
HETATM   19  F1  UNL     1      20.547   2.810  46.943  1.00  0.00    -0.204 F 
HETATM   20  C13 UNL     1      20.571   3.496  49.176  1.00  0.00     0.074 A 
HETATM   21 CL1  UNL     1      20.028   5.075  48.665  1.00  0.00    -0.081 Cl
HETATM   22  C14 UNL     1      20.791   3.243  50.524  1.00  0.00     0.056 A 
ENDBRANCH  13  15
ENDBRANCH   9  13
BRANCH  12  23
HETATM   23  N4  UNL     1      25.785   3.893  51.131  1.00  0.00    -0.306 N 
HETATM   24  C18 UNL     1      26.283   4.081  49.805  1.00  0.00     0.323 C 
HETATM   25  O2  UNL     1      26.493   2.989  49.232  1.00  0.00    -0.247 OA
HETATM   26  N5  UNL     1      26.419   5.469  49.464  1.00  0.00    -0.331 N 
HETATM   27  C19 UNL     1      26.363   6.924  49.638  1.00  0.00     0.147 A 
HETATM   28  C20 UNL     1      26.827   6.435  48.396  1.00  0.00     0.147 A 
HETATM   29  H11 UNL     1      25.531   4.658  51.818  1.00  0.00     0.171 HD
ENDBRANCH  12  23
BRANCH   1  30
HETATM   30  O1  UNL     1      27.776   2.471  52.359  1.00  0.00    -0.354 OA
HETATM   31  C1  UNL     1      28.647   2.437  53.462  1.00  0.00     0.210 C 
ENDBRANCH   1  30
TORSDOF 4
ENDMDL
MODEL 7
REMARK VINA RESULT:      -8.6      3.855      6.534
REMARK  4 active torsions:
REMARK  status: ('A' for Active; 'I' for Inactive)
REMARK    1  A    between atoms: O1_2  and  C2_3 
REMARK    2  A    between atoms: C8_11  and  N3_12 
REMARK    3  A    between atoms: N3_12  and  C9_13 
REMARK    4  A    between atoms: C17_23  and  N4_24 
REMARK       I    between atoms: N4_24  and  C18_25 
REMARK       I    between atoms: C18_25  and  N5_27 
ROOT
HETATM    1  C2  UNL     1      19.682  -0.650  53.461  1.00  0.00     0.097 A 
HETATM    2  C3  UNL     1      20.544  -1.233  54.375  1.00  0.00     0.071 A 
HETATM    3  C4  UNL     1      21.904  -0.994  54.326  1.00  0.00     0.071 A 
HETATM    4  N1  UNL     1      22.728  -1.566  55.219  1.00  0.00    -0.259 NA
HETATM    5  C5  UNL     1      24.058  -1.363  55.212  1.00  0.00     0.142 A 
HETATM    6  C6  UNL     1      24.532  -0.513  54.209  1.00  0.00     0.089 A 
HETATM    7  C7  UNL     1      25.960  -0.251  54.144  1.00  0.00     0.103 C 
HETATM    8  N2  UNL     1      27.093  -0.029  54.087  1.00  0.00    -0.191 NA
HETATM    9  C8  UNL     1      23.761   0.115  53.254  1.00  0.00     0.067 A 
HETATM   10  C15 UNL     1      22.390  -0.148  53.330  1.00  0.00     0.023 A 
HETATM   11  C16 UNL     1      21.544   0.447  52.405  1.00  0.00     0.048 A 
HETATM   12  C17 UNL     1      20.214   0.181  52.493  1.00  0.00     0.070 A 
ENDROOT
BRANCH   9  13
HETATM   13  N3  UNL     1      24.317   0.956  52.278  1.00  0.00    -0.354 N 
HETATM   14  H6  UNL     1      24.962   0.333  51.743  1.00  0.00     0.166 HD
BRANCH  13  15
HETATM   15  C9  UNL     1      24.125   2.315  51.999  1.00  0.00     0.034 A 
HETATM   16  C10 UNL     1      23.969   3.171  53.070  1.00  0.00     0.032 A 
HETATM   17  C11 UNL     1      23.778   4.519  52.845  1.00  0.00     0.046 A 
HETATM   18  C12 UNL     1      23.754   4.946  51.513  1.00  0.00     0.138 A 
HETATM   19  F1  UNL     1      23.571   6.260  51.229  1.00  0.00    -0.204 F 
HETATM   20  C13 UNL     1      23.911   4.084  50.453  1.00  0.00     0.074 A 
HETATM   21 CL1  UNL     1      23.870   4.693  48.817  1.00  0.00    -0.081 Cl
HETATM   22  C14 UNL     1      24.104   2.727  50.681  1.00  0.00     0.056 A 
ENDBRANCH  13  15
ENDBRANCH   9  13
BRANCH  12  23
HETATM   23  N4  UNL     1      19.393   0.816  51.519  1.00  0.00    -0.306 N 
HETATM   24  C18 UNL     1      18.880   2.142  51.381  1.00  0.00     0.323 C 
HETATM   25  O2  UNL     1      19.242   2.878  52.327  1.00  0.00    -0.247 OA
HETATM   26  N5  UNL     1      18.081   2.299  50.200  1.00  0.00    -0.331 N 
HETATM   27  C19 UNL     1      17.410   1.921  48.950  1.00  0.00     0.147 A 
HETATM   28  C20 UNL     1      17.261   3.255  49.392  1.00  0.00     0.147 A 
HETATM   29  H11 UNL     1      19.231   0.010  50.852  1.00  0.00     0.171 HD
ENDBRANCH  12  23
BRANCH   1  30
HETATM   30  O1  UNL     1      18.305  -0.824  53.422  1.00  0.00    -0.354 OA
HETATM   31  C1  UNL     1      17.801  -2.134  53.498  1.00  0.00     0.210 C 
ENDBRANCH   1  30
TORSDOF 4
ENDMDL
MODEL 8
REMARK VINA RESULT:      -8.4      4.123      6.000
REMARK  4 active torsions:
REMARK  status: ('A' for Active; 'I' for Inactive)
REMARK    1  A    between atoms: O1_2  and  C2_3 
REMARK    2  A    between atoms: C8_11  and  N3_12 
REMARK    3  A    between atoms: N3_12  and  C9_13 
REMARK    4  A    between atoms: C17_23  and  N4_24 
REMARK       I    between atoms: N4_24  and  C18_25 
REMARK       I    between atoms: C18_25  and  N5_27 
ROOT
HETATM    1  C2  UNL     1      24.994   3.345  50.751  1.00  0.00     0.097 A 
HETATM    2  C3  UNL     1      25.618   2.252  51.330  1.00  0.00     0.071 A 
HETATM    3  C4  UNL     1      24.924   1.387  52.152  1.00  0.00     0.071 A 
HETATM    4  N1  UNL     1      25.542   0.332  52.706  1.00  0.00    -0.259 NA
HETATM    5  C5  UNL     1      24.908  -0.539  53.514  1.00  0.00     0.142 A 
HETATM    6  C6  UNL     1      23.556  -0.273  53.741  1.00  0.00     0.089 A 
HETATM    7  C7  UNL     1      22.810  -1.174  54.605  1.00  0.00     0.103 C 
HETATM    8  N2  UNL     1      22.206  -1.888  55.283  1.00  0.00    -0.191 NA
HETATM    9  C8  UNL     1      22.842   0.784  53.216  1.00  0.00     0.067 A 
HETATM   10  C15 UNL     1      23.573   1.641  52.388  1.00  0.00     0.023 A 
HETATM   11  C16 UNL     1      22.928   2.729  51.819  1.00  0.00     0.048 A 
HETATM   12  C17 UNL     1      23.653   3.553  51.016  1.00  0.00     0.070 A 
ENDROOT
BRANCH   9  13
HETATM   13  N3  UNL     1      21.481   0.980  53.494  1.00  0.00    -0.354 N 
HETATM   14  H6  UNL     1      21.481   1.601  54.334  1.00  0.00     0.166 HD
BRANCH  13  15
HETATM   15  C9  UNL     1      20.322   0.506  52.867  1.00  0.00     0.034 A 
HETATM   16  C10 UNL     1      19.943   1.110  51.686  1.00  0.00     0.032 A 
HETATM   17  C11 UNL     1      18.808   0.677  51.030  1.00  0.00     0.046 A 
HETATM   18  C12 UNL     1      18.095  -0.373  51.617  1.00  0.00     0.138 A 
HETATM   19  F1  UNL     1      16.971  -0.843  51.019  1.00  0.00    -0.204 F 
HETATM   20  C13 UNL     1      18.482  -0.968  52.795  1.00  0.00     0.074 A 
HETATM   21 CL1  UNL     1      17.539  -2.276  53.465  1.00  0.00    -0.081 Cl
HETATM   22  C14 UNL     1      19.625  -0.532  53.453  1.00  0.00     0.056 A 
ENDBRANCH  13  15
ENDBRANCH   9  13
BRANCH  12  23
HETATM   23  N4  UNL     1      22.942   4.653  50.459  1.00  0.00    -0.306 N 
HETATM   24  C18 UNL     1      22.907   6.051  50.754  1.00  0.00     0.323 C 
HETATM   25  O2  UNL     1      23.668   6.341  51.703  1.00  0.00    -0.247 OA
HETATM   26  N5  UNL     1      22.011   6.768  49.892  1.00  0.00    -0.331 N 
HETATM   27  C19 UNL     1      21.035   6.980  48.817  1.00  0.00     0.147 A 
HETATM   28  C20 UNL     1      21.442   8.112  49.559  1.00  0.00     0.147 A 
HETATM   29  H11 UNL     1      22.391   4.158  49.702  1.00  0.00     0.171 HD
ENDBRANCH  12  23
BRANCH   1  30
HETATM   30  O1  UNL     1      25.598   4.273  49.913  1.00  0.00    -0.354 OA
HETATM   31  C1  UNL     1      26.848   3.949  49.359  1.00  0.00     0.210 C 
ENDBRANCH   1  30
TORSDOF 4
ENDMDL
MODEL 9
REMARK VINA RESULT:      -8.2      3.915      6.587
REMARK  4 active torsions:
REMARK  status: ('A' for Active; 'I' for Inactive)
REMARK    1  A    between atoms: O1_2  and  C2_3 
REMARK    2  A    between atoms: C8_11  and  N3_12 
REMARK    3  A    between atoms: N3_12  and  C9_13 
REMARK    4  A    between atoms: C17_23  and  N4_24 
REMARK       I    between atoms: N4_24  and  C18_25 
REMARK       I    between atoms: C18_25  and  N5_27 
ROOT
HETATM    1  C2  UNL     1      20.486   0.126  52.607  1.00  0.00     0.097 A 
HETATM    2  C3  UNL     1      21.596  -0.592  53.019  1.00  0.00     0.071 A 
HETATM    3  C4  UNL     1      22.823   0.022  53.181  1.00  0.00     0.071 A 
HETATM    4  N1  UNL     1      23.891  -0.687  53.581  1.00  0.00    -0.259 NA
HETATM    5  C5  UNL     1      25.106  -0.134  53.752  1.00  0.00     0.142 A 
HETATM    6  C6  UNL     1      25.187   1.235  53.485  1.00  0.00     0.089 A 
HETATM    7  C7  UNL     1      26.471   1.896  53.650  1.00  0.00     0.103 C 
HETATM    8  N2  UNL     1      27.484   2.434  53.785  1.00  0.00    -0.191 NA
HETATM    9  C8  UNL     1      24.145   2.039  53.072  1.00  0.00     0.067 A 
HETATM   10  C15 UNL     1      22.918   1.387  52.917  1.00  0.00     0.023 A 
HETATM   11  C16 UNL     1      21.818   2.126  52.504  1.00  0.00     0.048 A 
HETATM   12  C17 UNL     1      20.632   1.478  52.359  1.00  0.00     0.070 A 
ENDROOT
BRANCH   9  13
HETATM   13  N3  UNL     1      24.310   3.410  52.824  1.00  0.00    -0.354 N 
HETATM   14  H6  UNL     1      24.377   3.834  53.776  1.00  0.00     0.166 HD
BRANCH  13  15
HETATM   15  C9  UNL     1      24.381   4.140  51.631  1.00  0.00     0.034 A 
HETATM   16  C10 UNL     1      25.106   3.596  50.591  1.00  0.00     0.032 A 
HETATM   17  C11 UNL     1      25.204   4.279  49.396  1.00  0.00     0.046 A 
HETATM   18  C12 UNL     1      24.547   5.511  49.309  1.00  0.00     0.138 A 
HETATM   19  F1  UNL     1      24.607   6.228  48.159  1.00  0.00    -0.204 F 
HETATM   20  C13 UNL     1      23.827   6.044  50.353  1.00  0.00     0.074 A 
HETATM   21 CL1  UNL     1      23.033   7.588  50.168  1.00  0.00    -0.081 Cl
HETATM   22  C14 UNL     1      23.728   5.355  51.555  1.00  0.00     0.056 A 
ENDBRANCH  13  15
ENDBRANCH   9  13
BRANCH  12  23
HETATM   23  N4  UNL     1      19.538   2.283  51.933  1.00  0.00    -0.306 N 
HETATM   24  C18 UNL     1      19.009   2.622  50.650  1.00  0.00     0.323 C 
HETATM   25  O2  UNL     1      19.661   2.086  49.726  1.00  0.00    -0.247 OA
HETATM   26  N5  UNL     1      17.868   3.487  50.742  1.00  0.00    -0.331 N 
HETATM   27  C19 UNL     1      16.826   4.304  51.375  1.00  0.00     0.147 A 
HETATM   28  C20 UNL     1      16.830   4.234  49.964  1.00  0.00     0.147 A 
HETATM   29  H11 UNL     1      19.165   2.607  52.870  1.00  0.00     0.171 HD
ENDBRANCH  12  23
BRANCH   1  30
HETATM   30  O1  UNL     1      19.212  -0.393  52.414  1.00  0.00    -0.354 OA
HETATM   31  C1  UNL     1      18.675  -1.221  53.415  1.00  0.00     0.210 C 
ENDBRANCH   1  30
TORSDOF 4
ENDMDL
