MODEL 1
REMARK VINA RESULT:      -8.9      0.000      0.000
REMARK  4 active torsions:
REMARK  status: ('A' for Active; 'I' for Inactive)
REMARK    1  A    between atoms: O1_2  and  C2_3 
REMARK    2  A    between atoms: C5_6  and  N1_7 
REMARK    3  A    between atoms: N1_7  and  C6_8 
REMARK    4  A    between atoms: C8_10  and  C9_11 
ROOT
HETATM    1  C2  UNL     1      23.423  -0.330  53.790  1.00  0.00     0.081 A 
HETATM    2  C3  UNL     1      23.113   0.712  52.996  1.00  0.00     0.031 A 
HETATM    3  C4  UNL     1      24.400   0.924  52.423  1.00  0.00     0.090 A 
HETATM    4  C5  UNL     1      24.708   2.161  51.797  1.00  0.00     0.118 C 
HETATM    5  N2  UNL     1      25.581   2.783  52.674  1.00  0.00    -0.228 NA
HETATM    6  C15 UNL     1      25.951   2.111  53.853  1.00  0.00     0.236 C 
HETATM    7  N3  UNL     1      26.371   1.169  54.719  1.00  0.00    -0.230 NA
HETATM    8  C16 UNL     1      26.766  -0.125  54.480  1.00  0.00     0.254 C 
HETATM    9  O2  UNL     1      25.978  -1.082  53.728  1.00  0.00    -0.324 OA
HETATM   10  C17 UNL     1      24.814  -0.426  53.450  1.00  0.00     0.145 A 
HETATM   11  C18 UNL     1      25.585   0.302  52.572  1.00  0.00     0.029 A 
HETATM   12  C19 UNL     1      26.854   0.528  51.850  1.00  0.00     0.021 C 
ENDROOT
BRANCH   4  13
HETATM   13  N1  UNL     1      24.089   2.427  50.575  1.00  0.00    -0.372 N 
HETATM   14  H5  UNL     1      23.167   1.980  50.397  1.00  0.00     0.161 HD
BRANCH  13  15
HETATM   15  C6  UNL     1      24.637   3.274  49.551  1.00  0.00     0.092 A 
HETATM   16  C7  UNL     1      23.780   4.269  48.849  1.00  0.00     0.037 A 
HETATM   17  C8  UNL     1      24.906   4.697  49.781  1.00  0.00     0.043 A 
BRANCH  17  18
HETATM   18  C9  UNL     1      26.099   5.348  49.134  1.00  0.00    -0.052 A 
HETATM   19  C10 UNL     1      26.100   6.668  48.700  1.00  0.00     0.007 A 
HETATM   20  C11 UNL     1      27.222   7.217  48.113  1.00  0.00     0.001 A 
HETATM   21  C12 UNL     1      28.379   6.466  47.942  1.00  0.00     0.000 A 
HETATM   22  C13 UNL     1      28.403   5.141  48.369  1.00  0.00     0.001 A 
HETATM   23  C14 UNL     1      27.269   4.607  48.955  1.00  0.00     0.007 A 
ENDBRANCH  17  18
ENDBRANCH  13  15
ENDBRANCH   4  13
BRANCH   1  24
HETATM   24  O1  UNL     1      22.832  -1.160  54.675  1.00  0.00    -0.357 OA
HETATM   25  C1  UNL     1      21.533  -1.671  54.616  1.00  0.00     0.209 C 
ENDBRANCH   1  24
TORSDOF 4
ENDMDL
MODEL 2
REMARK VINA RESULT:      -8.7      2.884      6.734
REMARK  4 active torsions:
REMARK  status: ('A' for Active; 'I' for Inactive)
REMARK    1  A    between atoms: O1_2  and  C2_3 
REMARK    2  A    between atoms: C5_6  and  N1_7 
REMARK    3  A    between atoms: N1_7  and  C6_8 
REMARK    4  A    between atoms: C8_10  and  C9_11 
ROOT
HETATM    1  C2  UNL     1      26.358   3.589  49.835  1.00  0.00     0.081 A 
HETATM    2  C3  UNL     1      26.152   2.881  50.962  1.00  0.00     0.031 A 
HETATM    3  C4  UNL     1      24.730   2.956  50.995  1.00  0.00     0.090 A 
HETATM    4  C5  UNL     1      24.030   2.690  52.201  1.00  0.00     0.118 C 
HETATM    5  N2  UNL     1      23.575   3.931  52.615  1.00  0.00    -0.228 NA
HETATM    6  C15 UNL     1      23.857   5.057  51.820  1.00  0.00     0.236 C 
HETATM    7  N3  UNL     1      23.985   5.890  50.770  1.00  0.00    -0.230 NA
HETATM    8  C16 UNL     1      23.681   5.682  49.446  1.00  0.00     0.254 C 
HETATM    9  O2  UNL     1      24.156   4.546  48.679  1.00  0.00    -0.324 OA
HETATM   10  C17 UNL     1      24.985   3.878  49.534  1.00  0.00     0.145 A 
HETATM   11  C18 UNL     1      23.822   3.523  50.179  1.00  0.00     0.029 A 
HETATM   12  C19 UNL     1      22.347   3.459  50.238  1.00  0.00     0.021 C 
ENDROOT
BRANCH   4  13
HETATM   13  N1  UNL     1      23.998   1.367  52.640  1.00  0.00    -0.372 N 
HETATM   14  H5  UNL     1      23.140   0.815  52.437  1.00  0.00     0.161 HD
BRANCH  13  15
HETATM   15  C6  UNL     1      25.066   0.716  53.349  1.00  0.00     0.092 A 
HETATM   16  C7  UNL     1      24.876  -0.642  53.929  1.00  0.00     0.037 A 
HETATM   17  C8  UNL     1      25.824  -0.395  52.763  1.00  0.00     0.043 A 
BRANCH  17  18
HETATM   18  C9  UNL     1      27.294  -0.535  53.053  1.00  0.00    -0.052 A 
HETATM   19  C10 UNL     1      27.963  -1.752  53.012  1.00  0.00     0.007 A 
HETATM   20  C11 UNL     1      29.313  -1.825  53.286  1.00  0.00     0.001 A 
HETATM   21  C12 UNL     1      30.039  -0.685  53.610  1.00  0.00     0.000 A 
HETATM   22  C13 UNL     1      29.392   0.547  53.659  1.00  0.00     0.001 A 
HETATM   23  C14 UNL     1      28.037   0.601  53.381  1.00  0.00     0.007 A 
ENDBRANCH  17  18
ENDBRANCH  13  15
ENDBRANCH   4  13
BRANCH   1  24
HETATM   24  O1  UNL     1      27.377   4.015  49.060  1.00  0.00    -0.357 OA
HETATM   25  C1  UNL     1      27.583   5.307  48.568  1.00  0.00     0.209 C 
ENDBRANCH   1  24
TORSDOF 4
ENDMDL
MODEL 3
REMARK VINA RESULT:      -8.5      3.170      5.869
REMARK  4 active torsions:
REMARK  status: ('A' for Active; 'I' for Inactive)
REMARK    1  A    between atoms: O1_2  and  C2_3 
REMARK    2  A    between atoms: C5_6  and  N1_7 
REMARK    3  A    between atoms: N1_7  and  C6_8 
REMARK    4  A    between atoms: C8_10  and  C9_11 
ROOT
HETATM    1  C2  UNL     1      22.486   0.223  52.982  1.00  0.00     0.081 A 
HETATM    2  C3  UNL     1      23.778   0.528  52.762  1.00  0.00     0.031 A 
HETATM    3  C4  UNL     1      23.609   1.899  52.416  1.00  0.00     0.090 A 
HETATM    4  C5  UNL     1      24.635   2.591  51.720  1.00  0.00     0.118 C 
HETATM    5  N2  UNL     1      24.132   2.755  50.440  1.00  0.00    -0.228 NA
HETATM    6  C15 UNL     1      22.842   2.273  50.151  1.00  0.00     0.236 C 
HETATM    7  N3  UNL     1      21.522   2.014  50.214  1.00  0.00    -0.230 NA
HETATM    8  C16 UNL     1      20.597   2.407  51.151  1.00  0.00     0.254 C 
HETATM    9  O2  UNL     1      20.764   2.215  52.579  1.00  0.00    -0.324 OA
HETATM   10  C17 UNL     1      21.929   1.514  52.696  1.00  0.00     0.145 A 
HETATM   11  C18 UNL     1      22.529   2.699  52.335  1.00  0.00     0.029 A 
HETATM   12  C19 UNL     1      22.462   4.150  52.066  1.00  0.00     0.021 C 
ENDROOT
BRANCH   4  13
HETATM   13  N1  UNL     1      25.799   2.885  52.430  1.00  0.00    -0.372 N 
HETATM   14  H5  UNL     1      25.824   3.781  52.959  1.00  0.00     0.161 HD
BRANCH  13  15
HETATM   15  C6  UNL     1      26.960   2.039  52.481  1.00  0.00     0.092 A 
HETATM   16  C7  UNL     1      28.142   2.420  53.302  1.00  0.00     0.037 A 
HETATM   17  C8  UNL     1      27.273   1.220  53.656  1.00  0.00     0.043 A 
BRANCH  17  18
HETATM   18  C9  UNL     1      27.900  -0.137  53.479  1.00  0.00    -0.052 A 
HETATM   19  C10 UNL     1      29.211  -0.420  53.844  1.00  0.00     0.007 A 
HETATM   20  C11 UNL     1      29.737  -1.682  53.661  1.00  0.00     0.001 A 
HETATM   21  C12 UNL     1      28.972  -2.702  53.107  1.00  0.00     0.000 A 
HETATM   22  C13 UNL     1      27.656  -2.443  52.732  1.00  0.00     0.001 A 
HETATM   23  C14 UNL     1      27.145  -1.172  52.924  1.00  0.00     0.007 A 
ENDBRANCH  17  18
ENDBRANCH  13  15
ENDBRANCH   4  13
BRANCH   1  24
HETATM   24  O1  UNL     1      21.726  -0.832  53.346  1.00  0.00    -0.357 OA
HETATM   25  C1  UNL     1      21.801  -1.557  54.538  1.00  0.00     0.209 C 
ENDBRANCH   1  24
TORSDOF 4
ENDMDL
MODEL 4
REMARK VINA RESULT:      -8.2      2.507      3.538
REMARK  4 active torsions:
REMARK  status: ('A' for Active; 'I' for Inactive)
REMARK    1  A    between atoms: O1_2  and  C2_3 
REMARK    2  A    between atoms: C5_6  and  N1_7 
REMARK    3  A    between atoms: N1_7  and  C6_8 
REMARK    4  A    between atoms: C8_10  and  C9_11 
ROOT
HETATM    1  C2  UNL     1      23.486  -0.462  53.442  1.00  0.00     0.081 A 
HETATM    2  C3  UNL     1      23.452   0.844  53.766  1.00  0.00     0.031 A 
HETATM    3  C4  UNL     1      24.716   1.222  53.228  1.00  0.00     0.090 A 
HETATM    4  C5  UNL     1      25.336   2.429  53.645  1.00  0.00     0.118 C 
HETATM    5  N2  UNL     1      26.394   2.017  54.438  1.00  0.00    -0.228 NA
HETATM    6  C15 UNL     1      26.611   0.638  54.615  1.00  0.00     0.236 C 
HETATM    7  N3  UNL     1      26.783  -0.678  54.382  1.00  0.00    -0.230 NA
HETATM    8  C16 UNL     1      26.775  -1.363  53.192  1.00  0.00     0.254 C 
HETATM    9  O2  UNL     1      25.708  -1.269  52.214  1.00  0.00    -0.324 OA
HETATM   10  C17 UNL     1      24.772  -0.471  52.805  1.00  0.00     0.145 A 
HETATM   11  C18 UNL     1      25.676   0.542  52.574  1.00  0.00     0.029 A 
HETATM   12  C19 UNL     1      26.919   1.045  51.955  1.00  0.00     0.021 C 
ENDROOT
BRANCH   4  13
HETATM   13  N1  UNL     1      24.762   3.624  53.209  1.00  0.00    -0.372 N 
HETATM   14  H5  UNL     1      25.034   4.496  53.706  1.00  0.00     0.161 HD
BRANCH  13  15
HETATM   15  C6  UNL     1      23.826   3.731  52.123  1.00  0.00     0.092 A 
HETATM   16  C7  UNL     1      23.861   4.901  51.203  1.00  0.00     0.037 A 
HETATM   17  C8  UNL     1      24.221   3.498  50.730  1.00  0.00     0.043 A 
BRANCH  17  18
HETATM   18  C9  UNL     1      23.258   2.845  49.777  1.00  0.00    -0.052 A 
HETATM   19  C10 UNL     1      23.095   3.258  48.460  1.00  0.00     0.007 A 
HETATM   20  C11 UNL     1      22.198   2.624  47.627  1.00  0.00     0.001 A 
HETATM   21  C12 UNL     1      21.434   1.555  48.080  1.00  0.00     0.000 A 
HETATM   22  C13 UNL     1      21.578   1.121  49.396  1.00  0.00     0.001 A 
HETATM   23  C14 UNL     1      22.483   1.770  50.218  1.00  0.00     0.007 A 
ENDBRANCH  17  18
ENDBRANCH  13  15
ENDBRANCH   4  13
BRANCH   1  24
HETATM   24  O1  UNL     1      22.724  -1.570  53.557  1.00  0.00    -0.357 OA
HETATM   25  C1  UNL     1      21.623  -1.756  54.397  1.00  0.00     0.209 C 
ENDBRANCH   1  24
TORSDOF 4
ENDMDL
MODEL 5
REMARK VINA RESULT:      -7.9      3.491      6.460
REMARK  4 active torsions:
REMARK  status: ('A' for Active; 'I' for Inactive)
REMARK    1  A    between atoms: O1_2  and  C2_3 
REMARK    2  A    between atoms: C5_6  and  N1_7 
REMARK    3  A    between atoms: N1_7  and  C6_8 
REMARK    4  A    between atoms: C8_10  and  C9_11 
ROOT
HETATM    1  C2  UNL     1      23.325   4.203  52.093  1.00  0.00     0.081 A 
HETATM    2  C3  UNL     1      23.670   3.083  52.754  1.00  0.00     0.031 A 
HETATM    3  C4  UNL     1      22.776   2.180  52.111  1.00  0.00     0.090 A 
HETATM    4  C5  UNL     1      22.468   0.931  52.712  1.00  0.00     0.118 C 
HETATM    5  N2  UNL     1      21.163   1.074  53.154  1.00  0.00    -0.228 NA
HETATM    6  C15 UNL     1      20.495   2.288  52.913  1.00  0.00     0.236 C 
HETATM    7  N3  UNL     1      19.996   3.384  52.309  1.00  0.00    -0.230 NA
HETATM    8  C16 UNL     1      20.111   3.791  51.002  1.00  0.00     0.254 C 
HETATM    9  O2  UNL     1      21.375   3.907  50.302  1.00  0.00    -0.324 OA
HETATM   10  C17 UNL     1      22.318   3.627  51.248  1.00  0.00     0.145 A 
HETATM   11  C18 UNL     1      21.864   2.333  51.132  1.00  0.00     0.029 A 
HETATM   12  C19 UNL     1      21.049   1.308  50.450  1.00  0.00     0.021 C 
ENDROOT
BRANCH   4  13
HETATM   13  N1  UNL     1      23.476  -0.034  52.726  1.00  0.00    -0.372 N 
HETATM   14  H5  UNL     1      23.325  -0.893  52.159  1.00  0.00     0.161 HD
BRANCH  13  15
HETATM   15  C6  UNL     1      24.703   0.078  53.466  1.00  0.00     0.092 A 
HETATM   16  C7  UNL     1      25.007  -0.864  54.578  1.00  0.00     0.037 A 
HETATM   17  C8  UNL     1      25.809  -0.868  53.283  1.00  0.00     0.043 A 
BRANCH  17  18
HETATM   18  C9  UNL     1      27.231  -0.384  53.374  1.00  0.00    -0.052 A 
HETATM   19  C10 UNL     1      27.572   0.961  53.457  1.00  0.00     0.007 A 
HETATM   20  C11 UNL     1      28.892   1.351  53.539  1.00  0.00     0.001 A 
HETATM   21  C12 UNL     1      29.916   0.412  53.542  1.00  0.00     0.000 A 
HETATM   22  C13 UNL     1      29.602  -0.943  53.458  1.00  0.00     0.001 A 
HETATM   23  C14 UNL     1      28.271  -1.316  53.377  1.00  0.00     0.007 A 
ENDBRANCH  17  18
ENDBRANCH  13  15
ENDBRANCH   4  13
BRANCH   1  24
HETATM   24  O1  UNL     1      23.650   5.513  52.048  1.00  0.00    -0.357 OA
HETATM   25  C1  UNL     1      24.099   6.234  50.939  1.00  0.00     0.209 C 
ENDBRANCH   1  24
TORSDOF 4
ENDMDL
MODEL 6
REMARK VINA RESULT:      -7.8      3.855      6.083
REMARK  4 active torsions:
REMARK  status: ('A' for Active; 'I' for Inactive)
REMARK    1  A    between atoms: O1_2  and  C2_3 
REMARK    2  A    between atoms: C5_6  and  N1_7 
REMARK    3  A    between atoms: N1_7  and  C6_8 
REMARK    4  A    between atoms: C8_10  and  C9_11 
ROOT
HETATM    1  C2  UNL     1      19.870   3.102  52.042  1.00  0.00     0.081 A 
HETATM    2  C3  UNL     1      20.471   1.901  52.139  1.00  0.00     0.031 A 
HETATM    3  C4  UNL     1      21.824   2.345  52.090  1.00  0.00     0.090 A 
HETATM    4  C5  UNL     1      22.863   1.431  51.771  1.00  0.00     0.118 C 
HETATM    5  N2  UNL     1      23.257   1.791  50.492  1.00  0.00    -0.228 NA
HETATM    6  C15 UNL     1      22.624   2.882  49.870  1.00  0.00     0.236 C 
HETATM    7  N3  UNL     1      22.102   4.100  49.629  1.00  0.00    -0.230 NA
HETATM    8  C16 UNL     1      22.044   5.204  50.446  1.00  0.00     0.254 C 
HETATM    9  O2  UNL     1      21.519   5.180  51.797  1.00  0.00    -0.324 OA
HETATM   10  C17 UNL     1      21.055   3.907  51.963  1.00  0.00     0.145 A 
HETATM   11  C18 UNL     1      22.388   3.563  51.998  1.00  0.00     0.029 A 
HETATM   12  C19 UNL     1      23.816   3.937  52.061  1.00  0.00     0.021 C 
ENDROOT
BRANCH   4  13
HETATM   13  N1  UNL     1      23.183   0.470  52.730  1.00  0.00    -0.372 N 
HETATM   14  H5  UNL     1      22.487  -0.283  52.905  1.00  0.00     0.161 HD
BRANCH  13  15
HETATM   15  C6  UNL     1      24.404   0.448  53.488  1.00  0.00     0.092 A 
HETATM   16  C7  UNL     1      24.876  -0.808  54.132  1.00  0.00     0.037 A 
HETATM   17  C8  UNL     1      25.629  -0.171  52.971  1.00  0.00     0.043 A 
BRANCH  17  18
HETATM   18  C9  UNL     1      26.969   0.435  53.293  1.00  0.00    -0.052 A 
HETATM   19  C10 UNL     1      27.186   1.806  53.355  1.00  0.00     0.007 A 
HETATM   20  C11 UNL     1      28.435   2.309  53.655  1.00  0.00     0.001 A 
HETATM   21  C12 UNL     1      29.507   1.461  53.903  1.00  0.00     0.000 A 
HETATM   22  C13 UNL     1      29.315   0.082  53.846  1.00  0.00     0.001 A 
HETATM   23  C14 UNL     1      28.055  -0.405  53.544  1.00  0.00     0.007 A 
ENDBRANCH  17  18
ENDBRANCH  13  15
ENDBRANCH   4  13
BRANCH   1  24
HETATM   24  O1  UNL     1      18.629   3.631  52.010  1.00  0.00    -0.357 OA
HETATM   25  C1  UNL     1      17.971   4.176  50.905  1.00  0.00     0.209 C 
ENDBRANCH   1  24
TORSDOF 4
ENDMDL
MODEL 7
REMARK VINA RESULT:      -7.6      1.678      2.458
REMARK  4 active torsions:
REMARK  status: ('A' for Active; 'I' for Inactive)
REMARK    1  A    between atoms: O1_2  and  C2_3 
REMARK    2  A    between atoms: C5_6  and  N1_7 
REMARK    3  A    between atoms: N1_7  and  C6_8 
REMARK    4  A    between atoms: C8_10  and  C9_11 
ROOT
HETATM    1  C2  UNL     1      23.303   1.195  52.889  1.00  0.00     0.081 A 
HETATM    2  C3  UNL     1      23.967   2.152  52.214  1.00  0.00     0.031 A 
HETATM    3  C4  UNL     1      25.204   1.466  52.049  1.00  0.00     0.090 A 
HETATM    4  C5  UNL     1      26.384   2.188  51.730  1.00  0.00     0.118 C 
HETATM    5  N2  UNL     1      27.132   2.158  52.895  1.00  0.00    -0.228 NA
HETATM    6  C15 UNL     1      26.622   1.470  54.011  1.00  0.00     0.236 C 
HETATM    7  N3  UNL     1      26.077   0.524  54.799  1.00  0.00    -0.230 NA
HETATM    8  C16 UNL     1      25.636  -0.737  54.476  1.00  0.00     0.254 C 
HETATM    9  O2  UNL     1      24.704  -1.013  53.400  1.00  0.00    -0.324 OA
HETATM   10  C17 UNL     1      24.353   0.218  52.926  1.00  0.00     0.145 A 
HETATM   11  C18 UNL     1      25.631   0.241  52.412  1.00  0.00     0.029 A 
HETATM   12  C19 UNL     1      26.909  -0.431  52.102  1.00  0.00     0.021 C 
ENDROOT
BRANCH   4  13
HETATM   13  N1  UNL     1      26.476   2.721  50.443  1.00  0.00    -0.372 N 
HETATM   14  H5  UNL     1      26.590   2.052  49.655  1.00  0.00     0.161 HD
BRANCH  13  15
HETATM   15  C6  UNL     1      26.423   4.123  50.134  1.00  0.00     0.092 A 
HETATM   16  C7  UNL     1      27.070   4.656  48.904  1.00  0.00     0.037 A 
HETATM   17  C8  UNL     1      25.557   4.654  49.076  1.00  0.00     0.043 A 
BRANCH  17  18
HETATM   18  C9  UNL     1      24.900   5.997  49.247  1.00  0.00    -0.052 A 
HETATM   19  C10 UNL     1      24.768   6.625  50.480  1.00  0.00     0.007 A 
HETATM   20  C11 UNL     1      24.157   7.858  50.581  1.00  0.00     0.001 A 
HETATM   21  C12 UNL     1      23.659   8.504  49.456  1.00  0.00     0.000 A 
HETATM   22  C13 UNL     1      23.779   7.895  48.209  1.00  0.00     0.001 A 
HETATM   23  C14 UNL     1      24.394   6.658  48.126  1.00  0.00     0.007 A 
ENDBRANCH  17  18
ENDBRANCH  13  15
ENDBRANCH   4  13
BRANCH   1  24
HETATM   24  O1  UNL     1      22.090   0.980  53.441  1.00  0.00    -0.357 OA
HETATM   25  C1  UNL     1      21.744  -0.015  54.359  1.00  0.00     0.209 C 
ENDBRANCH   1  24
TORSDOF 4
ENDMDL
MODEL 8
REMARK VINA RESULT:      -7.6      3.296      6.561
REMARK  4 active torsions:
REMARK  status: ('A' for Active; 'I' for Inactive)
REMARK    1  A    between atoms: O1_2  and  C2_3 
REMARK    2  A    between atoms: C5_6  and  N1_7 
REMARK    3  A    between atoms: N1_7  and  C6_8 
REMARK    4  A    between atoms: C8_10  and  C9_11 
ROOT
HETATM    1  C2  UNL     1      22.264   5.444  51.451  1.00  0.00     0.081 A 
HETATM    2  C3  UNL     1      22.292   4.393  52.291  1.00  0.00     0.031 A 
HETATM    3  C4  UNL     1      23.426   3.724  51.746  1.00  0.00     0.090 A 
HETATM    4  C5  UNL     1      23.652   2.353  52.034  1.00  0.00     0.118 C 
HETATM    5  N2  UNL     1      23.362   1.700  50.847  1.00  0.00    -0.228 NA
HETATM    6  C15 UNL     1      22.973   2.463  49.731  1.00  0.00     0.236 C 
HETATM    7  N3  UNL     1      22.928   3.404  48.769  1.00  0.00    -0.230 NA
HETATM    8  C16 UNL     1      23.773   4.464  48.543  1.00  0.00     0.254 C 
HETATM    9  O2  UNL     1      24.138   5.434  49.557  1.00  0.00    -0.324 OA
HETATM   10  C17 UNL     1      23.398   5.083  50.649  1.00  0.00     0.145 A 
HETATM   11  C18 UNL     1      24.259   4.011  50.728  1.00  0.00     0.029 A 
HETATM   12  C19 UNL     1      25.483   3.306  50.298  1.00  0.00     0.021 C 
ENDROOT
BRANCH   4  13
HETATM   13  N1  UNL     1      24.051   2.032  53.331  1.00  0.00    -0.372 N 
HETATM   14  H5  UNL     1      23.635   2.581  54.111  1.00  0.00     0.161 HD
BRANCH  13  15
HETATM   15  C6  UNL     1      24.992   0.997  53.663  1.00  0.00     0.092 A 
HETATM   16  C7  UNL     1      24.687  -0.430  53.372  1.00  0.00     0.037 A 
HETATM   17  C8  UNL     1      25.794   0.318  52.639  1.00  0.00     0.043 A 
BRANCH  17  18
HETATM   18  C9  UNL     1      27.205  -0.103  52.949  1.00  0.00    -0.052 A 
HETATM   19  C10 UNL     1      28.182   0.782  53.388  1.00  0.00     0.007 A 
HETATM   20  C11 UNL     1      29.461   0.344  53.658  1.00  0.00     0.001 A 
HETATM   21  C12 UNL     1      29.808  -0.992  53.499  1.00  0.00     0.000 A 
HETATM   22  C13 UNL     1      28.847  -1.900  53.059  1.00  0.00     0.001 A 
HETATM   23  C14 UNL     1      27.568  -1.442  52.793  1.00  0.00     0.007 A 
ENDBRANCH  17  18
ENDBRANCH  13  15
ENDBRANCH   4  13
BRANCH   1  24
HETATM   24  O1  UNL     1      21.543   6.564  51.228  1.00  0.00    -0.357 OA
HETATM   25  C1  UNL     1      21.930   7.686  50.491  1.00  0.00     0.209 C 
ENDBRANCH   1  24
TORSDOF 4
ENDMDL
MODEL 9
REMARK VINA RESULT:      -7.5      4.421      7.024
REMARK  4 active torsions:
REMARK  status: ('A' for Active; 'I' for Inactive)
REMARK    1  A    between atoms: O1_2  and  C2_3 
REMARK    2  A    between atoms: C5_6  and  N1_7 
REMARK    3  A    between atoms: N1_7  and  C6_8 
REMARK    4  A    between atoms: C8_10  and  C9_11 
ROOT
HETATM    1  C2  UNL     1      21.204   4.152  51.557  1.00  0.00     0.081 A 
HETATM    2  C3  UNL     1      20.589   3.248  52.342  1.00  0.00     0.031 A 
HETATM    3  C4  UNL     1      20.714   2.116  51.487  1.00  0.00     0.090 A 
HETATM    4  C5  UNL     1      19.885   0.980  51.683  1.00  0.00     0.118 C 
HETATM    5  N2  UNL     1      18.994   1.017  50.623  1.00  0.00    -0.228 NA
HETATM    6  C15 UNL     1      19.112   2.049  49.674  1.00  0.00     0.236 C 
HETATM    7  N3  UNL     1      19.612   2.919  48.775  1.00  0.00    -0.230 NA
HETATM    8  C16 UNL     1      20.903   3.070  48.328  1.00  0.00     0.254 C 
HETATM    9  O2  UNL     1      22.046   3.227  49.205  1.00  0.00    -0.324 OA
HETATM   10  C17 UNL     1      21.511   3.281  50.460  1.00  0.00     0.145 A 
HETATM   11  C18 UNL     1      21.274   1.937  50.276  1.00  0.00     0.029 A 
HETATM   12  C19 UNL     1      21.449   0.689  49.505  1.00  0.00     0.021 C 
ENDROOT
BRANCH   4  13
HETATM   13  N1  UNL     1      20.137   0.193  52.807  1.00  0.00    -0.372 N 
HETATM   14  H5  UNL     1      19.390  -0.466  53.109  1.00  0.00     0.161 HD
BRANCH  13  15
HETATM   15  C6  UNL     1      21.353   0.230  53.573  1.00  0.00     0.092 A 
HETATM   16  C7  UNL     1      21.787  -0.953  54.366  1.00  0.00     0.037 A 
HETATM   17  C8  UNL     1      22.563  -0.478  53.144  1.00  0.00     0.043 A 
BRANCH  17  18
HETATM   18  C9  UNL     1      23.917   0.126  53.403  1.00  0.00    -0.052 A 
HETATM   19  C10 UNL     1      24.988  -0.600  53.910  1.00  0.00     0.007 A 
HETATM   20  C11 UNL     1      26.209   0.002  54.128  1.00  0.00     0.001 A 
HETATM   21  C12 UNL     1      26.402   1.349  53.848  1.00  0.00     0.000 A 
HETATM   22  C13 UNL     1      25.344   2.100  53.339  1.00  0.00     0.001 A 
HETATM   23  C14 UNL     1      24.126   1.479  53.126  1.00  0.00     0.007 A 
ENDBRANCH  17  18
ENDBRANCH  13  15
ENDBRANCH   4  13
BRANCH   1  24
HETATM   24  O1  UNL     1      21.541   5.460  51.563  1.00  0.00    -0.357 OA
HETATM   25  C1  UNL     1      21.513   6.345  50.482  1.00  0.00     0.209 C 
ENDBRANCH   1  24
TORSDOF 4
ENDMDL
