MODEL 1
REMARK VINA RESULT:      -8.6      0.000      0.000
REMARK  3 active torsions:
REMARK  status: ('A' for Active; 'I' for Inactive)
REMARK    1  A    between atoms: C6_7  and  C7_8 
REMARK    2  A    between atoms: C7_8  and  N1_9 
REMARK    3  A    between atoms: N1_9  and  C8_10 
ROOT
HETATM    1  C8  UNL     1      24.378   2.604  51.260  1.00  0.00     0.156 A 
HETATM    2  N2  UNL     1      24.198   3.156  50.041  1.00  0.00    -0.222 NA
HETATM    3  C9  UNL     1      23.138   2.808  49.307  1.00  0.00     0.238 A 
HETATM    4  N3  UNL     1      22.228   1.909  49.755  1.00  0.00    -0.215 NA
HETATM    5  C10 UNL     1      22.371   1.328  50.982  1.00  0.00     0.201 A 
HETATM    6  C11 UNL     1      23.475   1.668  51.782  1.00  0.00     0.129 A 
HETATM    7  N4  UNL     1      23.618   1.054  53.062  1.00  0.00    -0.369 N 
HETATM    8  C12 UNL     1      23.012  -0.257  53.091  1.00  0.00     0.162 A 
HETATM    9  C13 UNL     1      22.991  -0.899  54.415  1.00  0.00     0.005 A 
HETATM   10  C14 UNL     1      21.733  -1.177  54.751  1.00  0.00     0.001 A 
HETATM   11  C15 UNL     1      20.823  -0.737  53.668  1.00  0.00     0.035 A 
HETATM   12  C16 UNL     1      21.578  -0.208  52.720  1.00  0.00     0.082 A 
HETATM   13  O1  UNL     1      21.434   0.388  51.465  1.00  0.00    -0.292 OA
HETATM   14  H9  UNL     1      24.124   1.624  53.774  1.00  0.00     0.161 HD
ENDROOT
BRANCH   1  15
HETATM   15  N1  UNL     1      25.504   2.957  52.057  1.00  0.00    -0.368 N 
HETATM   16  H7  UNL     1      25.429   3.513  52.924  1.00  0.00     0.161 HD
BRANCH  15  17
HETATM   17  C7  UNL     1      26.796   2.520  51.641  1.00  0.00     0.163 C 
BRANCH  17  18
HETATM   18  C6  UNL     1      27.300   1.314  52.335  1.00  0.00    -0.002 A 
HETATM   19  C1  UNL     1      28.318   1.654  53.218  1.00  0.00     0.124 A 
HETATM   20  F1  UNL     1      28.816   2.922  53.438  1.00  0.00    -0.205 F 
HETATM   21  C2  UNL     1      28.982   0.748  54.002  1.00  0.00     0.043 A 
HETATM   22  C3  UNL     1      28.633  -0.597  53.928  1.00  0.00     0.003 A 
HETATM   23  C4  UNL     1      27.614  -0.944  53.046  1.00  0.00     0.001 A 
HETATM   24  C5  UNL     1      26.965  -0.004  52.268  1.00  0.00     0.012 A 
ENDBRANCH  17  18
ENDBRANCH  15  17
ENDBRANCH   1  15
TORSDOF 3
ENDMDL
MODEL 2
REMARK VINA RESULT:      -8.3      2.874      5.450
REMARK  3 active torsions:
REMARK  status: ('A' for Active; 'I' for Inactive)
REMARK    1  A    between atoms: C6_7  and  C7_8 
REMARK    2  A    between atoms: C7_8  and  N1_9 
REMARK    3  A    between atoms: N1_9  and  C8_10 
ROOT
HETATM    1  C8  UNL     1      24.028   2.592  52.730  1.00  0.00     0.156 A 
HETATM    2  N2  UNL     1      22.856   1.947  52.538  1.00  0.00    -0.222 NA
HETATM    3  C9  UNL     1      22.773   0.639  52.793  1.00  0.00     0.238 A 
HETATM    4  N3  UNL     1      23.839  -0.067  53.244  1.00  0.00    -0.215 NA
HETATM    5  C10 UNL     1      25.040   0.546  53.453  1.00  0.00     0.201 A 
HETATM    6  C11 UNL     1      25.167   1.922  53.194  1.00  0.00     0.129 A 
HETATM    7  N4  UNL     1      26.427   2.554  53.414  1.00  0.00    -0.369 N 
HETATM    8  C12 UNL     1      27.522   1.627  53.242  1.00  0.00     0.162 A 
HETATM    9  C13 UNL     1      28.847   2.164  53.590  1.00  0.00     0.005 A 
HETATM   10  C14 UNL     1      29.395   1.409  54.539  1.00  0.00     0.001 A 
HETATM   11  C15 UNL     1      28.467   0.310  54.894  1.00  0.00     0.035 A 
HETATM   12  C16 UNL     1      27.392   0.451  54.136  1.00  0.00     0.082 A 
HETATM   13  O1  UNL     1      26.161  -0.173  53.922  1.00  0.00    -0.292 OA
HETATM   14  H9  UNL     1      26.379   3.566  53.661  1.00  0.00     0.161 HD
ENDROOT
BRANCH   1  15
HETATM   15  N1  UNL     1      24.140   3.986  52.460  1.00  0.00    -0.368 N 
HETATM   16  H7  UNL     1      24.403   4.680  53.179  1.00  0.00     0.161 HD
BRANCH  15  17
HETATM   17  C7  UNL     1      23.883   4.445  51.135  1.00  0.00     0.163 C 
BRANCH  17  18
HETATM   18  C6  UNL     1      25.086   4.627  50.293  1.00  0.00    -0.002 A 
HETATM   19  C1  UNL     1      25.193   5.951  49.882  1.00  0.00     0.124 A 
HETATM   20  F1  UNL     1      24.319   6.973  50.191  1.00  0.00    -0.205 F 
HETATM   21  C2  UNL     1      26.205   6.423  49.089  1.00  0.00     0.043 A 
HETATM   22  C3  UNL     1      27.196   5.547  48.660  1.00  0.00     0.003 A 
HETATM   23  C4  UNL     1      27.095   4.221  49.068  1.00  0.00     0.001 A 
HETATM   24  C5  UNL     1      26.059   3.776  49.867  1.00  0.00     0.012 A 
ENDBRANCH  17  18
ENDBRANCH  15  17
ENDBRANCH   1  15
TORSDOF 3
ENDMDL
MODEL 3
REMARK VINA RESULT:      -8.3      2.455      3.913
REMARK  3 active torsions:
REMARK  status: ('A' for Active; 'I' for Inactive)
REMARK    1  A    between atoms: C6_7  and  C7_8 
REMARK    2  A    between atoms: C7_8  and  N1_9 
REMARK    3  A    between atoms: N1_9  and  C8_10 
ROOT
HETATM    1  C8  UNL     1      24.127  -0.188  53.844  1.00  0.00     0.156 A 
HETATM    2  N2  UNL     1      24.531  -0.911  54.910  1.00  0.00    -0.222 NA
HETATM    3  C9  UNL     1      23.630  -1.584  55.632  1.00  0.00     0.238 A 
HETATM    4  N3  UNL     1      22.311  -1.562  55.322  1.00  0.00    -0.215 NA
HETATM    5  C10 UNL     1      21.861  -0.844  54.252  1.00  0.00     0.201 A 
HETATM    6  C11 UNL     1      22.778  -0.123  53.469  1.00  0.00     0.129 A 
HETATM    7  N4  UNL     1      22.298   0.626  52.353  1.00  0.00    -0.369 N 
HETATM    8  C12 UNL     1      20.937   1.064  52.556  1.00  0.00     0.162 A 
HETATM    9  C13 UNL     1      20.318   1.721  51.393  1.00  0.00     0.005 A 
HETATM   10  C14 UNL     1      19.219   1.058  51.043  1.00  0.00     0.001 A 
HETATM   11  C15 UNL     1      19.026  -0.094  51.954  1.00  0.00     0.035 A 
HETATM   12  C16 UNL     1      20.026  -0.076  52.819  1.00  0.00     0.082 A 
HETATM   13  O1  UNL     1      20.490  -0.809  53.913  1.00  0.00    -0.292 OA
HETATM   14  H9  UNL     1      22.980   0.746  51.573  1.00  0.00     0.161 HD
ENDROOT
BRANCH   1  15
HETATM   15  N1  UNL     1      25.070   0.541  53.063  1.00  0.00    -0.368 N 
HETATM   16  H7  UNL     1      25.117   1.573  53.054  1.00  0.00     0.161 HD
BRANCH  15  17
HETATM   17  C7  UNL     1      25.994  -0.189  52.259  1.00  0.00     0.163 C 
BRANCH  17  18
HETATM   18  C6  UNL     1      27.370  -0.262  52.800  1.00  0.00    -0.002 A 
HETATM   19  C1  UNL     1      27.818  -1.578  52.806  1.00  0.00     0.124 A 
HETATM   20  F1  UNL     1      27.107  -2.683  52.382  1.00  0.00    -0.205 F 
HETATM   21  C2  UNL     1      29.055  -1.960  53.253  1.00  0.00     0.043 A 
HETATM   22  C3  UNL     1      29.932  -0.992  53.732  1.00  0.00     0.003 A 
HETATM   23  C4  UNL     1      29.490   0.327  53.728  1.00  0.00     0.001 A 
HETATM   24  C5  UNL     1      28.234   0.679  53.270  1.00  0.00     0.012 A 
ENDBRANCH  17  18
ENDBRANCH  15  17
ENDBRANCH   1  15
TORSDOF 3
ENDMDL
MODEL 4
REMARK VINA RESULT:      -8.1      3.242      5.140
REMARK  3 active torsions:
REMARK  status: ('A' for Active; 'I' for Inactive)
REMARK    1  A    between atoms: C6_7  and  C7_8 
REMARK    2  A    between atoms: C7_8  and  N1_9 
REMARK    3  A    between atoms: N1_9  and  C8_10 
ROOT
HETATM    1  C8  UNL     1      26.599   2.445  51.952  1.00  0.00     0.156 A 
HETATM    2  N2  UNL     1      27.880   2.290  52.349  1.00  0.00    -0.222 NA
HETATM    3  C9  UNL     1      28.200   1.284  53.168  1.00  0.00     0.238 A 
HETATM    4  N3  UNL     1      27.269   0.407  53.615  1.00  0.00    -0.215 NA
HETATM    5  C10 UNL     1      25.964   0.527  53.236  1.00  0.00     0.201 A 
HETATM    6  C11 UNL     1      25.588   1.573  52.376  1.00  0.00     0.129 A 
HETATM    7  N4  UNL     1      24.220   1.691  51.987  1.00  0.00    -0.369 N 
HETATM    8  C12 UNL     1      23.334   1.159  52.996  1.00  0.00     0.162 A 
HETATM    9  C13 UNL     1      21.914   1.114  52.611  1.00  0.00     0.005 A 
HETATM   10  C14 UNL     1      21.475  -0.140  52.689  1.00  0.00     0.001 A 
HETATM   11  C15 UNL     1      22.578  -1.024  53.134  1.00  0.00     0.035 A 
HETATM   12  C16 UNL     1      23.642  -0.258  53.306  1.00  0.00     0.082 A 
HETATM   13  O1  UNL     1      24.979  -0.378  53.691  1.00  0.00    -0.292 OA
HETATM   14  H9  UNL     1      24.061   2.132  51.055  1.00  0.00     0.161 HD
ENDROOT
BRANCH   1  15
HETATM   15  N1  UNL     1      26.234   3.512  51.082  1.00  0.00    -0.368 N 
HETATM   16  H7  UNL     1      25.767   4.373  51.410  1.00  0.00     0.161 HD
BRANCH  15  17
HETATM   17  C7  UNL     1      26.533   3.389  49.693  1.00  0.00     0.163 C 
BRANCH  17  18
HETATM   18  C6  UNL     1      26.996   4.635  49.041  1.00  0.00    -0.002 A 
HETATM   19  C1  UNL     1      25.940   5.528  48.898  1.00  0.00     0.124 A 
HETATM   20  F1  UNL     1      24.634   5.315  49.290  1.00  0.00    -0.205 F 
HETATM   21  C2  UNL     1      26.062   6.767  48.327  1.00  0.00     0.043 A 
HETATM   22  C3  UNL     1      27.305   7.179  47.858  1.00  0.00     0.003 A 
HETATM   23  C4  UNL     1      28.366   6.290  47.998  1.00  0.00     0.001 A 
HETATM   24  C5  UNL     1      28.209   5.046  48.579  1.00  0.00     0.012 A 
ENDBRANCH  17  18
ENDBRANCH  15  17
ENDBRANCH   1  15
TORSDOF 3
ENDMDL
MODEL 5
REMARK VINA RESULT:      -8.0      2.005      4.030
REMARK  3 active torsions:
REMARK  status: ('A' for Active; 'I' for Inactive)
REMARK    1  A    between atoms: C6_7  and  C7_8 
REMARK    2  A    between atoms: C7_8  and  N1_9 
REMARK    3  A    between atoms: N1_9  and  C8_10 
ROOT
HETATM    1  C8  UNL     1      23.403  -0.152  53.655  1.00  0.00     0.156 A 
HETATM    2  N2  UNL     1      22.748  -0.830  54.623  1.00  0.00    -0.222 NA
HETATM    3  C9  UNL     1      21.447  -1.096  54.478  1.00  0.00     0.238 A 
HETATM    4  N3  UNL     1      20.759  -0.704  53.378  1.00  0.00    -0.215 NA
HETATM    5  C10 UNL     1      21.384  -0.019  52.376  1.00  0.00     0.201 A 
HETATM    6  C11 UNL     1      22.752   0.282  52.493  1.00  0.00     0.129 A 
HETATM    7  N4  UNL     1      23.395   1.000  51.442  1.00  0.00    -0.369 N 
HETATM    8  C12 UNL     1      22.468   1.860  50.744  1.00  0.00     0.162 A 
HETATM    9  C13 UNL     1      23.020   2.529  49.555  1.00  0.00     0.005 A 
HETATM   10  C14 UNL     1      22.296   2.202  48.487  1.00  0.00     0.001 A 
HETATM   11  C15 UNL     1      21.204   1.287  48.892  1.00  0.00     0.035 A 
HETATM   12  C16 UNL     1      21.319   1.100  50.196  1.00  0.00     0.082 A 
HETATM   13  O1  UNL     1      20.683   0.398  51.222  1.00  0.00    -0.292 OA
HETATM   14  H9  UNL     1      24.414   0.806  51.331  1.00  0.00     0.161 HD
ENDROOT
BRANCH   1  15
HETATM   15  N1  UNL     1      24.789   0.146  53.791  1.00  0.00    -0.368 N 
HETATM   16  H7  UNL     1      25.140   1.067  54.103  1.00  0.00     0.161 HD
BRANCH  15  17
HETATM   17  C7  UNL     1      25.737  -0.874  53.486  1.00  0.00     0.163 C 
BRANCH  17  18
HETATM   18  C6  UNL     1      27.155  -0.466  53.610  1.00  0.00    -0.002 A 
HETATM   19  C1  UNL     1      27.992  -1.494  53.191  1.00  0.00     0.124 A 
HETATM   20  F1  UNL     1      27.594  -2.731  52.726  1.00  0.00    -0.205 F 
HETATM   21  C2  UNL     1      29.359  -1.412  53.192  1.00  0.00     0.043 A 
HETATM   22  C3  UNL     1      29.968  -0.240  53.632  1.00  0.00     0.003 A 
HETATM   23  C4  UNL     1      29.135   0.792  54.052  1.00  0.00     0.001 A 
HETATM   24  C5  UNL     1      27.758   0.676  54.039  1.00  0.00     0.012 A 
ENDBRANCH  17  18
ENDBRANCH  15  17
ENDBRANCH   1  15
TORSDOF 3
ENDMDL
MODEL 6
REMARK VINA RESULT:      -7.8      2.256      4.791
REMARK  3 active torsions:
REMARK  status: ('A' for Active; 'I' for Inactive)
REMARK    1  A    between atoms: C6_7  and  C7_8 
REMARK    2  A    between atoms: C7_8  and  N1_9 
REMARK    3  A    between atoms: N1_9  and  C8_10 
ROOT
HETATM    1  C8  UNL     1      26.856   0.687  52.677  1.00  0.00     0.156 A 
HETATM    2  N2  UNL     1      28.090   0.686  53.225  1.00  0.00    -0.222 NA
HETATM    3  C9  UNL     1      28.275   0.147  54.433  1.00  0.00     0.238 A 
HETATM    4  N3  UNL     1      27.253  -0.405  55.130  1.00  0.00    -0.215 NA
HETATM    5  C10 UNL     1      25.991  -0.426  54.612  1.00  0.00     0.201 A 
HETATM    6  C11 UNL     1      25.756   0.132  53.344  1.00  0.00     0.129 A 
HETATM    7  N4  UNL     1      24.432   0.107  52.811  1.00  0.00    -0.369 N 
HETATM    8  C12 UNL     1      23.439   0.115  53.859  1.00  0.00     0.162 A 
HETATM    9  C13 UNL     1      22.051  -0.054  53.398  1.00  0.00     0.005 A 
HETATM   10  C14 UNL     1      21.517  -1.123  53.983  1.00  0.00     0.001 A 
HETATM   11  C15 UNL     1      22.518  -1.746  54.880  1.00  0.00     0.035 A 
HETATM   12  C16 UNL     1      23.619  -1.020  54.796  1.00  0.00     0.082 A 
HETATM   13  O1  UNL     1      24.912  -0.997  55.324  1.00  0.00    -0.292 OA
HETATM   14  H9  UNL     1      24.374   0.086  51.769  1.00  0.00     0.161 HD
ENDROOT
BRANCH   1  15
HETATM   15  N1  UNL     1      26.634   1.260  51.392  1.00  0.00    -0.368 N 
HETATM   16  H7  UNL     1      26.573   0.698  50.527  1.00  0.00     0.161 HD
BRANCH  15  17
HETATM   17  C7  UNL     1      26.487   2.675  51.295  1.00  0.00     0.163 C 
BRANCH  17  18
HETATM   18  C6  UNL     1      25.180   3.132  50.769  1.00  0.00    -0.002 A 
HETATM   19  C1  UNL     1      24.314   3.426  51.816  1.00  0.00     0.124 A 
HETATM   20  F1  UNL     1      24.596   3.315  53.163  1.00  0.00    -0.205 F 
HETATM   21  C2  UNL     1      23.031   3.871  51.641  1.00  0.00     0.043 A 
HETATM   22  C3  UNL     1      22.544   4.048  50.350  1.00  0.00     0.003 A 
HETATM   23  C4  UNL     1      23.406   3.755  49.298  1.00  0.00     0.001 A 
HETATM   24  C5  UNL     1      24.696   3.306  49.509  1.00  0.00     0.012 A 
ENDBRANCH  17  18
ENDBRANCH  15  17
ENDBRANCH   1  15
TORSDOF 3
ENDMDL
MODEL 7
REMARK VINA RESULT:      -7.8      3.348      5.522
REMARK  3 active torsions:
REMARK  status: ('A' for Active; 'I' for Inactive)
REMARK    1  A    between atoms: C6_7  and  C7_8 
REMARK    2  A    between atoms: C7_8  and  N1_9 
REMARK    3  A    between atoms: N1_9  and  C8_10 
ROOT
HETATM    1  C8  UNL     1      24.933   3.290  51.147  1.00  0.00     0.156 A 
HETATM    2  N2  UNL     1      23.683   3.091  50.677  1.00  0.00    -0.222 NA
HETATM    3  C9  UNL     1      23.007   1.999  51.044  1.00  0.00     0.238 A 
HETATM    4  N3  UNL     1      23.542   1.079  51.883  1.00  0.00    -0.215 NA
HETATM    5  C10 UNL     1      24.802   1.243  52.381  1.00  0.00     0.201 A 
HETATM    6  C11 UNL     1      25.546   2.379  52.017  1.00  0.00     0.129 A 
HETATM    7  N4  UNL     1      26.863   2.541  52.542  1.00  0.00    -0.369 N 
HETATM    8  C12 UNL     1      27.479   1.266  52.828  1.00  0.00     0.162 A 
HETATM    9  C13 UNL     1      28.784   1.349  53.505  1.00  0.00     0.005 A 
HETATM   10  C14 UNL     1      28.726   0.688  54.658  1.00  0.00     0.001 A 
HETATM   11  C15 UNL     1      27.370   0.116  54.833  1.00  0.00     0.035 A 
HETATM   12  C16 UNL     1      26.665   0.460  53.768  1.00  0.00     0.082 A 
HETATM   13  O1  UNL     1      25.376   0.295  53.256  1.00  0.00    -0.292 OA
HETATM   14  H9  UNL     1      27.181   3.529  52.643  1.00  0.00     0.161 HD
ENDROOT
BRANCH   1  15
HETATM   15  N1  UNL     1      25.675   4.445  50.766  1.00  0.00    -0.368 N 
HETATM   16  H7  UNL     1      26.345   4.918  51.394  1.00  0.00     0.161 HD
BRANCH  15  17
HETATM   17  C7  UNL     1      25.488   4.971  49.453  1.00  0.00     0.163 C 
BRANCH  17  18
HETATM   18  C6  UNL     1      26.549   5.894  48.993  1.00  0.00    -0.002 A 
HETATM   19  C1  UNL     1      27.659   5.178  48.561  1.00  0.00     0.124 A 
HETATM   20  F1  UNL     1      27.790   3.804  48.553  1.00  0.00    -0.205 F 
HETATM   21  C2  UNL     1      28.801   5.761  48.080  1.00  0.00     0.043 A 
HETATM   22  C3  UNL     1      28.877   7.148  48.008  1.00  0.00     0.003 A 
HETATM   23  C4  UNL     1      27.769   7.871  48.439  1.00  0.00     0.001 A 
HETATM   24  C5  UNL     1      26.631   7.251  48.921  1.00  0.00     0.012 A 
ENDBRANCH  17  18
ENDBRANCH  15  17
ENDBRANCH   1  15
TORSDOF 3
ENDMDL
MODEL 8
REMARK VINA RESULT:      -7.6      2.313      5.556
REMARK  3 active torsions:
REMARK  status: ('A' for Active; 'I' for Inactive)
REMARK    1  A    between atoms: C6_7  and  C7_8 
REMARK    2  A    between atoms: C7_8  and  N1_9 
REMARK    3  A    between atoms: N1_9  and  C8_10 
ROOT
HETATM    1  C8  UNL     1      22.235  -0.425  53.005  1.00  0.00     0.156 A 
HETATM    2  N2  UNL     1      21.246  -0.986  53.734  1.00  0.00    -0.222 NA
HETATM    3  C9  UNL     1      21.528  -1.524  54.924  1.00  0.00     0.238 A 
HETATM    4  N3  UNL     1      22.787  -1.524  55.425  1.00  0.00    -0.215 NA
HETATM    5  C10 UNL     1      23.814  -0.966  54.721  1.00  0.00     0.201 A 
HETATM    6  C11 UNL     1      23.558  -0.390  53.464  1.00  0.00     0.129 A 
HETATM    7  N4  UNL     1      24.639   0.189  52.735  1.00  0.00    -0.369 N 
HETATM    8  C12 UNL     1      25.895  -0.447  53.056  1.00  0.00     0.162 A 
HETATM    9  C13 UNL     1      27.080   0.185  52.453  1.00  0.00     0.005 A 
HETATM   10  C14 UNL     1      27.923   0.551  53.415  1.00  0.00     0.001 A 
HETATM   11  C15 UNL     1      27.356   0.188  54.735  1.00  0.00     0.035 A 
HETATM   12  C16 UNL     1      26.187  -0.386  54.508  1.00  0.00     0.082 A 
HETATM   13  O1  UNL     1      25.133  -0.956  55.227  1.00  0.00    -0.292 OA
HETATM   14  H9  UNL     1      24.374   0.967  52.093  1.00  0.00     0.161 HD
ENDROOT
BRANCH   1  15
HETATM   15  N1  UNL     1      21.958   0.152  51.732  1.00  0.00    -0.368 N 
HETATM   16  H7  UNL     1      21.977  -0.389  50.852  1.00  0.00     0.161 HD
BRANCH  15  17
HETATM   17  C7  UNL     1      21.636   1.539  51.670  1.00  0.00     0.163 C 
BRANCH  17  18
HETATM   18  C6  UNL     1      22.484   2.336  50.754  1.00  0.00    -0.002 A 
HETATM   19  C1  UNL     1      23.341   3.156  51.480  1.00  0.00     0.124 A 
HETATM   20  F1  UNL     1      23.415   3.244  52.855  1.00  0.00    -0.205 F 
HETATM   21  C2  UNL     1      24.244   4.011  50.906  1.00  0.00     0.043 A 
HETATM   22  C3  UNL     1      24.328   4.080  49.519  1.00  0.00     0.003 A 
HETATM   23  C4  UNL     1      23.472   3.262  48.788  1.00  0.00     0.001 A 
HETATM   24  C5  UNL     1      22.571   2.410  49.398  1.00  0.00     0.012 A 
ENDBRANCH  17  18
ENDBRANCH  15  17
ENDBRANCH   1  15
TORSDOF 3
ENDMDL
MODEL 9
REMARK VINA RESULT:      -7.5      2.789      5.637
REMARK  3 active torsions:
REMARK  status: ('A' for Active; 'I' for Inactive)
REMARK    1  A    between atoms: C6_7  and  C7_8 
REMARK    2  A    between atoms: C7_8  and  N1_9 
REMARK    3  A    between atoms: N1_9  and  C8_10 
ROOT
HETATM    1  C8  UNL     1      23.993   2.781  51.222  1.00  0.00     0.156 A 
HETATM    2  N2  UNL     1      23.983   3.590  50.141  1.00  0.00    -0.222 NA
HETATM    3  C9  UNL     1      25.139   4.007  49.617  1.00  0.00     0.238 A 
HETATM    4  N3  UNL     1      26.332   3.636  50.142  1.00  0.00    -0.215 NA
HETATM    5  C10 UNL     1      26.387   2.818  51.233  1.00  0.00     0.201 A 
HETATM    6  C11 UNL     1      25.192   2.361  51.813  1.00  0.00     0.129 A 
HETATM    7  N4  UNL     1      25.259   1.507  52.955  1.00  0.00    -0.369 N 
HETATM    8  C12 UNL     1      26.455   1.750  53.728  1.00  0.00     0.162 A 
HETATM    9  C13 UNL     1      26.671   0.814  54.843  1.00  0.00     0.005 A 
HETATM   10  C14 UNL     1      27.845   0.206  54.688  1.00  0.00     0.001 A 
HETATM   11  C15 UNL     1      28.496   0.696  53.452  1.00  0.00     0.035 A 
HETATM   12  C16 UNL     1      27.681   1.585  52.911  1.00  0.00     0.082 A 
HETATM   13  O1  UNL     1      27.621   2.422  51.794  1.00  0.00    -0.292 OA
HETATM   14  H9  UNL     1      24.458   0.848  53.064  1.00  0.00     0.161 HD
ENDROOT
BRANCH   1  15
HETATM   15  N1  UNL     1      22.772   2.328  51.800  1.00  0.00    -0.368 N 
HETATM   16  H7  UNL     1      22.296   2.823  52.572  1.00  0.00     0.161 HD
BRANCH  15  17
HETATM   17  C7  UNL     1      22.178   1.139  51.287  1.00  0.00     0.163 C 
BRANCH  17  18
HETATM   18  C6  UNL     1      21.775   0.149  52.312  1.00  0.00    -0.002 A 
HETATM   19  C1  UNL     1      20.403   0.207  52.528  1.00  0.00     0.124 A 
HETATM   20  F1  UNL     1      19.514   1.055  51.899  1.00  0.00    -0.205 F 
HETATM   21  C2  UNL     1      19.739  -0.589  53.422  1.00  0.00     0.043 A 
HETATM   22  C3  UNL     1      20.456  -1.518  54.169  1.00  0.00     0.003 A 
HETATM   23  C4  UNL     1      21.830  -1.580  53.957  1.00  0.00     0.001 A 
HETATM   24  C5  UNL     1      22.471  -0.761  53.047  1.00  0.00     0.012 A 
ENDBRANCH  17  18
ENDBRANCH  15  17
ENDBRANCH   1  15
TORSDOF 3
ENDMDL
