MODEL 1
REMARK VINA RESULT:      -8.1      0.000      0.000
REMARK  2 active torsions:
REMARK  status: ('A' for Active; 'I' for Inactive)
REMARK    1  A    between atoms: C2_2  and  C3_3 
REMARK       I    between atoms: C3_3  and  N1_5 
REMARK    2  A    between atoms: N1_5  and  C4_6 
ROOT
HETATM    1  C4  UNL     1      26.574   1.591  51.906  1.00  0.00     0.014 C 
HETATM    2  C5  UNL     1      26.713   2.416  50.873  1.00  0.00     0.027 C 
HETATM    3  C6  UNL     1      25.945   3.200  49.952  1.00  0.00     0.026 C 
HETATM    4  C7  UNL     1      24.645   3.420  49.836  1.00  0.00     0.135 C 
HETATM    5  O2  UNL     1      23.606   2.980  50.560  1.00  0.00    -0.359 OA
HETATM    6  C8  UNL     1      22.665   2.004  50.518  1.00  0.00     0.231 C 
HETATM    7  C9  UNL     1      22.073   1.665  51.879  1.00  0.00     0.159 A 
HETATM    8  N2  UNL     1      21.065   2.696  52.116  1.00  0.00    -0.266 NA
HETATM    9  C10 UNL     1      19.819   2.557  52.172  1.00  0.00     0.113 A 
HETATM   10  C11 UNL     1      19.116   1.295  52.007  1.00  0.00     0.016 A 
HETATM   11  C12 UNL     1      19.965   0.307  51.789  1.00  0.00    -0.005 A 
HETATM   12  C13 UNL     1      21.437   0.298  51.694  1.00  0.00     0.133 A 
HETATM   13 BR1  UNL     1      22.088  -0.855  53.135  1.00  0.00    -0.082 Br
HETATM   14  N3  UNL     1      22.962   1.603  52.965  1.00  0.00    -0.392 N 
HETATM   15  C14 UNL     1      24.298   2.034  52.896  1.00  0.00     0.122 C 
HETATM   16  C15 UNL     1      25.171   1.183  52.045  1.00  0.00     0.076 C 
HETATM   17  H14 UNL     1      22.457   1.943  53.820  1.00  0.00     0.155 HD
ENDROOT
BRANCH   1  18
HETATM   18  N1  UNL     1      27.583   0.929  52.694  1.00  0.00    -0.327 N 
HETATM   19  C3  UNL     1      28.394   1.516  53.667  1.00  0.00     0.244 C 
HETATM   20  O1  UNL     1      28.464   2.681  54.086  1.00  0.00    -0.268 OA
HETATM   21  H4  UNL     1      27.643  -0.086  52.447  1.00  0.00     0.169 HD
BRANCH  19  22
HETATM   22  C2  UNL     1      29.332   0.649  54.332  1.00  0.00     0.064 C 
HETATM   23  C1  UNL     1      29.684  -0.452  53.693  1.00  0.00     0.017 C 
ENDBRANCH  19  22
ENDBRANCH   1  18
TORSDOF 2
ENDMDL
MODEL 2
REMARK VINA RESULT:      -7.2      2.655      3.595
REMARK  2 active torsions:
REMARK  status: ('A' for Active; 'I' for Inactive)
REMARK    1  A    between atoms: C2_2  and  C3_3 
REMARK       I    between atoms: C3_3  and  N1_5 
REMARK    2  A    between atoms: N1_5  and  C4_6 
ROOT
HETATM    1  C4  UNL     1      25.072   0.445  53.592  1.00  0.00     0.014 C 
HETATM    2  C5  UNL     1      24.221  -0.512  53.950  1.00  0.00     0.027 C 
HETATM    3  C6  UNL     1      22.854  -0.911  53.799  1.00  0.00     0.026 C 
HETATM    4  C7  UNL     1      21.844  -0.394  53.119  1.00  0.00     0.135 C 
HETATM    5  O2  UNL     1      21.772   0.686  52.326  1.00  0.00    -0.359 OA
HETATM    6  C8  UNL     1      21.388   1.985  52.394  1.00  0.00     0.231 C 
HETATM    7  C9  UNL     1      22.025   2.869  51.330  1.00  0.00     0.159 A 
HETATM    8  N2  UNL     1      21.226   2.643  50.128  1.00  0.00    -0.266 NA
HETATM    9  C10 UNL     1      20.471   3.454  49.540  1.00  0.00     0.113 A 
HETATM   10  C11 UNL     1      20.242   4.828  49.960  1.00  0.00     0.016 A 
HETATM   11  C12 UNL     1      20.936   5.111  51.047  1.00  0.00    -0.005 A 
HETATM   12  C13 UNL     1      21.857   4.285  51.852  1.00  0.00     0.133 A 
HETATM   13 BR1  UNL     1      23.608   5.154  51.774  1.00  0.00    -0.082 Br
HETATM   14  N3  UNL     1      23.386   2.652  51.051  1.00  0.00    -0.392 N 
HETATM   15  C14 UNL     1      24.110   1.551  51.541  1.00  0.00     0.122 C 
HETATM   16  C15 UNL     1      24.345   1.579  53.008  1.00  0.00     0.076 C 
HETATM   17  H14 UNL     1      23.542   2.834  50.029  1.00  0.00     0.155 HD
ENDROOT
BRANCH   1  18
HETATM   18  N1  UNL     1      26.475   0.586  53.891  1.00  0.00    -0.327 N 
HETATM   19  C3  UNL     1      27.462  -0.387  53.718  1.00  0.00     0.244 C 
HETATM   20  O1  UNL     1      27.404  -1.550  53.293  1.00  0.00    -0.268 OA
HETATM   21  H4  UNL     1      26.682   1.539  54.269  1.00  0.00     0.169 HD
BRANCH  19  22
HETATM   22  C2  UNL     1      28.803  -0.014  54.084  1.00  0.00     0.064 C 
HETATM   23  C1  UNL     1      29.782  -0.769  53.619  1.00  0.00     0.017 C 
ENDBRANCH  19  22
ENDBRANCH   1  18
TORSDOF 2
ENDMDL
MODEL 3
REMARK VINA RESULT:      -7.2      3.324      4.227
REMARK  2 active torsions:
REMARK  status: ('A' for Active; 'I' for Inactive)
REMARK    1  A    between atoms: C2_2  and  C3_3 
REMARK       I    between atoms: C3_3  and  N1_5 
REMARK    2  A    between atoms: N1_5  and  C4_6 
ROOT
HETATM    1  C4  UNL     1      23.829   3.441  49.225  1.00  0.00     0.014 C 
HETATM    2  C5  UNL     1      22.814   3.209  48.401  1.00  0.00     0.027 C 
HETATM    3  C6  UNL     1      21.561   2.517  48.331  1.00  0.00     0.026 C 
HETATM    4  C7  UNL     1      20.887   1.801  49.216  1.00  0.00     0.135 C 
HETATM    5  O2  UNL     1      21.157   1.493  50.494  1.00  0.00    -0.359 OA
HETATM    6  C8  UNL     1      21.684   0.471  51.213  1.00  0.00     0.231 C 
HETATM    7  C9  UNL     1      22.223   0.895  52.573  1.00  0.00     0.159 A 
HETATM    8  N2  UNL     1      21.047   0.964  53.438  1.00  0.00    -0.266 NA
HETATM    9  C10 UNL     1      20.763   0.228  54.413  1.00  0.00     0.113 A 
HETATM   10  C11 UNL     1      21.585  -0.876  54.887  1.00  0.00     0.016 A 
HETATM   11  C12 UNL     1      22.674  -1.002  54.152  1.00  0.00    -0.005 A 
HETATM   12  C13 UNL     1      23.153  -0.232  52.988  1.00  0.00     0.133 A 
HETATM   13 BR1  UNL     1      24.860   0.572  53.507  1.00  0.00    -0.082 Br
HETATM   14  N3  UNL     1      22.933   2.106  52.629  1.00  0.00    -0.392 N 
HETATM   15  C14 UNL     1      22.986   3.022  51.564  1.00  0.00     0.122 C 
HETATM   16  C15 UNL     1      23.757   2.545  50.386  1.00  0.00     0.076 C 
HETATM   17  H14 UNL     1      22.739   2.556  53.558  1.00  0.00     0.155 HD
ENDROOT
BRANCH   1  18
HETATM   18  N1  UNL     1      25.013   4.238  49.023  1.00  0.00    -0.327 N 
HETATM   19  C3  UNL     1      26.329   3.851  49.287  1.00  0.00     0.244 C 
HETATM   20  O1  UNL     1      26.802   2.796  49.735  1.00  0.00    -0.268 OA
HETATM   21  H4  UNL     1      24.768   5.179  48.638  1.00  0.00     0.169 HD
BRANCH  19  22
HETATM   22  C2  UNL     1      27.354   4.820  48.998  1.00  0.00     0.064 C 
HETATM   23  C1  UNL     1      26.954   6.015  48.602  1.00  0.00     0.017 C 
ENDBRANCH  19  22
ENDBRANCH   1  18
TORSDOF 2
ENDMDL
MODEL 4
REMARK VINA RESULT:      -6.9      3.087      5.351
REMARK  2 active torsions:
REMARK  status: ('A' for Active; 'I' for Inactive)
REMARK    1  A    between atoms: C2_2  and  C3_3 
REMARK       I    between atoms: C3_3  and  N1_5 
REMARK    2  A    between atoms: N1_5  and  C4_6 
ROOT
HETATM    1  C4  UNL     1      23.984   0.673  52.569  1.00  0.00     0.014 C 
HETATM    2  C5  UNL     1      25.285   0.399  52.570  1.00  0.00     0.027 C 
HETATM    3  C6  UNL     1      26.543   0.925  52.131  1.00  0.00     0.026 C 
HETATM    4  C7  UNL     1      26.873   2.049  51.515  1.00  0.00     0.135 C 
HETATM    5  O2  UNL     1      26.126   3.085  51.104  1.00  0.00    -0.359 OA
HETATM    6  C8  UNL     1      25.537   3.539  49.970  1.00  0.00     0.231 C 
HETATM    7  C9  UNL     1      24.379   4.495  50.222  1.00  0.00     0.159 A 
HETATM    8  N2  UNL     1      25.010   5.789  50.472  1.00  0.00    -0.266 NA
HETATM    9  C10 UNL     1      24.962   6.821  49.759  1.00  0.00     0.113 A 
HETATM   10  C11 UNL     1      24.241   6.927  48.501  1.00  0.00     0.016 A 
HETATM   11  C12 UNL     1      23.639   5.790  48.204  1.00  0.00    -0.005 A 
HETATM   12  C13 UNL     1      23.594   4.501  48.922  1.00  0.00     0.133 A 
HETATM   13 BR1  UNL     1      21.717   4.169  49.365  1.00  0.00    -0.082 Br
HETATM   14  N3  UNL     1      23.503   4.175  51.274  1.00  0.00    -0.392 N 
HETATM   15  C14 UNL     1      23.759   3.159  52.210  1.00  0.00     0.122 C 
HETATM   16  C15 UNL     1      23.699   1.783  51.651  1.00  0.00     0.076 C 
HETATM   17  H14 UNL     1      23.175   5.071  51.709  1.00  0.00     0.155 HD
ENDROOT
BRANCH   1  18
HETATM   18  N1  UNL     1      22.888  -0.071  53.136  1.00  0.00    -0.327 N 
HETATM   19  C3  UNL     1      22.927  -0.857  54.291  1.00  0.00     0.244 C 
HETATM   20  O1  UNL     1      23.847  -1.109  55.082  1.00  0.00    -0.268 OA
HETATM   21  H4  UNL     1      22.021   0.047  52.563  1.00  0.00     0.169 HD
BRANCH  19  22
HETATM   22  C2  UNL     1      21.699  -1.506  54.669  1.00  0.00     0.064 C 
HETATM   23  C1  UNL     1      20.608  -1.150  54.014  1.00  0.00     0.017 C 
ENDBRANCH  19  22
ENDBRANCH   1  18
TORSDOF 2
ENDMDL
MODEL 5
REMARK VINA RESULT:      -6.8      3.295      5.000
REMARK  2 active torsions:
REMARK  status: ('A' for Active; 'I' for Inactive)
REMARK    1  A    between atoms: C2_2  and  C3_3 
REMARK       I    between atoms: C3_3  and  N1_5 
REMARK    2  A    between atoms: N1_5  and  C4_6 
ROOT
HETATM    1  C4  UNL     1      24.896   5.403  49.903  1.00  0.00     0.014 C 
HETATM    2  C5  UNL     1      24.102   5.191  48.858  1.00  0.00     0.027 C 
HETATM    3  C6  UNL     1      23.069   4.314  48.394  1.00  0.00     0.026 C 
HETATM    4  C7  UNL     1      22.446   3.292  48.959  1.00  0.00     0.135 C 
HETATM    5  O2  UNL     1      22.575   2.740  50.174  1.00  0.00    -0.359 OA
HETATM    6  C8  UNL     1      23.203   1.692  50.764  1.00  0.00     0.231 C 
HETATM    7  C9  UNL     1      23.411   1.867  52.262  1.00  0.00     0.159 A 
HETATM    8  N2  UNL     1      22.130   1.503  52.863  1.00  0.00    -0.266 NA
HETATM    9  C10 UNL     1      21.872   0.513  53.590  1.00  0.00     0.113 A 
HETATM   10  C11 UNL     1      22.840  -0.498  53.987  1.00  0.00     0.016 A 
HETATM   11  C12 UNL     1      24.031  -0.237  53.481  1.00  0.00    -0.005 A 
HETATM   12  C13 UNL     1      24.497   0.868  52.620  1.00  0.00     0.133 A 
HETATM   13 BR1  UNL     1      25.871   1.828  53.631  1.00  0.00    -0.082 Br
HETATM   14  N3  UNL     1      23.807   3.140  52.708  1.00  0.00    -0.392 N 
HETATM   15  C14 UNL     1      23.814   4.279  51.884  1.00  0.00     0.122 C 
HETATM   16  C15 UNL     1      24.849   4.255  50.818  1.00  0.00     0.076 C 
HETATM   17  H14 UNL     1      23.372   3.306  53.648  1.00  0.00     0.155 HD
ENDROOT
BRANCH   1  18
HETATM   18  N1  UNL     1      25.883   6.432  50.113  1.00  0.00    -0.327 N 
HETATM   19  C3  UNL     1      25.648   7.808  50.172  1.00  0.00     0.244 C 
HETATM   20  O1  UNL     1      24.604   8.468  50.066  1.00  0.00    -0.268 OA
HETATM   21  H4  UNL     1      26.837   6.017  50.222  1.00  0.00     0.169 HD
BRANCH  19  22
HETATM   22  C2  UNL     1      26.795   8.647  50.397  1.00  0.00     0.064 C 
HETATM   23  C1  UNL     1      27.663   8.753  49.407  1.00  0.00     0.017 C 
ENDBRANCH  19  22
ENDBRANCH   1  18
TORSDOF 2
ENDMDL
MODEL 6
REMARK VINA RESULT:      -6.6      2.205      6.615
REMARK  2 active torsions:
REMARK  status: ('A' for Active; 'I' for Inactive)
REMARK    1  A    between atoms: C2_2  and  C3_3 
REMARK       I    between atoms: C3_3  and  N1_5 
REMARK    2  A    between atoms: N1_5  and  C4_6 
ROOT
HETATM    1  C4  UNL     1      21.033   2.132  52.064  1.00  0.00     0.014 C 
HETATM    2  C5  UNL     1      21.007   3.459  52.129  1.00  0.00     0.027 C 
HETATM    3  C6  UNL     1      21.864   4.590  52.328  1.00  0.00     0.026 C 
HETATM    4  C7  UNL     1      23.171   4.698  52.505  1.00  0.00     0.135 C 
HETATM    5  O2  UNL     1      24.138   3.770  52.546  1.00  0.00    -0.359 OA
HETATM    6  C8  UNL     1      24.847   3.067  53.464  1.00  0.00     0.231 C 
HETATM    7  C9  UNL     1      25.439   1.773  52.921  1.00  0.00     0.159 A 
HETATM    8  N2  UNL     1      26.654   2.183  52.220  1.00  0.00    -0.266 NA
HETATM    9  C10 UNL     1      27.844   1.931  52.529  1.00  0.00     0.113 A 
HETATM   10  C11 UNL     1      28.254   1.153  53.688  1.00  0.00     0.016 A 
HETATM   11  C12 UNL     1      27.204   0.743  54.376  1.00  0.00    -0.005 A 
HETATM   12  C13 UNL     1      25.759   0.948  54.155  1.00  0.00     0.133 A 
HETATM   13 BR1  UNL     1      24.972  -0.826  53.898  1.00  0.00    -0.082 Br
HETATM   14  N3  UNL     1      24.626   1.008  52.067  1.00  0.00    -0.392 N 
HETATM   15  C14 UNL     1      23.409   1.471  51.538  1.00  0.00     0.122 C 
HETATM   16  C15 UNL     1      22.325   1.625  52.544  1.00  0.00     0.076 C 
HETATM   17  H14 UNL     1      25.244   0.548  51.354  1.00  0.00     0.155 HD
ENDROOT
BRANCH   1  18
HETATM   18  N1  UNL     1      19.959   1.203  51.817  1.00  0.00    -0.327 N 
HETATM   19  C3  UNL     1      19.518   0.196  52.679  1.00  0.00     0.244 C 
HETATM   20  O1  UNL     1      19.903  -0.147  53.807  1.00  0.00    -0.268 OA
HETATM   21  H4  UNL     1      19.527   1.373  50.880  1.00  0.00     0.169 HD
BRANCH  19  22
HETATM   22  C2  UNL     1      18.419  -0.610  52.217  1.00  0.00     0.064 C 
HETATM   23  C1  UNL     1      17.844  -0.245  51.085  1.00  0.00     0.017 C 
ENDBRANCH  19  22
ENDBRANCH   1  18
TORSDOF 2
ENDMDL
MODEL 7
REMARK VINA RESULT:      -6.6      1.765      2.216
REMARK  2 active torsions:
REMARK  status: ('A' for Active; 'I' for Inactive)
REMARK    1  A    between atoms: C2_2  and  C3_3 
REMARK       I    between atoms: C3_3  and  N1_5 
REMARK    2  A    between atoms: N1_5  and  C4_6 
ROOT
HETATM    1  C4  UNL     1      24.629   2.678  51.537  1.00  0.00     0.014 C 
HETATM    2  C5  UNL     1      24.695   3.084  50.273  1.00  0.00     0.027 C 
HETATM    3  C6  UNL     1      23.878   3.271  49.111  1.00  0.00     0.026 C 
HETATM    4  C7  UNL     1      22.582   3.107  48.896  1.00  0.00     0.135 C 
HETATM    5  O2  UNL     1      21.593   2.716  49.713  1.00  0.00    -0.359 OA
HETATM    6  C8  UNL     1      20.901   1.591  50.021  1.00  0.00     0.231 C 
HETATM    7  C9  UNL     1      20.253   1.629  51.399  1.00  0.00     0.159 A 
HETATM    8  N2  UNL     1      19.022   2.395  51.212  1.00  0.00    -0.266 NA
HETATM    9  C10 UNL     1      17.839   1.985  51.293  1.00  0.00     0.113 A 
HETATM   10  C11 UNL     1      17.455   0.616  51.600  1.00  0.00     0.016 A 
HETATM   11  C12 UNL     1      18.519  -0.143  51.784  1.00  0.00    -0.005 A 
HETATM   12  C13 UNL     1      19.959   0.176  51.728  1.00  0.00     0.133 A 
HETATM   13 BR1  UNL     1      20.686  -0.185  53.508  1.00  0.00    -0.082 Br
HETATM   14  N3  UNL     1      21.010   2.182  52.446  1.00  0.00    -0.392 N 
HETATM   15  C14 UNL     1      22.217   2.873  52.245  1.00  0.00     0.122 C 
HETATM   16  C15 UNL     1      23.344   2.016  51.793  1.00  0.00     0.076 C 
HETATM   17  H14 UNL     1      20.352   2.671  53.101  1.00  0.00     0.155 HD
ENDROOT
BRANCH   1  18
HETATM   18  N1  UNL     1      25.667   2.613  52.535  1.00  0.00    -0.327 N 
HETATM   19  C3  UNL     1      26.628   1.608  52.669  1.00  0.00     0.244 C 
HETATM   20  O1  UNL     1      26.834   0.576  52.015  1.00  0.00    -0.268 OA
HETATM   21  H4  UNL     1      25.619   3.438  53.177  1.00  0.00     0.169 HD
BRANCH  19  22
HETATM   22  C2  UNL     1      27.571   1.760  53.746  1.00  0.00     0.064 C 
HETATM   23  C1  UNL     1      28.642   2.494  53.504  1.00  0.00     0.017 C 
ENDBRANCH  19  22
ENDBRANCH   1  18
TORSDOF 2
ENDMDL
MODEL 8
REMARK VINA RESULT:      -6.3      3.259      4.158
REMARK  2 active torsions:
REMARK  status: ('A' for Active; 'I' for Inactive)
REMARK    1  A    between atoms: C2_2  and  C3_3 
REMARK       I    between atoms: C3_3  and  N1_5 
REMARK    2  A    between atoms: N1_5  and  C4_6 
ROOT
HETATM    1  C4  UNL     1      24.859   2.135  52.995  1.00  0.00     0.014 C 
HETATM    2  C5  UNL     1      23.927   1.237  53.297  1.00  0.00     0.027 C 
HETATM    3  C6  UNL     1      22.542   0.942  53.081  1.00  0.00     0.026 C 
HETATM    4  C7  UNL     1      21.603   1.543  52.368  1.00  0.00     0.135 C 
HETATM    5  O2  UNL     1      21.645   2.638  51.595  1.00  0.00    -0.359 OA
HETATM    6  C8  UNL     1      21.353   3.960  51.672  1.00  0.00     0.231 C 
HETATM    7  C9  UNL     1      22.099   4.812  50.653  1.00  0.00     0.159 A 
HETATM    8  N2  UNL     1      21.339   4.665  49.414  1.00  0.00    -0.266 NA
HETATM    9  C10 UNL     1      20.671   5.540  48.810  1.00  0.00     0.113 A 
HETATM   10  C11 UNL     1      20.524   6.919  49.248  1.00  0.00     0.016 A 
HETATM   11  C12 UNL     1      21.188   7.133  50.369  1.00  0.00    -0.005 A 
HETATM   12  C13 UNL     1      22.011   6.228  51.195  1.00  0.00     0.133 A 
HETATM   13 BR1  UNL     1      23.822   6.968  51.208  1.00  0.00    -0.082 Br
HETATM   14  N3  UNL     1      23.451   4.501  50.428  1.00  0.00    -0.392 N 
HETATM   15  C14 UNL     1      24.071   3.342  50.926  1.00  0.00     0.122 C 
HETATM   16  C15 UNL     1      24.243   3.329  52.403  1.00  0.00     0.076 C 
HETATM   17  H14 UNL     1      23.665   4.688  49.417  1.00  0.00     0.155 HD
ENDROOT
BRANCH   1  18
HETATM   18  N1  UNL     1      26.255   2.167  53.356  1.00  0.00    -0.327 N 
HETATM   19  C3  UNL     1      27.232   1.245  52.975  1.00  0.00     0.244 C 
HETATM   20  O1  UNL     1      27.170   0.223  52.277  1.00  0.00    -0.268 OA
HETATM   21  H4  UNL     1      26.464   2.995  53.960  1.00  0.00     0.169 HD
BRANCH  19  22
HETATM   22  C2  UNL     1      28.567   1.488  53.456  1.00  0.00     0.064 C 
HETATM   23  C1  UNL     1      28.987   0.737  54.459  1.00  0.00     0.017 C 
ENDBRANCH  19  22
ENDBRANCH   1  18
TORSDOF 2
ENDMDL
MODEL 9
REMARK VINA RESULT:      -6.3      2.463      6.930
REMARK  2 active torsions:
REMARK  status: ('A' for Active; 'I' for Inactive)
REMARK    1  A    between atoms: C2_2  and  C3_3 
REMARK       I    between atoms: C3_3  and  N1_5 
REMARK    2  A    between atoms: N1_5  and  C4_6 
ROOT
HETATM    1  C4  UNL     1      20.719   3.826  51.697  1.00  0.00     0.014 C 
HETATM    2  C5  UNL     1      21.383   4.976  51.666  1.00  0.00     0.027 C 
HETATM    3  C6  UNL     1      22.710   5.509  51.757  1.00  0.00     0.026 C 
HETATM    4  C7  UNL     1      23.894   4.933  51.889  1.00  0.00     0.135 C 
HETATM    5  O2  UNL     1      24.246   3.642  51.970  1.00  0.00    -0.359 OA
HETATM    6  C8  UNL     1      24.549   2.718  52.917  1.00  0.00     0.231 C 
HETATM    7  C9  UNL     1      24.356   1.281  52.453  1.00  0.00     0.159 A 
HETATM    8  N2  UNL     1      25.562   0.968  51.690  1.00  0.00    -0.266 NA
HETATM    9  C10 UNL     1      26.470   0.152  51.983  1.00  0.00     0.113 A 
HETATM   10  C11 UNL     1      26.491  -0.669  53.184  1.00  0.00     0.016 A 
HETATM   11  C12 UNL     1      25.425  -0.443  53.930  1.00  0.00    -0.005 A 
HETATM   12  C13 UNL     1      24.281   0.469  53.734  1.00  0.00     0.133 A 
HETATM   13 BR1  UNL     1      22.680  -0.652  53.630  1.00  0.00    -0.082 Br
HETATM   14  N3  UNL     1      23.214   1.006  51.681  1.00  0.00    -0.392 N 
HETATM   15  C14 UNL     1      22.379   2.006  51.154  1.00  0.00     0.122 C 
HETATM   16  C15 UNL     1      21.593   2.747  52.175  1.00  0.00     0.076 C 
HETATM   17  H14 UNL     1      23.462   0.260  50.986  1.00  0.00     0.155 HD
ENDROOT
BRANCH   1  18
HETATM   18  N1  UNL     1      19.307   3.576  51.549  1.00  0.00    -0.327 N 
HETATM   19  C3  UNL     1      18.441   4.211  50.657  1.00  0.00     0.244 C 
HETATM   20  O1  UNL     1      18.635   5.098  49.813  1.00  0.00    -0.268 OA
HETATM   21  H4  UNL     1      18.989   2.832  52.213  1.00  0.00     0.169 HD
BRANCH  19  22
HETATM   22  C2  UNL     1      17.065   3.789  50.687  1.00  0.00     0.064 C 
HETATM   23  C1  UNL     1      16.438   3.875  51.846  1.00  0.00     0.017 C 
ENDBRANCH  19  22
ENDBRANCH   1  18
TORSDOF 2
ENDMDL
