MODEL 1
REMARK VINA RESULT:      -8.9      0.000      0.000
REMARK  5 active torsions:
REMARK  status: ('A' for Active; 'I' for Inactive)
REMARK    1  A    between atoms: C7_8  and  N2_9 
REMARK       I    between atoms: N2_9  and  C8_10 
REMARK    2  A    between atoms: C8_10  and  C9_12 
REMARK    3  A    between atoms: C13_17  and  N4_18 
REMARK    4  A    between atoms: N4_18  and  C14_19 
REMARK    5  A    between atoms: C14_19  and  C15_20 
ROOT
HETATM    1  N2  UNL     1      22.251   2.792  51.762  1.00  0.00    -0.323 N 
HETATM    2  C8  UNL     1      22.938   1.562  51.950  1.00  0.00     0.260 C 
HETATM    3  O1  UNL     1      23.931   1.723  51.205  1.00  0.00    -0.267 OA
HETATM    4  H11 UNL     1      21.334   3.082  52.218  1.00  0.00     0.169 HD
ENDROOT
BRANCH   2   5
HETATM    5  C9  UNL     1      22.393   0.558  52.838  1.00  0.00     0.077 A 
HETATM    6  C10 UNL     1      21.036   0.435  52.958  1.00  0.00     0.022 A 
HETATM    7  C11 UNL     1      20.535  -0.523  53.805  1.00  0.00     0.020 A 
HETATM    8  C12 UNL     1      21.343  -1.363  54.537  1.00  0.00     0.119 A 
HETATM    9  N3  UNL     1      22.663  -1.214  54.393  1.00  0.00    -0.243 NA
HETATM   10  C13 UNL     1      23.186  -0.290  53.575  1.00  0.00     0.139 A 
BRANCH  10  11
HETATM   11  N4  UNL     1      24.597  -0.259  53.529  1.00  0.00    -0.370 N 
HETATM   12  H15 UNL     1      25.029  -0.056  52.604  1.00  0.00     0.161 HD
BRANCH  11  13
HETATM   13  C14 UNL     1      25.599  -0.460  54.553  1.00  0.00     0.160 C 
BRANCH  13  14
HETATM   14  C15 UNL     1      26.798   0.328  54.204  1.00  0.00    -0.038 A 
HETATM   15  C16 UNL     1      28.078   0.288  54.699  1.00  0.00     0.028 A 
HETATM   16  C17 UNL     1      29.056   1.135  54.236  1.00  0.00     0.116 A 
HETATM   17  N5  UNL     1      28.796   2.054  53.261  1.00  0.00    -0.273 NA
HETATM   18  C18 UNL     1      27.540   2.135  52.734  1.00  0.00     0.116 A 
HETATM   19  C19 UNL     1      26.569   1.281  53.207  1.00  0.00     0.028 A 
ENDBRANCH  13  14
ENDBRANCH  11  13
ENDBRANCH  10  11
ENDBRANCH   2   5
BRANCH   1  20
HETATM   20  C7  UNL     1      22.896   3.707  50.853  1.00  0.00     0.037 A 
HETATM   21  C6  UNL     1      23.601   4.707  51.515  1.00  0.00     0.059 A 
HETATM   22  C5  UNL     1      24.289   5.683  50.795  1.00  0.00     0.037 A 
HETATM   23  N1  UNL     1      25.096   6.828  51.128  1.00  0.00    -0.388 N 
HETATM   24  C22 UNL     1      24.234   5.608  49.398  1.00  0.00    -0.022 A 
HETATM   25  C4  UNL     1      24.921   7.737  49.988  1.00  0.00     0.133 C 
HETATM   26  H9  UNL     1      25.629   6.871  52.004  1.00  0.00     0.159 HD
HETATM   27  C2  UNL     1      25.030   6.739  48.846  1.00  0.00    -0.002 C 
HETATM   28  C1  UNL     1      24.528   7.262  47.543  1.00  0.00     0.021 C 
HETATM   29  C3  UNL     1      26.463   6.247  48.768  1.00  0.00     0.021 C 
HETATM   30  C21 UNL     1      23.532   4.615  48.747  1.00  0.00     0.012 A 
HETATM   31  C20 UNL     1      22.856   3.656  49.475  1.00  0.00     0.030 A 
ENDBRANCH   1  20
TORSDOF 5
ENDMDL
MODEL 2
REMARK VINA RESULT:      -8.9      1.441      1.864
REMARK  5 active torsions:
REMARK  status: ('A' for Active; 'I' for Inactive)
REMARK    1  A    between atoms: C7_8  and  N2_9 
REMARK       I    between atoms: N2_9  and  C8_10 
REMARK    2  A    between atoms: C8_10  and  C9_12 
REMARK    3  A    between atoms: C13_17  and  N4_18 
REMARK    4  A    between atoms: N4_18  and  C14_19 
REMARK    5  A    between atoms: C14_19  and  C15_20 
ROOT
HETATM    1  N2  UNL     1      23.706   1.728  51.193  1.00  0.00    -0.323 N 
HETATM    2  C8  UNL     1      23.597   1.714  52.610  1.00  0.00     0.260 C 
HETATM    3  O1  UNL     1      24.257   2.733  52.913  1.00  0.00    -0.267 OA
HETATM    4  H11 UNL     1      23.283   1.023  50.517  1.00  0.00     0.169 HD
ENDROOT
BRANCH   2   5
HETATM    5  C9  UNL     1      22.850   0.663  53.267  1.00  0.00     0.077 A 
HETATM    6  C10 UNL     1      21.482   0.701  53.246  1.00  0.00     0.022 A 
HETATM    7  C11 UNL     1      20.788  -0.304  53.875  1.00  0.00     0.020 A 
HETATM    8  C12 UNL     1      21.412  -1.345  54.524  1.00  0.00     0.119 A 
HETATM    9  N3  UNL     1      22.749  -1.348  54.523  1.00  0.00    -0.243 NA
HETATM   10  C13 UNL     1      23.457  -0.384  53.919  1.00  0.00     0.139 A 
BRANCH  10  11
HETATM   11  N4  UNL     1      24.860  -0.529  54.002  1.00  0.00    -0.370 N 
HETATM   12  H15 UNL     1      25.304  -0.254  54.902  1.00  0.00     0.161 HD
BRANCH  11  13
HETATM   13  C14 UNL     1      25.837  -1.004  53.047  1.00  0.00     0.160 C 
BRANCH  13  14
HETATM   14  C15 UNL     1      27.110  -0.294  53.277  1.00  0.00    -0.038 A 
HETATM   15  C16 UNL     1      27.378   1.040  53.456  1.00  0.00     0.028 A 
HETATM   16  C17 UNL     1      28.660   1.499  53.643  1.00  0.00     0.116 A 
HETATM   17  N5  UNL     1      29.724   0.645  53.661  1.00  0.00    -0.273 NA
HETATM   18  C18 UNL     1      29.514  -0.692  53.489  1.00  0.00     0.116 A 
HETATM   19  C19 UNL     1      28.224  -1.139  53.301  1.00  0.00     0.028 A 
ENDBRANCH  13  14
ENDBRANCH  11  13
ENDBRANCH  10  11
ENDBRANCH   2   5
BRANCH   1  20
HETATM   20  C7  UNL     1      24.477   2.825  50.661  1.00  0.00     0.037 A 
HETATM   21  C6  UNL     1      23.675   3.853  50.175  1.00  0.00     0.059 A 
HETATM   22  C5  UNL     1      24.250   4.998  49.622  1.00  0.00     0.037 A 
HETATM   23  N1  UNL     1      23.753   6.218  49.042  1.00  0.00    -0.388 N 
HETATM   24  C22 UNL     1      25.648   5.057  49.580  1.00  0.00    -0.022 A 
HETATM   25  C4  UNL     1      24.805   6.623  48.100  1.00  0.00     0.133 C 
HETATM   26  H9  UNL     1      22.846   6.611  49.316  1.00  0.00     0.159 HD
HETATM   27  C2  UNL     1      26.033   6.353  48.955  1.00  0.00    -0.002 C 
HETATM   28  C1  UNL     1      27.305   6.303  48.180  1.00  0.00     0.021 C 
HETATM   29  C3  UNL     1      26.071   7.369  50.082  1.00  0.00     0.021 C 
HETATM   30  C21 UNL     1      26.437   4.034  50.063  1.00  0.00     0.012 A 
HETATM   31  C20 UNL     1      25.853   2.908  50.607  1.00  0.00     0.030 A 
ENDBRANCH   1  20
TORSDOF 5
ENDMDL
MODEL 3
REMARK VINA RESULT:      -8.6      1.766      4.931
REMARK  5 active torsions:
REMARK  status: ('A' for Active; 'I' for Inactive)
REMARK    1  A    between atoms: C7_8  and  N2_9 
REMARK       I    between atoms: N2_9  and  C8_10 
REMARK    2  A    between atoms: C8_10  and  C9_12 
REMARK    3  A    between atoms: C13_17  and  N4_18 
REMARK    4  A    between atoms: N4_18  and  C14_19 
REMARK    5  A    between atoms: C14_19  and  C15_20 
ROOT
HETATM    1  N2  UNL     1      26.595   2.930  51.050  1.00  0.00    -0.323 N 
HETATM    2  C8  UNL     1      26.139   2.494  52.323  1.00  0.00     0.260 C 
HETATM    3  O1  UNL     1      24.966   2.931  52.322  1.00  0.00    -0.267 OA
HETATM    4  H11 UNL     1      27.562   2.770  50.633  1.00  0.00     0.169 HD
ENDROOT
BRANCH   2   5
HETATM    5  C9  UNL     1      27.025   1.751  53.193  1.00  0.00     0.077 A 
HETATM    6  C10 UNL     1      28.286   2.225  53.427  1.00  0.00     0.022 A 
HETATM    7  C11 UNL     1      29.115   1.508  54.255  1.00  0.00     0.020 A 
HETATM    8  C12 UNL     1      28.727   0.332  54.857  1.00  0.00     0.119 A 
HETATM    9  N3  UNL     1      27.487  -0.099  54.605  1.00  0.00    -0.243 NA
HETATM   10  C13 UNL     1      26.653   0.576  53.802  1.00  0.00     0.139 A 
BRANCH  10  11
HETATM   11  N4  UNL     1      25.376  -0.006  53.638  1.00  0.00    -0.370 N 
HETATM   12  H15 UNL     1      24.906   0.154  52.724  1.00  0.00     0.161 HD
BRANCH  11  13
HETATM   13  C14 UNL     1      24.565  -0.813  54.523  1.00  0.00     0.160 C 
BRANCH  13  14
HETATM   14  C15 UNL     1      23.154  -0.708  54.101  1.00  0.00    -0.038 A 
HETATM   15  C16 UNL     1      22.008  -1.229  54.647  1.00  0.00     0.028 A 
HETATM   16  C17 UNL     1      20.776  -1.018  54.075  1.00  0.00     0.116 A 
HETATM   17  N5  UNL     1      20.640  -0.278  52.937  1.00  0.00    -0.273 NA
HETATM   18  C18 UNL     1      21.747   0.265  52.353  1.00  0.00     0.116 A 
HETATM   19  C19 UNL     1      22.975   0.045  52.935  1.00  0.00     0.028 A 
ENDBRANCH  13  14
ENDBRANCH  11  13
ENDBRANCH  10  11
ENDBRANCH   2   5
BRANCH   1  20
HETATM   20  C7  UNL     1      25.619   3.661  50.279  1.00  0.00     0.037 A 
HETATM   21  C6  UNL     1      24.601   2.844  49.797  1.00  0.00     0.059 A 
HETATM   22  C5  UNL     1      23.567   3.380  49.030  1.00  0.00     0.037 A 
HETATM   23  N1  UNL     1      22.390   2.859  48.386  1.00  0.00    -0.388 N 
HETATM   24  C22 UNL     1      23.606   4.756  48.773  1.00  0.00    -0.022 A 
HETATM   25  C4  UNL     1      22.164   3.769  47.256  1.00  0.00     0.133 C 
HETATM   26  H9  UNL     1      21.908   2.026  48.743  1.00  0.00     0.159 HD
HETATM   27  C2  UNL     1      22.417   5.101  47.945  1.00  0.00    -0.002 C 
HETATM   28  C1  UNL     1      22.638   6.233  47.001  1.00  0.00     0.021 C 
HETATM   29  C3  UNL     1      21.285   5.363  48.921  1.00  0.00     0.021 C 
HETATM   30  C21 UNL     1      24.618   5.560  49.253  1.00  0.00     0.012 A 
HETATM   31  C20 UNL     1      25.634   5.014  50.011  1.00  0.00     0.030 A 
ENDBRANCH   1  20
TORSDOF 5
ENDMDL
MODEL 4
REMARK VINA RESULT:      -8.2      2.463      3.703
REMARK  5 active torsions:
REMARK  status: ('A' for Active; 'I' for Inactive)
REMARK    1  A    between atoms: C7_8  and  N2_9 
REMARK       I    between atoms: N2_9  and  C8_10 
REMARK    2  A    between atoms: C8_10  and  C9_12 
REMARK    3  A    between atoms: C13_17  and  N4_18 
REMARK    4  A    between atoms: N4_18  and  C14_19 
REMARK    5  A    between atoms: C14_19  and  C15_20 
ROOT
HETATM    1  N2  UNL     1      25.402   3.730  49.401  1.00  0.00    -0.323 N 
HETATM    2  C8  UNL     1      24.688   3.874  50.622  1.00  0.00     0.260 C 
HETATM    3  O1  UNL     1      24.901   5.080  50.885  1.00  0.00    -0.267 OA
HETATM    4  H11 UNL     1      25.488   2.843  48.818  1.00  0.00     0.169 HD
ENDROOT
BRANCH   2   5
HETATM    5  C9  UNL     1      23.985   2.743  51.187  1.00  0.00     0.077 A 
HETATM    6  C10 UNL     1      22.783   2.368  50.653  1.00  0.00     0.022 A 
HETATM    7  C11 UNL     1      22.128   1.291  51.202  1.00  0.00     0.020 A 
HETATM    8  C12 UNL     1      22.633   0.578  52.265  1.00  0.00     0.119 A 
HETATM    9  N3  UNL     1      23.810   0.974  52.759  1.00  0.00    -0.243 NA
HETATM   10  C13 UNL     1      24.476   2.019  52.248  1.00  0.00     0.139 A 
BRANCH  10  11
HETATM   11  N4  UNL     1      25.707   2.311  52.875  1.00  0.00    -0.370 N 
HETATM   12  H15 UNL     1      25.657   2.728  53.828  1.00  0.00     0.161 HD
BRANCH  11  13
HETATM   13  C14 UNL     1      27.075   2.136  52.440  1.00  0.00     0.160 C 
BRANCH  13  14
HETATM   14  C15 UNL     1      27.503   0.761  52.762  1.00  0.00    -0.038 A 
HETATM   15  C16 UNL     1      26.952  -0.454  52.438  1.00  0.00     0.028 A 
HETATM   16  C17 UNL     1      27.513  -1.636  52.860  1.00  0.00     0.116 A 
HETATM   17  N5  UNL     1      28.646  -1.651  53.621  1.00  0.00    -0.273 NA
HETATM   18  C18 UNL     1      29.236  -0.472  53.970  1.00  0.00     0.116 A 
HETATM   19  C19 UNL     1      28.663   0.705  53.542  1.00  0.00     0.028 A 
ENDBRANCH  13  14
ENDBRANCH  11  13
ENDBRANCH  10  11
ENDBRANCH   2   5
BRANCH   1  20
HETATM   20  C7  UNL     1      26.059   4.929  48.944  1.00  0.00     0.037 A 
HETATM   21  C6  UNL     1      27.434   4.763  48.805  1.00  0.00     0.059 A 
HETATM   22  C5  UNL     1      28.234   5.820  48.371  1.00  0.00     0.037 A 
HETATM   23  N1  UNL     1      29.639   6.008  48.120  1.00  0.00    -0.388 N 
HETATM   24  C22 UNL     1      27.596   7.034  48.089  1.00  0.00    -0.022 A 
HETATM   25  C4  UNL     1      29.858   7.442  48.354  1.00  0.00     0.133 C 
HETATM   26  H9  UNL     1      30.243   5.226  47.843  1.00  0.00     0.159 HD
HETATM   27  C2  UNL     1      28.635   8.006  47.650  1.00  0.00    -0.002 C 
HETATM   28  C1  UNL     1      28.336   9.422  48.007  1.00  0.00     0.021 C 
HETATM   29  C3  UNL     1      28.799   7.800  46.155  1.00  0.00     0.021 C 
HETATM   30  C21 UNL     1      26.233   7.193  48.229  1.00  0.00     0.012 A 
HETATM   31  C20 UNL     1      25.455   6.137  48.660  1.00  0.00     0.030 A 
ENDBRANCH   1  20
TORSDOF 5
ENDMDL
MODEL 5
REMARK VINA RESULT:      -8.1      1.831      2.132
REMARK  5 active torsions:
REMARK  status: ('A' for Active; 'I' for Inactive)
REMARK    1  A    between atoms: C7_8  and  N2_9 
REMARK       I    between atoms: N2_9  and  C8_10 
REMARK    2  A    between atoms: C8_10  and  C9_12 
REMARK    3  A    between atoms: C13_17  and  N4_18 
REMARK    4  A    between atoms: N4_18  and  C14_19 
REMARK    5  A    between atoms: C14_19  and  C15_20 
ROOT
HETATM    1  N2  UNL     1      23.642   3.051  52.614  1.00  0.00    -0.323 N 
HETATM    2  C8  UNL     1      22.956   1.878  52.199  1.00  0.00     0.260 C 
HETATM    3  O1  UNL     1      22.656   2.176  51.021  1.00  0.00    -0.267 OA
HETATM    4  H11 UNL     1      24.075   3.229  53.570  1.00  0.00     0.169 HD
ENDROOT
BRANCH   2   5
HETATM    5  C9  UNL     1      22.794   0.772  53.119  1.00  0.00     0.077 A 
HETATM    6  C10 UNL     1      21.533   0.361  53.455  1.00  0.00     0.022 A 
HETATM    7  C11 UNL     1      21.397  -0.690  54.330  1.00  0.00     0.020 A 
HETATM    8  C12 UNL     1      22.476  -1.343  54.881  1.00  0.00     0.119 A 
HETATM    9  N3  UNL     1      23.691  -0.913  54.529  1.00  0.00    -0.243 NA
HETATM   10  C13 UNL     1      23.861   0.109  53.678  1.00  0.00     0.139 A 
BRANCH  10  11
HETATM   11  N4  UNL     1      25.205   0.442  53.402  1.00  0.00    -0.370 N 
HETATM   12  H15 UNL     1      25.708   0.991  54.129  1.00  0.00     0.161 HD
BRANCH  11  13
HETATM   13  C14 UNL     1      26.053   0.159  52.264  1.00  0.00     0.160 C 
BRANCH  13  14
HETATM   14  C15 UNL     1      27.232  -0.598  52.729  1.00  0.00    -0.038 A 
HETATM   15  C16 UNL     1      28.410  -0.176  53.292  1.00  0.00     0.028 A 
HETATM   16  C17 UNL     1      29.400  -1.063  53.644  1.00  0.00     0.116 A 
HETATM   17  N5  UNL     1      29.252  -2.405  53.448  1.00  0.00    -0.273 NA
HETATM   18  C18 UNL     1      28.100  -2.879  52.892  1.00  0.00     0.116 A 
HETATM   19  C19 UNL     1      27.117  -1.980  52.543  1.00  0.00     0.028 A 
ENDBRANCH  13  14
ENDBRANCH  11  13
ENDBRANCH  10  11
ENDBRANCH   2   5
BRANCH   1  20
HETATM   20  C7  UNL     1      23.736   4.080  51.607  1.00  0.00     0.037 A 
HETATM   21  C6  UNL     1      22.898   5.160  51.868  1.00  0.00     0.059 A 
HETATM   22  C5  UNL     1      22.858   6.250  50.999  1.00  0.00     0.037 A 
HETATM   23  N1  UNL     1      22.141   7.497  50.949  1.00  0.00    -0.388 N 
HETATM   24  C22 UNL     1      23.686   6.202  49.871  1.00  0.00    -0.022 A 
HETATM   25  C4  UNL     1      22.059   7.809  49.516  1.00  0.00     0.133 C 
HETATM   26  H9  UNL     1      21.814   7.962  51.804  1.00  0.00     0.159 HD
HETATM   27  C2  UNL     1      23.477   7.457  49.096  1.00  0.00    -0.002 C 
HETATM   28  C1  UNL     1      23.646   7.301  47.623  1.00  0.00     0.021 C 
HETATM   29  C3  UNL     1      24.426   8.481  49.690  1.00  0.00     0.021 C 
HETATM   30  C21 UNL     1      24.514   5.128  49.617  1.00  0.00     0.012 A 
HETATM   31  C20 UNL     1      24.542   4.057  50.487  1.00  0.00     0.030 A 
ENDBRANCH   1  20
TORSDOF 5
ENDMDL
MODEL 6
REMARK VINA RESULT:      -7.9      2.725      7.175
REMARK  5 active torsions:
REMARK  status: ('A' for Active; 'I' for Inactive)
REMARK    1  A    between atoms: C7_8  and  N2_9 
REMARK       I    between atoms: N2_9  and  C8_10 
REMARK    2  A    between atoms: C8_10  and  C9_12 
REMARK    3  A    between atoms: C13_17  and  N4_18 
REMARK    4  A    between atoms: N4_18  and  C14_19 
REMARK    5  A    between atoms: C14_19  and  C15_20 
ROOT
HETATM    1  N2  UNL     1      22.405   2.834  52.277  1.00  0.00    -0.323 N 
HETATM    2  C8  UNL     1      22.293   3.168  50.900  1.00  0.00     0.260 C 
HETATM    3  O1  UNL     1      23.299   2.589  50.429  1.00  0.00    -0.267 OA
HETATM    4  H11 UNL     1      21.743   3.128  53.057  1.00  0.00     0.169 HD
ENDROOT
BRANCH   2   5
HETATM    5  C9  UNL     1      21.192   3.986  50.442  1.00  0.00     0.077 A 
HETATM    6  C10 UNL     1      21.310   5.349  50.476  1.00  0.00     0.022 A 
HETATM    7  C11 UNL     1      20.255   6.111  50.038  1.00  0.00     0.020 A 
HETATM    8  C12 UNL     1      19.085   5.560  49.566  1.00  0.00     0.119 A 
HETATM    9  N3  UNL     1      19.007   4.226  49.547  1.00  0.00    -0.243 NA
HETATM   10  C13 UNL     1      20.017   3.452  49.968  1.00  0.00     0.139 A 
BRANCH  10  11
HETATM   11  N4  UNL     1      19.783   2.062  49.882  1.00  0.00    -0.370 N 
HETATM   12  H15 UNL     1      20.602   1.465  49.642  1.00  0.00     0.161 HD
BRANCH  11  13
HETATM   13  C14 UNL     1      18.585   1.273  50.070  1.00  0.00     0.160 C 
BRANCH  13  14
HETATM   14  C15 UNL     1      18.741   0.458  51.291  1.00  0.00    -0.038 A 
HETATM   15  C16 UNL     1      19.777   0.364  52.185  1.00  0.00     0.028 A 
HETATM   16  C17 UNL     1      19.722  -0.484  53.267  1.00  0.00     0.116 A 
HETATM   17  N5  UNL     1      18.630  -1.268  53.498  1.00  0.00    -0.273 NA
HETATM   18  C18 UNL     1      17.570  -1.212  52.640  1.00  0.00     0.116 A 
HETATM   19  C19 UNL     1      17.639  -0.360  51.561  1.00  0.00     0.028 A 
ENDBRANCH  13  14
ENDBRANCH  11  13
ENDBRANCH  10  11
ENDBRANCH   2   5
BRANCH   1  20
HETATM   20  C7  UNL     1      23.546   2.015  52.606  1.00  0.00     0.037 A 
HETATM   21  C6  UNL     1      24.637   2.767  53.033  1.00  0.00     0.059 A 
HETATM   22  C5  UNL     1      25.829   2.140  53.394  1.00  0.00     0.037 A 
HETATM   23  N1  UNL     1      27.117   2.579  53.865  1.00  0.00    -0.388 N 
HETATM   24  C22 UNL     1      25.873   0.744  53.306  1.00  0.00    -0.022 A 
HETATM   25  C4  UNL     1      28.044   1.539  53.400  1.00  0.00     0.133 C 
HETATM   26  H9  UNL     1      27.225   3.448  54.400  1.00  0.00     0.159 HD
HETATM   27  C2  UNL     1      27.228   0.300  53.735  1.00  0.00    -0.002 C 
HETATM   28  C1  UNL     1      27.709  -0.937  53.056  1.00  0.00     0.021 C 
HETATM   29  C3  UNL     1      27.166   0.155  55.244  1.00  0.00     0.021 C 
HETATM   30  C21 UNL     1      24.789   0.004  52.882  1.00  0.00     0.012 A 
HETATM   31  C20 UNL     1      23.615   0.639  52.528  1.00  0.00     0.030 A 
ENDBRANCH   1  20
TORSDOF 5
ENDMDL
MODEL 7
REMARK VINA RESULT:      -7.8      2.079      4.752
REMARK  5 active torsions:
REMARK  status: ('A' for Active; 'I' for Inactive)
REMARK    1  A    between atoms: C7_8  and  N2_9 
REMARK       I    between atoms: N2_9  and  C8_10 
REMARK    2  A    between atoms: C8_10  and  C9_12 
REMARK    3  A    between atoms: C13_17  and  N4_18 
REMARK    4  A    between atoms: N4_18  and  C14_19 
REMARK    5  A    between atoms: C14_19  and  C15_20 
ROOT
HETATM    1  N2  UNL     1      25.176   3.451  51.392  1.00  0.00    -0.323 N 
HETATM    2  C8  UNL     1      24.604   2.152  51.330  1.00  0.00     0.260 C 
HETATM    3  O1  UNL     1      23.626   2.354  50.576  1.00  0.00    -0.267 OA
HETATM    4  H11 UNL     1      26.045   3.737  51.937  1.00  0.00     0.169 HD
ENDROOT
BRANCH   2   5
HETATM    5  C9  UNL     1      25.212   1.059  52.058  1.00  0.00     0.077 A 
HETATM    6  C10 UNL     1      26.519   0.737  51.813  1.00  0.00     0.022 A 
HETATM    7  C11 UNL     1      27.081  -0.304  52.513  1.00  0.00     0.020 A 
HETATM    8  C12 UNL     1      26.382  -1.033  53.448  1.00  0.00     0.119 A 
HETATM    9  N3  UNL     1      25.109  -0.688  53.660  1.00  0.00    -0.243 NA
HETATM   10  C13 UNL     1      24.529   0.321  52.996  1.00  0.00     0.139 A 
BRANCH  10  11
HETATM   11  N4  UNL     1      23.180   0.566  53.334  1.00  0.00    -0.370 N 
HETATM   12  H15 UNL     1      22.989   1.418  53.900  1.00  0.00     0.161 HD
BRANCH  11  13
HETATM   13  C14 UNL     1      21.965  -0.161  53.036  1.00  0.00     0.160 C 
BRANCH  13  14
HETATM   14  C15 UNL     1      21.031   0.743  52.336  1.00  0.00    -0.038 A 
HETATM   15  C16 UNL     1      20.359   1.857  52.772  1.00  0.00     0.028 A 
HETATM   16  C17 UNL     1      19.511   2.557  51.946  1.00  0.00     0.116 A 
HETATM   17  N5  UNL     1      19.302   2.172  50.654  1.00  0.00    -0.273 NA
HETATM   18  C18 UNL     1      19.947   1.072  50.168  1.00  0.00     0.116 A 
HETATM   19  C19 UNL     1      20.793   0.380  51.007  1.00  0.00     0.028 A 
ENDBRANCH  13  14
ENDBRANCH  11  13
ENDBRANCH  10  11
ENDBRANCH   2   5
BRANCH   1  20
HETATM   20  C7  UNL     1      24.478   4.453  50.624  1.00  0.00     0.037 A 
HETATM   21  C6  UNL     1      23.606   5.209  51.402  1.00  0.00     0.059 A 
HETATM   22  C5  UNL     1      22.845   6.226  50.826  1.00  0.00     0.037 A 
HETATM   23  N1  UNL     1      21.876   7.177  51.302  1.00  0.00    -0.388 N 
HETATM   24  C22 UNL     1      22.998   6.442  49.451  1.00  0.00    -0.022 A 
HETATM   25  C4  UNL     1      21.026   7.442  50.133  1.00  0.00     0.133 C 
HETATM   26  H9  UNL     1      21.888   7.516  52.270  1.00  0.00     0.159 HD
HETATM   27  C2  UNL     1      22.097   7.562  49.060  1.00  0.00    -0.002 C 
HETATM   28  C1  UNL     1      21.568   7.463  47.670  1.00  0.00     0.021 C 
HETATM   29  C3  UNL     1      22.883   8.838  49.300  1.00  0.00     0.021 C 
HETATM   30  C21 UNL     1      23.863   5.689  48.685  1.00  0.00     0.012 A 
HETATM   31  C20 UNL     1      24.610   4.686  49.270  1.00  0.00     0.030 A 
ENDBRANCH   1  20
TORSDOF 5
ENDMDL
MODEL 8
REMARK VINA RESULT:      -7.7      2.699      8.036
REMARK  5 active torsions:
REMARK  status: ('A' for Active; 'I' for Inactive)
REMARK    1  A    between atoms: C7_8  and  N2_9 
REMARK       I    between atoms: N2_9  and  C8_10 
REMARK    2  A    between atoms: C8_10  and  C9_12 
REMARK    3  A    between atoms: C13_17  and  N4_18 
REMARK    4  A    between atoms: N4_18  and  C14_19 
REMARK    5  A    between atoms: C14_19  and  C15_20 
ROOT
HETATM    1  N2  UNL     1      24.146   2.886  49.986  1.00  0.00    -0.323 N 
HETATM    2  C8  UNL     1      24.700   4.042  50.600  1.00  0.00     0.260 C 
HETATM    3  O1  UNL     1      24.097   4.046  51.697  1.00  0.00    -0.267 OA
HETATM    4  H11 UNL     1      24.383   2.505  49.021  1.00  0.00     0.169 HD
ENDROOT
BRANCH   2   5
HETATM    5  C9  UNL     1      25.691   4.828  49.898  1.00  0.00     0.077 A 
HETATM    6  C10 UNL     1      26.712   4.191  49.247  1.00  0.00     0.022 A 
HETATM    7  C11 UNL     1      27.646   4.952  48.586  1.00  0.00     0.020 A 
HETATM    8  C12 UNL     1      27.595   6.328  48.554  1.00  0.00     0.119 A 
HETATM    9  N3  UNL     1      26.584   6.914  49.202  1.00  0.00    -0.243 NA
HETATM   10  C13 UNL     1      25.656   6.202  49.856  1.00  0.00     0.139 A 
BRANCH  10  11
HETATM   11  N4  UNL     1      24.649   6.965  50.487  1.00  0.00    -0.370 N 
HETATM   12  H15 UNL     1      24.678   7.007  51.527  1.00  0.00     0.161 HD
BRANCH  11  13
HETATM   13  C14 UNL     1      23.545   7.733  49.953  1.00  0.00     0.160 C 
BRANCH  13  14
HETATM   14  C15 UNL     1      22.501   6.799  49.487  1.00  0.00    -0.038 A 
HETATM   15  C16 UNL     1      22.352   6.136  48.295  1.00  0.00     0.028 A 
HETATM   16  C17 UNL     1      21.278   5.311  48.057  1.00  0.00     0.116 A 
HETATM   17  N5  UNL     1      20.312   5.115  49.001  1.00  0.00    -0.273 NA
HETATM   18  C18 UNL     1      20.411   5.750  50.205  1.00  0.00     0.116 A 
HETATM   19  C19 UNL     1      21.492   6.574  50.429  1.00  0.00     0.028 A 
ENDBRANCH  13  14
ENDBRANCH  11  13
ENDBRANCH  10  11
ENDBRANCH   2   5
BRANCH   1  20
HETATM   20  C7  UNL     1      23.168   2.191  50.787  1.00  0.00     0.037 A 
HETATM   21  C6  UNL     1      23.748   1.281  51.665  1.00  0.00     0.059 A 
HETATM   22  C5  UNL     1      22.953   0.517  52.520  1.00  0.00     0.037 A 
HETATM   23  N1  UNL     1      23.195  -0.486  53.524  1.00  0.00    -0.388 N 
HETATM   24  C22 UNL     1      21.568   0.708  52.449  1.00  0.00    -0.022 A 
HETATM   25  C4  UNL     1      21.975  -1.304  53.517  1.00  0.00     0.133 C 
HETATM   26  H9  UNL     1      24.071  -0.510  54.057  1.00  0.00     0.159 HD
HETATM   27  C2  UNL     1      20.929  -0.203  53.438  1.00  0.00    -0.002 C 
HETATM   28  C1  UNL     1      19.577  -0.687  53.039  1.00  0.00     0.021 C 
HETATM   29  C3  UNL     1      20.917   0.549  54.757  1.00  0.00     0.021 C 
HETATM   30  C21 UNL     1      20.999   1.611  51.575  1.00  0.00     0.012 A 
HETATM   31  C20 UNL     1      21.799   2.360  50.736  1.00  0.00     0.030 A 
ENDBRANCH   1  20
TORSDOF 5
ENDMDL
MODEL 9
REMARK VINA RESULT:      -7.4      2.275      7.954
REMARK  5 active torsions:
REMARK  status: ('A' for Active; 'I' for Inactive)
REMARK    1  A    between atoms: C7_8  and  N2_9 
REMARK       I    between atoms: N2_9  and  C8_10 
REMARK    2  A    between atoms: C8_10  and  C9_12 
REMARK    3  A    between atoms: C13_17  and  N4_18 
REMARK    4  A    between atoms: N4_18  and  C14_19 
REMARK    5  A    between atoms: C14_19  and  C15_20 
ROOT
HETATM    1  N2  UNL     1      24.888   2.405  50.468  1.00  0.00    -0.323 N 
HETATM    2  C8  UNL     1      24.993   3.759  50.887  1.00  0.00     0.260 C 
HETATM    3  O1  UNL     1      24.628   3.672  52.082  1.00  0.00    -0.267 OA
HETATM    4  H11 UNL     1      25.107   2.022  49.500  1.00  0.00     0.169 HD
ENDROOT
BRANCH   2   5
HETATM    5  C9  UNL     1      25.436   4.772  49.954  1.00  0.00     0.077 A 
HETATM    6  C10 UNL     1      26.709   4.713  49.456  1.00  0.00     0.022 A 
HETATM    7  C11 UNL     1      27.114   5.683  48.571  1.00  0.00     0.020 A 
HETATM    8  C12 UNL     1      26.291   6.711  48.167  1.00  0.00     0.119 A 
HETATM    9  N3  UNL     1      25.055   6.735  48.675  1.00  0.00    -0.243 NA
HETATM   10  C13 UNL     1      24.627   5.804  49.540  1.00  0.00     0.139 A 
BRANCH  10  11
HETATM   11  N4  UNL     1      23.296   5.964  49.983  1.00  0.00    -0.370 N 
HETATM   12  H15 UNL     1      23.165   6.218  50.984  1.00  0.00     0.161 HD
BRANCH  11  13
HETATM   13  C14 UNL     1      22.030   5.842  49.293  1.00  0.00     0.160 C 
BRANCH  13  14
HETATM   14  C15 UNL     1      21.212   4.824  49.979  1.00  0.00    -0.038 A 
HETATM   15  C16 UNL     1      20.362   3.867  49.484  1.00  0.00     0.028 A 
HETATM   16  C17 UNL     1      19.674   3.013  50.314  1.00  0.00     0.116 A 
HETATM   17  N5  UNL     1      19.808   3.082  51.670  1.00  0.00    -0.273 NA
HETATM   18  C18 UNL     1      20.641   4.015  52.216  1.00  0.00     0.116 A 
HETATM   19  C19 UNL     1      21.324   4.864  51.373  1.00  0.00     0.028 A 
ENDBRANCH  13  14
ENDBRANCH  11  13
ENDBRANCH  10  11
ENDBRANCH   2   5
BRANCH   1  20
HETATM   20  C7  UNL     1      24.436   1.493  51.490  1.00  0.00     0.037 A 
HETATM   21  C6  UNL     1      23.058   1.545  51.678  1.00  0.00     0.059 A 
HETATM   22  C5  UNL     1      22.443   0.729  52.628  1.00  0.00     0.037 A 
HETATM   23  N1  UNL     1      21.093   0.520  53.081  1.00  0.00    -0.388 N 
HETATM   24  C22 UNL     1      23.267  -0.126  53.370  1.00  0.00    -0.022 A 
HETATM   25  C4  UNL     1      21.244   0.080  54.474  1.00  0.00     0.133 C 
HETATM   26  H9  UNL     1      20.289   0.679  52.462  1.00  0.00     0.159 HD
HETATM   27  C2  UNL     1      22.403  -0.890  54.312  1.00  0.00    -0.002 C 
HETATM   28  C1  UNL     1      23.069  -1.249  55.596  1.00  0.00     0.021 C 
HETATM   29  C3  UNL     1      21.914  -2.105  53.545  1.00  0.00     0.021 C 
HETATM   30  C21 UNL     1      24.632  -0.172  53.179  1.00  0.00     0.012 A 
HETATM   31  C20 UNL     1      25.226   0.642  52.235  1.00  0.00     0.030 A 
ENDBRANCH   1  20
TORSDOF 5
ENDMDL
