MODEL 1
REMARK VINA RESULT:      -7.4      0.000      0.000
REMARK  5 active torsions:
REMARK  status: ('A' for Active; 'I' for Inactive)
REMARK    1  A    between atoms: C2_2  and  C3_3 
REMARK    2  A    between atoms: C8_9  and  N2_10 
REMARK    3  A    between atoms: N2_10  and  C9_11 
REMARK    4  A    between atoms: C12_15  and  N3_16 
REMARK    5  A    between atoms: N3_16  and  C13_17 
ROOT
HETATM    1  C3  UNL     1      23.116   0.082  53.046  1.00  0.00     0.008 A 
HETATM    2  C4  UNL     1      22.031   0.261  52.215  1.00  0.00     0.131 A 
HETATM    3  N1  UNL     1      22.108   1.130  51.169  1.00  0.00    -0.259 NA
HETATM    4  C5  UNL     1      23.232   1.827  50.924  1.00  0.00     0.069 A 
HETATM    5  C6  UNL     1      23.335   2.706  49.882  1.00  0.00     0.035 A 
HETATM    6  C7  UNL     1      24.491   3.415  49.639  1.00  0.00     0.032 A 
HETATM    7  C8  UNL     1      25.609   3.285  50.428  1.00  0.00     0.035 A 
HETATM    8  C10 UNL     1      25.466   2.396  51.462  1.00  0.00     0.045 A 
HETATM    9  C11 UNL     1      24.331   1.666  51.741  1.00  0.00     0.022 A 
HETATM   10  C12 UNL     1      24.275   0.790  52.806  1.00  0.00     0.057 A 
ENDROOT
BRANCH  10  11
HETATM   11  N3  UNL     1      25.393   0.620  53.646  1.00  0.00    -0.355 N 
HETATM   12  H10 UNL     1      25.381   1.119  54.579  1.00  0.00     0.166 HD
BRANCH  11  13
HETATM   13  C13 UNL     1      26.569  -0.151  53.409  1.00  0.00     0.032 A 
HETATM   14  C14 UNL     1      27.003  -1.215  52.778  1.00  0.00     0.029 A 
HETATM   15  C15 UNL     1      28.352  -1.018  53.260  1.00  0.00     0.004 A 
HETATM   16  C16 UNL     1      27.944   0.051  53.901  1.00  0.00     0.029 A 
ENDBRANCH  11  13
ENDBRANCH  10  11
BRANCH   1  17
HETATM   17  C2  UNL     1      23.063  -0.841  54.172  1.00  0.00     0.005 C 
HETATM   18  C1  UNL     1      21.932  -1.385  54.584  1.00  0.00     0.012 C 
ENDBRANCH   1  17
BRANCH   7  19
HETATM   19  N2  UNL     1      26.764   4.042  50.124  1.00  0.00    -0.334 N 
HETATM   20  H7  UNL     1      27.504   4.144  50.865  1.00  0.00     0.168 HD
BRANCH  19  21
HETATM   21  C9  UNL     1      27.121   4.719  48.947  1.00  0.00     0.353 C 
HETATM   22  O1  UNL     1      28.312   4.747  48.602  1.00  0.00    -0.283 OA
ENDBRANCH  19  21
ENDBRANCH   7  19
TORSDOF 5
ENDMDL
MODEL 2
REMARK VINA RESULT:      -7.2      1.341      4.054
REMARK  5 active torsions:
REMARK  status: ('A' for Active; 'I' for Inactive)
REMARK    1  A    between atoms: C2_2  and  C3_3 
REMARK    2  A    between atoms: C8_9  and  N2_10 
REMARK    3  A    between atoms: N2_10  and  C9_11 
REMARK    4  A    between atoms: C12_15  and  N3_16 
REMARK    5  A    between atoms: N3_16  and  C13_17 
ROOT
HETATM    1  C3  UNL     1      23.328  -0.453  54.401  1.00  0.00     0.008 A 
HETATM    2  C4  UNL     1      24.343  -1.153  55.019  1.00  0.00     0.131 A 
HETATM    3  N1  UNL     1      25.643  -0.851  54.746  1.00  0.00    -0.259 NA
HETATM    4  C5  UNL     1      25.966   0.124  53.880  1.00  0.00     0.069 A 
HETATM    5  C6  UNL     1      27.262   0.446  53.588  1.00  0.00     0.035 A 
HETATM    6  C7  UNL     1      27.582   1.448  52.699  1.00  0.00     0.032 A 
HETATM    7  C8  UNL     1      26.621   2.184  52.049  1.00  0.00     0.035 A 
HETATM    8  C10 UNL     1      25.334   1.832  52.367  1.00  0.00     0.045 A 
HETATM    9  C11 UNL     1      24.969   0.839  53.249  1.00  0.00     0.022 A 
HETATM   10  C12 UNL     1      23.644   0.551  53.510  1.00  0.00     0.057 A 
ENDROOT
BRANCH  10  11
HETATM   11  N3  UNL     1      22.620   1.276  52.871  1.00  0.00    -0.355 N 
HETATM   12  H10 UNL     1      22.240   2.127  53.374  1.00  0.00     0.166 HD
BRANCH  11  13
HETATM   13  C13 UNL     1      22.008   1.019  51.609  1.00  0.00     0.032 A 
HETATM   14  C14 UNL     1      21.079   0.294  51.035  1.00  0.00     0.029 A 
HETATM   15  C15 UNL     1      21.352   0.874  49.738  1.00  0.00     0.004 A 
HETATM   16  C16 UNL     1      22.287   1.611  50.287  1.00  0.00     0.029 A 
ENDBRANCH  11  13
ENDBRANCH  10  11
BRANCH   1  17
HETATM   17  C2  UNL     1      21.929  -0.752  54.673  1.00  0.00     0.005 C 
HETATM   18  C1  UNL     1      21.344  -1.850  54.230  1.00  0.00     0.012 C 
ENDBRANCH   1  17
BRANCH   7  19
HETATM   19  N2  UNL     1      27.016   3.200  51.147  1.00  0.00    -0.334 N 
HETATM   20  H7  UNL     1      27.806   3.836  51.427  1.00  0.00     0.168 HD
BRANCH  19  21
HETATM   21  C9  UNL     1      26.517   3.529  49.877  1.00  0.00     0.353 C 
HETATM   22  O1  UNL     1      27.293   3.976  49.019  1.00  0.00    -0.283 OA
ENDBRANCH  19  21
ENDBRANCH   7  19
TORSDOF 5
ENDMDL
MODEL 3
REMARK VINA RESULT:      -7.2      2.516      4.803
REMARK  5 active torsions:
REMARK  status: ('A' for Active; 'I' for Inactive)
REMARK    1  A    between atoms: C2_2  and  C3_3 
REMARK    2  A    between atoms: C8_9  and  N2_10 
REMARK    3  A    between atoms: N2_10  and  C9_11 
REMARK    4  A    between atoms: C12_15  and  N3_16 
REMARK    5  A    between atoms: N3_16  and  C13_17 
ROOT
HETATM    1  C3  UNL     1      21.784   0.652  52.500  1.00  0.00     0.008 A 
HETATM    2  C4  UNL     1      21.971  -0.617  53.005  1.00  0.00     0.131 A 
HETATM    3  N1  UNL     1      23.169  -0.963  53.555  1.00  0.00    -0.259 NA
HETATM    4  C5  UNL     1      24.186  -0.086  53.618  1.00  0.00     0.069 A 
HETATM    5  C6  UNL     1      25.397  -0.408  54.163  1.00  0.00     0.035 A 
HETATM    6  C7  UNL     1      26.433   0.498  54.223  1.00  0.00     0.032 A 
HETATM    7  C8  UNL     1      26.314   1.779  53.738  1.00  0.00     0.035 A 
HETATM    8  C10 UNL     1      25.086   2.063  53.199  1.00  0.00     0.045 A 
HETATM    9  C11 UNL     1      24.024   1.190  53.119  1.00  0.00     0.022 A 
HETATM   10  C12 UNL     1      22.818   1.562  52.559  1.00  0.00     0.057 A 
ENDROOT
BRANCH  10  11
HETATM   11  N3  UNL     1      22.644   2.863  52.047  1.00  0.00    -0.355 N 
HETATM   12  H10 UNL     1      22.169   3.572  52.674  1.00  0.00     0.166 HD
BRANCH  11  13
HETATM   13  C13 UNL     1      23.028   3.372  50.772  1.00  0.00     0.032 A 
HETATM   14  C14 UNL     1      23.547   4.425  50.188  1.00  0.00     0.029 A 
HETATM   15  C15 UNL     1      23.465   3.808  48.882  1.00  0.00     0.004 A 
HETATM   16  C16 UNL     1      22.944   2.742  49.441  1.00  0.00     0.029 A 
ENDBRANCH  11  13
ENDBRANCH  10  11
BRANCH   1  17
HETATM   17  C2  UNL     1      20.514   1.051  51.908  1.00  0.00     0.005 C 
HETATM   18  C1  UNL     1      20.126   0.624  50.720  1.00  0.00     0.012 C 
ENDBRANCH   1  17
BRANCH   7  19
HETATM   19  N2  UNL     1      27.416   2.661  53.831  1.00  0.00    -0.334 N 
HETATM   20  H7  UNL     1      27.226   3.687  53.961  1.00  0.00     0.168 HD
BRANCH  19  21
HETATM   21  C9  UNL     1      28.794   2.398  53.777  1.00  0.00     0.353 C 
HETATM   22  O1  UNL     1      29.437   2.316  54.834  1.00  0.00    -0.283 OA
ENDBRANCH  19  21
ENDBRANCH   7  19
TORSDOF 5
ENDMDL
MODEL 4
REMARK VINA RESULT:      -7.1      2.272      4.808
REMARK  5 active torsions:
REMARK  status: ('A' for Active; 'I' for Inactive)
REMARK    1  A    between atoms: C2_2  and  C3_3 
REMARK    2  A    between atoms: C8_9  and  N2_10 
REMARK    3  A    between atoms: N2_10  and  C9_11 
REMARK    4  A    between atoms: C12_15  and  N3_16 
REMARK    5  A    between atoms: N3_16  and  C13_17 
ROOT
HETATM    1  C3  UNL     1      22.641   2.240  51.883  1.00  0.00     0.008 A 
HETATM    2  C4  UNL     1      21.967   1.084  52.217  1.00  0.00     0.131 A 
HETATM    3  N1  UNL     1      22.580   0.133  52.977  1.00  0.00    -0.259 NA
HETATM    4  C5  UNL     1      23.840   0.295  53.414  1.00  0.00     0.069 A 
HETATM    5  C6  UNL     1      24.477  -0.644  54.176  1.00  0.00     0.035 A 
HETATM    6  C7  UNL     1      25.769  -0.468  54.621  1.00  0.00     0.032 A 
HETATM    7  C8  UNL     1      26.498   0.660  54.324  1.00  0.00     0.035 A 
HETATM    8  C10 UNL     1      25.825   1.577  53.558  1.00  0.00     0.045 A 
HETATM    9  C11 UNL     1      24.536   1.443  53.093  1.00  0.00     0.022 A 
HETATM   10  C12 UNL     1      23.935   2.420  52.326  1.00  0.00     0.057 A 
ENDROOT
BRANCH  10  11
HETATM   11  N3  UNL     1      24.638   3.595  51.994  1.00  0.00    -0.355 N 
HETATM   12  H10 UNL     1      24.590   4.400  52.680  1.00  0.00     0.166 HD
BRANCH  11  13
HETATM   13  C13 UNL     1      25.425   3.858  50.835  1.00  0.00     0.032 A 
HETATM   14  C14 UNL     1      25.611   4.742  49.885  1.00  0.00     0.029 A 
HETATM   15  C15 UNL     1      26.660   3.952  49.280  1.00  0.00     0.004 A 
HETATM   16  C16 UNL     1      26.495   3.051  50.219  1.00  0.00     0.029 A 
ENDBRANCH  11  13
ENDBRANCH  10  11
BRANCH   1  17
HETATM   17  C2  UNL     1      22.013   3.275  51.074  1.00  0.00     0.005 C 
HETATM   18  C1  UNL     1      21.035   4.033  51.536  1.00  0.00     0.012 C 
ENDBRANCH   1  17
BRANCH   7  19
HETATM   19  N2  UNL     1      27.820   0.779  54.811  1.00  0.00    -0.334 N 
HETATM   20  H7  UNL     1      28.034   0.409  55.772  1.00  0.00     0.168 HD
BRANCH  19  21
HETATM   21  C9  UNL     1      28.962   1.332  54.209  1.00  0.00     0.353 C 
HETATM   22  O1  UNL     1      29.416   2.402  54.641  1.00  0.00    -0.283 OA
ENDBRANCH  19  21
ENDBRANCH   7  19
TORSDOF 5
ENDMDL
MODEL 5
REMARK VINA RESULT:      -7.1      2.910      5.333
REMARK  5 active torsions:
REMARK  status: ('A' for Active; 'I' for Inactive)
REMARK    1  A    between atoms: C2_2  and  C3_3 
REMARK    2  A    between atoms: C8_9  and  N2_10 
REMARK    3  A    between atoms: N2_10  and  C9_11 
REMARK    4  A    between atoms: C12_15  and  N3_16 
REMARK    5  A    between atoms: N3_16  and  C13_17 
ROOT
HETATM    1  C3  UNL     1      24.991   3.298  50.306  1.00  0.00     0.008 A 
HETATM    2  C4  UNL     1      24.118   3.116  49.255  1.00  0.00     0.131 A 
HETATM    3  N1  UNL     1      23.013   2.334  49.413  1.00  0.00    -0.259 NA
HETATM    4  C5  UNL     1      22.751   1.727  50.584  1.00  0.00     0.069 A 
HETATM    5  C6  UNL     1      21.652   0.936  50.769  1.00  0.00     0.035 A 
HETATM    6  C7  UNL     1      21.392   0.319  51.973  1.00  0.00     0.032 A 
HETATM    7  C8  UNL     1      22.221   0.458  53.060  1.00  0.00     0.035 A 
HETATM    8  C10 UNL     1      23.312   1.257  52.836  1.00  0.00     0.045 A 
HETATM    9  C11 UNL     1      23.610   1.893  51.651  1.00  0.00     0.022 A 
HETATM   10  C12 UNL     1      24.735   2.682  51.513  1.00  0.00     0.057 A 
ENDROOT
BRANCH  10  11
HETATM   11  N3  UNL     1      25.617   2.858  52.597  1.00  0.00    -0.355 N 
HETATM   12  H10 UNL     1      25.405   3.644  53.274  1.00  0.00     0.166 HD
BRANCH  11  13
HETATM   13  C13 UNL     1      26.784   2.105  52.919  1.00  0.00     0.032 A 
HETATM   14  C14 UNL     1      27.961   2.207  53.488  1.00  0.00     0.029 A 
HETATM   15  C15 UNL     1      28.265   0.817  53.233  1.00  0.00     0.004 A 
HETATM   16  C16 UNL     1      27.094   0.687  52.658  1.00  0.00     0.029 A 
ENDBRANCH  11  13
ENDBRANCH  10  11
BRANCH   1  17
HETATM   17  C2  UNL     1      26.179   4.130  50.167  1.00  0.00     0.005 C 
HETATM   18  C1  UNL     1      26.954   4.078  49.098  1.00  0.00     0.012 C 
ENDBRANCH   1  17
BRANCH   7  19
HETATM   19  N2  UNL     1      21.897  -0.203  54.268  1.00  0.00    -0.334 N 
HETATM   20  H7  UNL     1      21.510   0.369  55.062  1.00  0.00     0.168 HD
BRANCH  19  21
HETATM   21  C9  UNL     1      22.006  -1.558  54.618  1.00  0.00     0.353 C 
HETATM   22  O1  UNL     1      22.613  -1.869  55.654  1.00  0.00    -0.283 OA
ENDBRANCH  19  21
ENDBRANCH   7  19
TORSDOF 5
ENDMDL
MODEL 6
REMARK VINA RESULT:      -7.0      2.631      5.600
REMARK  5 active torsions:
REMARK  status: ('A' for Active; 'I' for Inactive)
REMARK    1  A    between atoms: C2_2  and  C3_3 
REMARK    2  A    between atoms: C8_9  and  N2_10 
REMARK    3  A    between atoms: N2_10  and  C9_11 
REMARK    4  A    between atoms: C12_15  and  N3_16 
REMARK    5  A    between atoms: N3_16  and  C13_17 
ROOT
HETATM    1  C3  UNL     1      26.647   1.246  53.670  1.00  0.00     0.008 A 
HETATM    2  C4  UNL     1      26.720   0.022  54.298  1.00  0.00     0.131 A 
HETATM    3  N1  UNL     1      25.592  -0.722  54.478  1.00  0.00    -0.259 NA
HETATM    4  C5  UNL     1      24.394  -0.285  54.052  1.00  0.00     0.069 A 
HETATM    5  C6  UNL     1      23.248  -1.010  54.220  1.00  0.00     0.035 A 
HETATM    6  C7  UNL     1      22.025  -0.555  53.779  1.00  0.00     0.032 A 
HETATM    7  C8  UNL     1      21.882   0.657  53.145  1.00  0.00     0.035 A 
HETATM    8  C10 UNL     1      23.052   1.355  52.996  1.00  0.00     0.045 A 
HETATM    9  C11 UNL     1      24.295   0.937  53.420  1.00  0.00     0.022 A 
HETATM   10  C12 UNL     1      25.424   1.706  53.227  1.00  0.00     0.057 A 
ENDROOT
BRANCH  10  11
HETATM   11  N3  UNL     1      25.332   2.956  52.582  1.00  0.00    -0.355 N 
HETATM   12  H10 UNL     1      25.221   3.812  53.195  1.00  0.00     0.166 HD
BRANCH  11  13
HETATM   13  C13 UNL     1      25.368   3.236  51.185  1.00  0.00     0.032 A 
HETATM   14  C14 UNL     1      24.595   3.488  50.156  1.00  0.00     0.029 A 
HETATM   15  C15 UNL     1      25.728   3.604  49.264  1.00  0.00     0.004 A 
HETATM   16  C16 UNL     1      26.524   3.354  50.276  1.00  0.00     0.029 A 
ENDBRANCH  11  13
ENDBRANCH  10  11
BRANCH   1  17
HETATM   17  C2  UNL     1      27.835   2.063  53.462  1.00  0.00     0.005 C 
HETATM   18  C1  UNL     1      28.993   1.777  54.030  1.00  0.00     0.012 C 
ENDBRANCH   1  17
BRANCH   7  19
HETATM   19  N2  UNL     1      20.598   1.067  52.717  1.00  0.00    -0.334 N 
HETATM   20  H7  UNL     1      19.777   0.445  52.931  1.00  0.00     0.168 HD
BRANCH  19  21
HETATM   21  C9  UNL     1      20.199   2.219  52.019  1.00  0.00     0.353 C 
HETATM   22  O1  UNL     1      19.811   3.209  52.657  1.00  0.00    -0.283 OA
ENDBRANCH  19  21
ENDBRANCH   7  19
TORSDOF 5
ENDMDL
MODEL 7
REMARK VINA RESULT:      -6.9      3.411      6.463
REMARK  5 active torsions:
REMARK  status: ('A' for Active; 'I' for Inactive)
REMARK    1  A    between atoms: C2_2  and  C3_3 
REMARK    2  A    between atoms: C8_9  and  N2_10 
REMARK    3  A    between atoms: N2_10  and  C9_11 
REMARK    4  A    between atoms: C12_15  and  N3_16 
REMARK    5  A    between atoms: N3_16  and  C13_17 
ROOT
HETATM    1  C3  UNL     1      25.688   0.583  52.872  1.00  0.00     0.008 A 
HETATM    2  C4  UNL     1      26.122  -0.210  53.913  1.00  0.00     0.131 A 
HETATM    3  N1  UNL     1      25.218  -0.883  54.680  1.00  0.00    -0.259 NA
HETATM    4  C5  UNL     1      23.898  -0.791  54.444  1.00  0.00     0.069 A 
HETATM    5  C6  UNL     1      22.971  -1.454  55.198  1.00  0.00     0.035 A 
HETATM    6  C7  UNL     1      21.621  -1.354  54.948  1.00  0.00     0.032 A 
HETATM    7  C8  UNL     1      21.121  -0.581  53.927  1.00  0.00     0.035 A 
HETATM    8  C10 UNL     1      22.081   0.068  53.194  1.00  0.00     0.045 A 
HETATM    9  C11 UNL     1      23.439  -0.003  53.408  1.00  0.00     0.022 A 
HETATM   10  C12 UNL     1      24.337   0.686  52.618  1.00  0.00     0.057 A 
ENDROOT
BRANCH  10  11
HETATM   11  N3  UNL     1      23.877   1.492  51.558  1.00  0.00    -0.355 N 
HETATM   12  H10 UNL     1      23.779   1.036  50.608  1.00  0.00     0.166 HD
BRANCH  11  13
HETATM   13  C13 UNL     1      23.516   2.871  51.587  1.00  0.00     0.032 A 
HETATM   14  C14 UNL     1      22.915   3.802  50.885  1.00  0.00     0.029 A 
HETATM   15  C15 UNL     1      23.147   4.798  51.907  1.00  0.00     0.004 A 
HETATM   16  C16 UNL     1      23.752   3.887  52.630  1.00  0.00     0.029 A 
ENDBRANCH  11  13
ENDBRANCH  10  11
BRANCH   1  17
HETATM   17  C2  UNL     1      26.630   1.313  52.034  1.00  0.00     0.005 C 
HETATM   18  C1  UNL     1      27.541   2.125  52.541  1.00  0.00     0.012 C 
ENDBRANCH   1  17
BRANCH   7  19
HETATM   19  N2  UNL     1      19.723  -0.521  53.722  1.00  0.00    -0.334 N 
HETATM   20  H7  UNL     1      19.091  -0.630  54.557  1.00  0.00     0.168 HD
BRANCH  19  21
HETATM   21  C9  UNL     1      18.986  -0.331  52.543  1.00  0.00     0.353 C 
HETATM   22  O1  UNL     1      17.787  -0.648  52.520  1.00  0.00    -0.283 OA
ENDBRANCH  19  21
ENDBRANCH   7  19
TORSDOF 5
ENDMDL
MODEL 8
REMARK VINA RESULT:      -6.9      2.567      5.298
REMARK  5 active torsions:
REMARK  status: ('A' for Active; 'I' for Inactive)
REMARK    1  A    between atoms: C2_2  and  C3_3 
REMARK    2  A    between atoms: C8_9  and  N2_10 
REMARK    3  A    between atoms: N2_10  and  C9_11 
REMARK    4  A    between atoms: C12_15  and  N3_16 
REMARK    5  A    between atoms: N3_16  and  C13_17 
ROOT
HETATM    1  C3  UNL     1      20.892  -0.111  52.746  1.00  0.00     0.008 A 
HETATM    2  C4  UNL     1      20.412  -0.833  53.818  1.00  0.00     0.131 A 
HETATM    3  N1  UNL     1      21.270  -1.284  54.776  1.00  0.00    -0.259 NA
HETATM    4  C5  UNL     1      22.589  -1.038  54.702  1.00  0.00     0.069 A 
HETATM    5  C6  UNL     1      23.470  -1.479  55.649  1.00  0.00     0.035 A 
HETATM    6  C7  UNL     1      24.821  -1.221  55.565  1.00  0.00     0.032 A 
HETATM    7  C8  UNL     1      25.366  -0.508  54.524  1.00  0.00     0.035 A 
HETATM    8  C10 UNL     1      24.451  -0.084  53.594  1.00  0.00     0.045 A 
HETATM    9  C11 UNL     1      23.094  -0.317  53.640  1.00  0.00     0.022 A 
HETATM   10  C12 UNL     1      22.244   0.149  52.658  1.00  0.00     0.057 A 
ENDROOT
BRANCH  10  11
HETATM   11  N3  UNL     1      22.751   0.886  51.569  1.00  0.00    -0.355 N 
HETATM   12  H10 UNL     1      22.910   0.365  50.661  1.00  0.00     0.166 HD
BRANCH  11  13
HETATM   13  C13 UNL     1      23.089   2.270  51.518  1.00  0.00     0.032 A 
HETATM   14  C14 UNL     1      22.618   3.464  51.783  1.00  0.00     0.029 A 
HETATM   15  C15 UNL     1      23.832   4.104  51.329  1.00  0.00     0.004 A 
HETATM   16  C16 UNL     1      24.328   2.922  51.054  1.00  0.00     0.029 A 
ENDBRANCH  11  13
ENDBRANCH  10  11
BRANCH   1  17
HETATM   17  C2  UNL     1      20.000   0.385  51.707  1.00  0.00     0.005 C 
HETATM   18  C1  UNL     1      18.730   0.027  51.640  1.00  0.00     0.012 C 
ENDBRANCH   1  17
BRANCH   7  19
HETATM   19  N2  UNL     1      26.761  -0.278  54.495  1.00  0.00    -0.334 N 
HETATM   20  H7  UNL     1      27.206   0.196  55.323  1.00  0.00     0.168 HD
BRANCH  19  21
HETATM   21  C9  UNL     1      27.711  -0.586  53.508  1.00  0.00     0.353 C 
HETATM   22  O1  UNL     1      27.889  -1.770  53.188  1.00  0.00    -0.283 OA
ENDBRANCH  19  21
ENDBRANCH   7  19
TORSDOF 5
ENDMDL
MODEL 9
REMARK VINA RESULT:      -6.8      2.854      6.456
REMARK  5 active torsions:
REMARK  status: ('A' for Active; 'I' for Inactive)
REMARK    1  A    between atoms: C2_2  and  C3_3 
REMARK    2  A    between atoms: C8_9  and  N2_10 
REMARK    3  A    between atoms: N2_10  and  C9_11 
REMARK    4  A    between atoms: C12_15  and  N3_16 
REMARK    5  A    between atoms: N3_16  and  C13_17 
ROOT
HETATM    1  C3  UNL     1      25.791   2.822  51.082  1.00  0.00     0.008 A 
HETATM    2  C4  UNL     1      27.012   2.411  51.575  1.00  0.00     0.131 A 
HETATM    3  N1  UNL     1      27.074   1.403  52.489  1.00  0.00    -0.259 NA
HETATM    4  C5  UNL     1      25.961   0.790  52.928  1.00  0.00     0.069 A 
HETATM    5  C6  UNL     1      25.996  -0.223  53.845  1.00  0.00     0.035 A 
HETATM    6  C7  UNL     1      24.850  -0.845  54.288  1.00  0.00     0.032 A 
HETATM    7  C8  UNL     1      23.602  -0.486  53.838  1.00  0.00     0.035 A 
HETATM    8  C10 UNL     1      23.608   0.534  52.921  1.00  0.00     0.045 A 
HETATM    9  C11 UNL     1      24.728   1.182  52.450  1.00  0.00     0.022 A 
HETATM   10  C12 UNL     1      24.641   2.201  51.523  1.00  0.00     0.057 A 
ENDROOT
BRANCH  10  11
HETATM   11  N3  UNL     1      23.386   2.608  51.030  1.00  0.00    -0.355 N 
HETATM   12  H10 UNL     1      22.869   3.354  51.574  1.00  0.00     0.166 HD
BRANCH  11  13
HETATM   13  C13 UNL     1      22.698   2.145  49.871  1.00  0.00     0.032 A 
HETATM   14  C14 UNL     1      22.597   2.335  48.578  1.00  0.00     0.029 A 
HETATM   15  C15 UNL     1      21.595   1.301  48.448  1.00  0.00     0.004 A 
HETATM   16  C16 UNL     1      21.676   1.089  49.739  1.00  0.00     0.029 A 
ENDBRANCH  11  13
ENDBRANCH  10  11
BRANCH   1  17
HETATM   17  C2  UNL     1      25.693   3.896  50.103  1.00  0.00     0.005 C 
HETATM   18  C1  UNL     1      26.675   4.178  49.267  1.00  0.00     0.012 C 
ENDBRANCH   1  17
BRANCH   7  19
HETATM   19  N2  UNL     1      22.464  -1.164  54.334  1.00  0.00    -0.334 N 
HETATM   20  H7  UNL     1      22.589  -2.137  54.714  1.00  0.00     0.168 HD
BRANCH  19  21
HETATM   21  C9  UNL     1      21.125  -0.751  54.414  1.00  0.00     0.353 C 
HETATM   22  O1  UNL     1      20.857   0.333  54.954  1.00  0.00    -0.283 OA
ENDBRANCH  19  21
ENDBRANCH   7  19
TORSDOF 5
ENDMDL
