MODEL 1
REMARK VINA RESULT:      -7.1      0.000      0.000
REMARK  5 active torsions:
REMARK  status: ('A' for Active; 'I' for Inactive)
REMARK    1  A    between atoms: C7_9  and  N3_10 
REMARK    2  A    between atoms: N3_10  and  C8_11 
REMARK    3  A    between atoms: C9_12  and  C10_13 
REMARK    4  A    between atoms: C11_14  and  C12_16 
REMARK    5  A    between atoms: C14_19  and  O1_20 
ROOT
HETATM    1  C1  UNL     1      22.684   2.630  51.076  1.00  0.00     0.018 C 
HETATM    2  C2  UNL     1      23.064   1.804  51.881  1.00  0.00    -0.074 C 
HETATM    3  C3  UNL     1      23.501   0.827  52.850  1.00  0.00     0.062 A 
HETATM    4  C4  UNL     1      24.686   0.756  53.473  1.00  0.00     0.036 A 
HETATM    5  C5  UNL     1      24.577  -0.433  54.346  1.00  0.00     0.072 A 
HETATM    6  N1  UNL     1      25.638  -0.674  55.041  1.00  0.00    -0.242 NA
HETATM    7  C6  UNL     1      26.778   0.191  54.912  1.00  0.00     0.230 A 
HETATM    8  N2  UNL     1      26.900   1.232  54.161  1.00  0.00    -0.252 NA
HETATM    9  C7  UNL     1      25.819   1.674  53.300  1.00  0.00     0.244 A 
HETATM   10  C13 UNL     1      23.243  -1.019  54.163  1.00  0.00     0.070 A 
HETATM   11  C14 UNL     1      22.624  -0.258  53.275  1.00  0.00     0.089 A 
ENDROOT
BRANCH  11  12
HETATM   12  O1  UNL     1      21.337  -0.580  52.910  1.00  0.00    -0.354 OA
HETATM   13  C15 UNL     1      20.159  -0.093  53.467  1.00  0.00     0.210 C 
ENDBRANCH  11  12
BRANCH   9  14
HETATM   14  N3  UNL     1      26.356   1.644  51.933  1.00  0.00    -0.373 N 
HETATM   15  H4  UNL     1      26.382   0.739  51.408  1.00  0.00     0.161 HD
BRANCH  14  16
HETATM   16  C8  UNL     1      26.874   2.778  51.208  1.00  0.00     0.085 C 
HETATM   17  C9  UNL     1      26.417   3.022  49.972  1.00  0.00     0.018 C 
BRANCH  17  18
HETATM   18  C10 UNL     1      26.906   4.155  49.195  1.00  0.00     0.023 C 
HETATM   19  C11 UNL     1      26.266   5.309  49.215  1.00  0.00     0.040 C 
HETATM   20 CL1  UNL     1      24.823   5.478  50.180  1.00  0.00    -0.086 Cl
BRANCH  19  21
HETATM   21  C12 UNL     1      26.738   6.468  48.440  1.00  0.00     0.273 C 
HETATM   22  F1  UNL     1      27.955   6.164  47.837  1.00  0.00    -0.250 F 
ENDBRANCH  19  21
ENDBRANCH  17  18
ENDBRANCH  14  16
ENDBRANCH   9  14
TORSDOF 5
ENDMDL
MODEL 2
REMARK VINA RESULT:      -7.0      3.480      5.160
REMARK  5 active torsions:
REMARK  status: ('A' for Active; 'I' for Inactive)
REMARK    1  A    between atoms: C7_9  and  N3_10 
REMARK    2  A    between atoms: N3_10  and  C8_11 
REMARK    3  A    between atoms: C9_12  and  C10_13 
REMARK    4  A    between atoms: C11_14  and  C12_16 
REMARK    5  A    between atoms: C14_19  and  O1_20 
ROOT
HETATM    1  C1  UNL     1      23.850  -0.753  54.067  1.00  0.00     0.018 C 
HETATM    2  C2  UNL     1      23.211   0.164  53.591  1.00  0.00    -0.074 C 
HETATM    3  C3  UNL     1      22.443   1.242  53.015  1.00  0.00     0.062 A 
HETATM    4  C4  UNL     1      22.898   2.338  52.392  1.00  0.00     0.036 A 
HETATM    5  C5  UNL     1      21.679   3.084  52.012  1.00  0.00     0.072 A 
HETATM    6  N1  UNL     1      21.912   4.191  51.390  1.00  0.00    -0.242 NA
HETATM    7  C6  UNL     1      23.270   4.584  51.133  1.00  0.00     0.230 A 
HETATM    8  N2  UNL     1      24.350   3.954  51.452  1.00  0.00    -0.252 NA
HETATM    9  C7  UNL     1      24.305   2.687  52.158  1.00  0.00     0.244 A 
HETATM   10  C13 UNL     1      20.510   2.322  52.470  1.00  0.00     0.070 A 
HETATM   11  C14 UNL     1      20.985   1.236  53.060  1.00  0.00     0.089 A 
ENDROOT
BRANCH  11  12
HETATM   12  O1  UNL     1      20.098   0.329  53.589  1.00  0.00    -0.354 OA
HETATM   13  C15 UNL     1      19.186  -0.459  52.894  1.00  0.00     0.210 C 
ENDBRANCH  11  12
BRANCH   9  14
HETATM   14  N3  UNL     1      25.042   2.900  53.411  1.00  0.00    -0.373 N 
HETATM   15  H4  UNL     1      24.698   3.610  54.098  1.00  0.00     0.161 HD
BRANCH  14  16
HETATM   16  C8  UNL     1      26.241   2.204  53.810  1.00  0.00     0.085 C 
HETATM   17  C9  UNL     1      26.840   1.386  52.934  1.00  0.00     0.018 C 
BRANCH  17  18
HETATM   18  C10 UNL     1      28.053   0.659  53.286  1.00  0.00     0.023 C 
HETATM   19  C11 UNL     1      28.139  -0.643  53.083  1.00  0.00     0.040 C 
HETATM   20 CL1  UNL     1      26.788  -1.498  52.386  1.00  0.00    -0.086 Cl
BRANCH  19  21
HETATM   21  C12 UNL     1      29.353  -1.401  53.428  1.00  0.00     0.273 C 
HETATM   22  F1  UNL     1      30.416  -0.521  53.615  1.00  0.00    -0.250 F 
ENDBRANCH  19  21
ENDBRANCH  17  18
ENDBRANCH  14  16
ENDBRANCH   9  14
TORSDOF 5
ENDMDL
MODEL 3
REMARK VINA RESULT:      -6.9      4.001      5.565
REMARK  5 active torsions:
REMARK  status: ('A' for Active; 'I' for Inactive)
REMARK    1  A    between atoms: C7_9  and  N3_10 
REMARK    2  A    between atoms: N3_10  and  C8_11 
REMARK    3  A    between atoms: C9_12  and  C10_13 
REMARK    4  A    between atoms: C11_14  and  C12_16 
REMARK    5  A    between atoms: C14_19  and  O1_20 
ROOT
HETATM    1  C1  UNL     1      22.262  -0.940  54.958  1.00  0.00     0.018 C 
HETATM    2  C2  UNL     1      21.672  -0.528  53.978  1.00  0.00    -0.074 C 
HETATM    3  C3  UNL     1      20.966  -0.058  52.811  1.00  0.00     0.062 A 
HETATM    4  C4  UNL     1      21.461   0.616  51.764  1.00  0.00     0.036 A 
HETATM    5  C5  UNL     1      20.298   0.834  50.876  1.00  0.00     0.072 A 
HETATM    6  N1  UNL     1      20.576   1.479  49.793  1.00  0.00    -0.242 NA
HETATM    7  C6  UNL     1      21.926   1.909  49.554  1.00  0.00     0.230 A 
HETATM    8  N2  UNL     1      22.957   1.733  50.308  1.00  0.00    -0.252 NA
HETATM    9  C7  UNL     1      22.857   1.031  51.574  1.00  0.00     0.244 A 
HETATM   10  C13 UNL     1      19.117   0.231  51.507  1.00  0.00     0.070 A 
HETATM   11  C14 UNL     1      19.535  -0.291  52.650  1.00  0.00     0.089 A 
ENDROOT
BRANCH  11  12
HETATM   12  O1  UNL     1      18.624  -0.930  53.458  1.00  0.00    -0.354 OA
HETATM   13  C15 UNL     1      17.422  -1.513  53.072  1.00  0.00     0.210 C 
ENDBRANCH  11  12
BRANCH   9  14
HETATM   14  N3  UNL     1      23.299   1.985  52.599  1.00  0.00    -0.373 N 
HETATM   15  H4  UNL     1      22.626   2.697  52.966  1.00  0.00     0.161 HD
BRANCH  14  16
HETATM   16  C8  UNL     1      24.618   2.047  53.179  1.00  0.00     0.085 C 
HETATM   17  C9  UNL     1      25.262   0.904  53.452  1.00  0.00     0.018 C 
BRANCH  17  18
HETATM   18  C10 UNL     1      26.597   0.910  54.038  1.00  0.00     0.023 C 
HETATM   19  C11 UNL     1      27.451  -0.061  53.771  1.00  0.00     0.040 C 
HETATM   20 CL1  UNL     1      26.976  -1.360  52.708  1.00  0.00    -0.086 Cl
BRANCH  19  21
HETATM   21  C12 UNL     1      28.805  -0.079  54.348  1.00  0.00     0.273 C 
HETATM   22  F1  UNL     1      29.609  -0.958  53.627  1.00  0.00    -0.250 F 
ENDBRANCH  19  21
ENDBRANCH  17  18
ENDBRANCH  14  16
ENDBRANCH   9  14
TORSDOF 5
ENDMDL
MODEL 4
REMARK VINA RESULT:      -6.7      3.487      5.112
REMARK  5 active torsions:
REMARK  status: ('A' for Active; 'I' for Inactive)
REMARK    1  A    between atoms: C7_9  and  N3_10 
REMARK    2  A    between atoms: N3_10  and  C8_11 
REMARK    3  A    between atoms: C9_12  and  C10_13 
REMARK    4  A    between atoms: C11_14  and  C12_16 
REMARK    5  A    between atoms: C14_19  and  O1_20 
ROOT
HETATM    1  C1  UNL     1      24.484   2.343  51.064  1.00  0.00     0.018 C 
HETATM    2  C2  UNL     1      23.441   1.791  51.351  1.00  0.00    -0.074 C 
HETATM    3  C3  UNL     1      22.193   1.152  51.693  1.00  0.00     0.062 A 
HETATM    4  C4  UNL     1      21.935   0.348  52.733  1.00  0.00     0.036 A 
HETATM    5  C5  UNL     1      20.508  -0.009  52.586  1.00  0.00     0.072 A 
HETATM    6  N1  UNL     1      20.063  -0.793  53.510  1.00  0.00    -0.242 NA
HETATM    7  C6  UNL     1      20.950  -1.231  54.551  1.00  0.00     0.230 A 
HETATM    8  N2  UNL     1      22.196  -0.937  54.705  1.00  0.00    -0.252 NA
HETATM    9  C7  UNL     1      22.888  -0.067  53.771  1.00  0.00     0.244 A 
HETATM   10  C13 UNL     1      19.988   0.658  51.385  1.00  0.00     0.070 A 
HETATM   11  C14 UNL     1      21.001   1.339  50.873  1.00  0.00     0.089 A 
ENDROOT
BRANCH  11  12
HETATM   12  O1  UNL     1      20.795   2.070  49.726  1.00  0.00    -0.354 OA
HETATM   13  C15 UNL     1      21.259   1.777  48.448  1.00  0.00     0.210 C 
ENDBRANCH  11  12
BRANCH   9  14
HETATM   14  N3  UNL     1      23.995  -0.864  53.225  1.00  0.00    -0.373 N 
HETATM   15  H4  UNL     1      23.808  -1.546  52.454  1.00  0.00     0.161 HD
BRANCH  14  16
HETATM   16  C8  UNL     1      25.369  -0.803  53.658  1.00  0.00     0.085 C 
HETATM   17  C9  UNL     1      26.336  -0.688  52.738  1.00  0.00     0.018 C 
BRANCH  17  18
HETATM   18  C10 UNL     1      27.741  -0.622  53.121  1.00  0.00     0.023 C 
HETATM   19  C11 UNL     1      28.314   0.541  53.374  1.00  0.00     0.040 C 
HETATM   20 CL1  UNL     1      27.380   2.008  53.247  1.00  0.00    -0.086 Cl
BRANCH  19  21
HETATM   21  C12 UNL     1      29.730   0.636  53.762  1.00  0.00     0.273 C 
HETATM   22  F1  UNL     1      30.294  -0.637  53.792  1.00  0.00    -0.250 F 
ENDBRANCH  19  21
ENDBRANCH  17  18
ENDBRANCH  14  16
ENDBRANCH   9  14
TORSDOF 5
ENDMDL
MODEL 5
REMARK VINA RESULT:      -6.6      4.529      7.036
REMARK  5 active torsions:
REMARK  status: ('A' for Active; 'I' for Inactive)
REMARK    1  A    between atoms: C7_9  and  N3_10 
REMARK    2  A    between atoms: N3_10  and  C8_11 
REMARK    3  A    between atoms: C9_12  and  C10_13 
REMARK    4  A    between atoms: C11_14  and  C12_16 
REMARK    5  A    between atoms: C14_19  and  O1_20 
ROOT
HETATM    1  C1  UNL     1      22.721  -1.074  54.579  1.00  0.00     0.018 C 
HETATM    2  C2  UNL     1      23.539  -0.485  53.901  1.00  0.00    -0.074 C 
HETATM    3  C3  UNL     1      24.523   0.215  53.110  1.00  0.00     0.062 A 
HETATM    4  C4  UNL     1      24.395   1.397  52.492  1.00  0.00     0.036 A 
HETATM    5  C5  UNL     1      25.704   1.622  51.841  1.00  0.00     0.072 A 
HETATM    6  N1  UNL     1      25.781   2.730  51.183  1.00  0.00    -0.242 NA
HETATM    7  C6  UNL     1      24.644   3.607  51.141  1.00  0.00     0.230 A 
HETATM    8  N2  UNL     1      23.493   3.437  51.698  1.00  0.00    -0.252 NA
HETATM    9  C7  UNL     1      23.201   2.253  52.485  1.00  0.00     0.244 A 
HETATM   10  C13 UNL     1      26.571   0.476  52.143  1.00  0.00     0.070 A 
HETATM   11  C14 UNL     1      25.853  -0.343  52.894  1.00  0.00     0.089 A 
ENDROOT
BRANCH  11  12
HETATM   12  O1  UNL     1      26.426  -1.515  53.329  1.00  0.00    -0.354 OA
HETATM   13  C15 UNL     1      27.293  -2.341  52.621  1.00  0.00     0.210 C 
ENDBRANCH  11  12
BRANCH   9  14
HETATM   14  N3  UNL     1      22.057   1.607  51.828  1.00  0.00    -0.373 N 
HETATM   15  H4  UNL     1      22.098   1.402  50.803  1.00  0.00     0.161 HD
BRANCH  14  16
HETATM   16  C8  UNL     1      20.831   1.208  52.475  1.00  0.00     0.085 C 
HETATM   17  C9  UNL     1      20.231   0.074  52.087  1.00  0.00     0.018 C 
BRANCH  17  18
HETATM   18  C10 UNL     1      18.991  -0.376  52.708  1.00  0.00     0.023 C 
HETATM   19  C11 UNL     1      17.865  -0.399  52.019  1.00  0.00     0.040 C 
HETATM   20 CL1  UNL     1      17.863   0.112  50.352  1.00  0.00    -0.086 Cl
BRANCH  19  21
HETATM   21  C12 UNL     1      16.600  -0.849  52.622  1.00  0.00     0.273 C 
HETATM   22  F1  UNL     1      16.760  -2.129  53.147  1.00  0.00    -0.250 F 
ENDBRANCH  19  21
ENDBRANCH  17  18
ENDBRANCH  14  16
ENDBRANCH   9  14
TORSDOF 5
ENDMDL
MODEL 6
REMARK VINA RESULT:      -6.5      3.351      4.559
REMARK  5 active torsions:
REMARK  status: ('A' for Active; 'I' for Inactive)
REMARK    1  A    between atoms: C7_9  and  N3_10 
REMARK    2  A    between atoms: N3_10  and  C8_11 
REMARK    3  A    between atoms: C9_12  and  C10_13 
REMARK    4  A    between atoms: C11_14  and  C12_16 
REMARK    5  A    between atoms: C14_19  and  O1_20 
ROOT
HETATM    1  C1  UNL     1      26.133   1.640  51.683  1.00  0.00     0.018 C 
HETATM    2  C2  UNL     1      25.627   0.971  52.562  1.00  0.00    -0.074 C 
HETATM    3  C3  UNL     1      25.038   0.163  53.602  1.00  0.00     0.062 A 
HETATM    4  C4  UNL     1      23.762  -0.230  53.720  1.00  0.00     0.036 A 
HETATM    5  C5  UNL     1      23.730  -1.030  54.964  1.00  0.00     0.072 A 
HETATM    6  N1  UNL     1      22.565  -1.504  55.254  1.00  0.00    -0.242 NA
HETATM    7  C6  UNL     1      21.454  -1.228  54.386  1.00  0.00     0.230 A 
HETATM    8  N2  UNL     1      21.453  -0.536  53.298  1.00  0.00    -0.252 NA
HETATM    9  C7  UNL     1      22.664   0.086  52.796  1.00  0.00     0.244 A 
HETATM   10  C13 UNL     1      25.084  -1.054  55.531  1.00  0.00     0.070 A 
HETATM   11  C14 UNL     1      25.842  -0.343  54.710  1.00  0.00     0.089 A 
ENDROOT
BRANCH  11  12
HETATM   12  O1  UNL     1      27.177  -0.197  55.001  1.00  0.00    -0.354 OA
HETATM   13  C15 UNL     1      28.256  -0.484  54.171  1.00  0.00     0.210 C 
ENDBRANCH  11  12
BRANCH   9  14
HETATM   14  N3  UNL     1      22.382   1.526  52.738  1.00  0.00    -0.373 N 
HETATM   15  H4  UNL     1      22.092   2.031  53.607  1.00  0.00     0.161 HD
BRANCH  14  16
HETATM   16  C8  UNL     1      22.466   2.353  51.559  1.00  0.00     0.085 C 
HETATM   17  C9  UNL     1      22.760   1.780  50.384  1.00  0.00     0.018 C 
BRANCH  17  18
HETATM   18  C10 UNL     1      22.856   2.569  49.162  1.00  0.00     0.023 C 
HETATM   19  C11 UNL     1      21.858   2.595  48.298  1.00  0.00     0.040 C 
HETATM   20 CL1  UNL     1      20.411   1.677  48.626  1.00  0.00    -0.086 Cl
BRANCH  19  21
HETATM   21  C12 UNL     1      21.929   3.383  47.058  1.00  0.00     0.273 C 
HETATM   22  F1  UNL     1      22.723   4.508  47.263  1.00  0.00    -0.250 F 
ENDBRANCH  19  21
ENDBRANCH  17  18
ENDBRANCH  14  16
ENDBRANCH   9  14
TORSDOF 5
ENDMDL
MODEL 7
REMARK VINA RESULT:      -6.4      2.594      3.890
REMARK  5 active torsions:
REMARK  status: ('A' for Active; 'I' for Inactive)
REMARK    1  A    between atoms: C7_9  and  N3_10 
REMARK    2  A    between atoms: N3_10  and  C8_11 
REMARK    3  A    between atoms: C9_12  and  C10_13 
REMARK    4  A    between atoms: C11_14  and  C12_16 
REMARK    5  A    between atoms: C14_19  and  O1_20 
ROOT
HETATM    1  C1  UNL     1      26.669   2.065  51.233  1.00  0.00     0.018 C 
HETATM    2  C2  UNL     1      26.027   1.368  51.995  1.00  0.00    -0.074 C 
HETATM    3  C3  UNL     1      25.273   0.526  52.891  1.00  0.00     0.062 A 
HETATM    4  C4  UNL     1      23.941   0.427  53.006  1.00  0.00     0.036 A 
HETATM    5  C5  UNL     1      23.732  -0.579  54.071  1.00  0.00     0.072 A 
HETATM    6  N1  UNL     1      22.491  -0.817  54.333  1.00  0.00    -0.242 NA
HETATM    7  C6  UNL     1      21.468  -0.119  53.604  1.00  0.00     0.230 A 
HETATM    8  N2  UNL     1      21.621   0.761  52.673  1.00  0.00    -0.252 NA
HETATM    9  C7  UNL     1      22.941   1.171  52.230  1.00  0.00     0.244 A 
HETATM   10  C13 UNL     1      25.047  -1.034  54.540  1.00  0.00     0.070 A 
HETATM   11  C14 UNL     1      25.944  -0.368  53.829  1.00  0.00     0.089 A 
ENDROOT
BRANCH  11  12
HETATM   12  O1  UNL     1      27.279  -0.600  54.062  1.00  0.00    -0.354 OA
HETATM   13  C15 UNL     1      28.156   0.196  54.791  1.00  0.00     0.210 C 
ENDBRANCH  11  12
BRANCH   9  14
HETATM   14  N3  UNL     1      23.014   2.618  52.470  1.00  0.00    -0.373 N 
HETATM   15  H4  UNL     1      23.212   2.972  53.434  1.00  0.00     0.161 HD
BRANCH  14  16
HETATM   16  C8  UNL     1      22.833   3.646  51.475  1.00  0.00     0.085 C 
HETATM   17  C9  UNL     1      23.370   3.476  50.259  1.00  0.00     0.018 C 
BRANCH  17  18
HETATM   18  C10 UNL     1      23.217   4.482  49.216  1.00  0.00     0.023 C 
HETATM   19  C11 UNL     1      24.168   5.371  48.995  1.00  0.00     0.040 C 
HETATM   20 CL1  UNL     1      25.621   5.337  49.960  1.00  0.00    -0.086 Cl
BRANCH  19  21
HETATM   21  C12 UNL     1      24.039   6.398  47.949  1.00  0.00     0.273 C 
HETATM   22  F1  UNL     1      23.076   6.004  47.023  1.00  0.00    -0.250 F 
ENDBRANCH  19  21
ENDBRANCH  17  18
ENDBRANCH  14  16
ENDBRANCH   9  14
TORSDOF 5
ENDMDL
MODEL 8
REMARK VINA RESULT:      -6.4      4.417      7.709
REMARK  5 active torsions:
REMARK  status: ('A' for Active; 'I' for Inactive)
REMARK    1  A    between atoms: C7_9  and  N3_10 
REMARK    2  A    between atoms: N3_10  and  C8_11 
REMARK    3  A    between atoms: C9_12  and  C10_13 
REMARK    4  A    between atoms: C11_14  and  C12_16 
REMARK    5  A    between atoms: C14_19  and  O1_20 
ROOT
HETATM    1  C1  UNL     1      26.574   2.096  51.136  1.00  0.00     0.018 C 
HETATM    2  C2  UNL     1      26.286   3.149  50.603  1.00  0.00    -0.074 C 
HETATM    3  C3  UNL     1      25.960   4.409  49.979  1.00  0.00     0.062 A 
HETATM    4  C4  UNL     1      24.854   5.149  50.141  1.00  0.00     0.036 A 
HETATM    5  C5  UNL     1      25.058   6.323  49.265  1.00  0.00     0.072 A 
HETATM    6  N1  UNL     1      24.083   7.169  49.283  1.00  0.00    -0.242 NA
HETATM    7  C6  UNL     1      22.939   6.909  50.112  1.00  0.00     0.230 A 
HETATM    8  N2  UNL     1      22.734   5.897  50.884  1.00  0.00    -0.252 NA
HETATM    9  C7  UNL     1      23.711   4.830  51.007  1.00  0.00     0.244 A 
HETATM   10  C13 UNL     1      26.361   6.182  48.602  1.00  0.00     0.070 A 
HETATM   11  C14 UNL     1      26.877   5.044  49.039  1.00  0.00     0.089 A 
ENDROOT
BRANCH  11  12
HETATM   12  O1  UNL     1      28.112   4.657  48.575  1.00  0.00    -0.354 OA
HETATM   13  C15 UNL     1      29.169   5.482  48.208  1.00  0.00     0.210 C 
ENDBRANCH  11  12
BRANCH   9  14
HETATM   14  N3  UNL     1      23.021   3.603  50.588  1.00  0.00    -0.373 N 
HETATM   15  H4  UNL     1      22.971   3.359  49.572  1.00  0.00     0.161 HD
BRANCH  14  16
HETATM   16  C8  UNL     1      22.376   2.659  51.468  1.00  0.00     0.085 C 
HETATM   17  C9  UNL     1      22.662   1.356  51.345  1.00  0.00     0.018 C 
BRANCH  17  18
HETATM   18  C10 UNL     1      22.040   0.360  52.208  1.00  0.00     0.023 C 
HETATM   19  C11 UNL     1      22.727  -0.208  53.182  1.00  0.00     0.040 C 
HETATM   20 CL1  UNL     1      24.393   0.240  53.437  1.00  0.00    -0.086 Cl
BRANCH  19  21
HETATM   21  C12 UNL     1      22.123  -1.216  54.068  1.00  0.00     0.273 C 
HETATM   22  F1  UNL     1      21.922  -0.668  55.333  1.00  0.00    -0.250 F 
ENDBRANCH  19  21
ENDBRANCH  17  18
ENDBRANCH  14  16
ENDBRANCH   9  14
TORSDOF 5
ENDMDL
MODEL 9
REMARK VINA RESULT:      -6.3      4.582      7.111
REMARK  5 active torsions:
REMARK  status: ('A' for Active; 'I' for Inactive)
REMARK    1  A    between atoms: C7_9  and  N3_10 
REMARK    2  A    between atoms: N3_10  and  C8_11 
REMARK    3  A    between atoms: C9_12  and  C10_13 
REMARK    4  A    between atoms: C11_14  and  C12_16 
REMARK    5  A    between atoms: C14_19  and  O1_20 
ROOT
HETATM    1  C1  UNL     1      22.259   1.851  51.162  1.00  0.00     0.018 C 
HETATM    2  C2  UNL     1      23.044   1.404  51.975  1.00  0.00    -0.074 C 
HETATM    3  C3  UNL     1      23.987   0.867  52.927  1.00  0.00     0.062 A 
HETATM    4  C4  UNL     1      23.771  -0.060  53.869  1.00  0.00     0.036 A 
HETATM    5  C5  UNL     1      25.078  -0.221  54.543  1.00  0.00     0.072 A 
HETATM    6  N1  UNL     1      25.074  -1.088  55.499  1.00  0.00    -0.242 NA
HETATM    7  C6  UNL     1      23.859  -1.788  55.813  1.00  0.00     0.230 A 
HETATM    8  N2  UNL     1      22.708  -1.669  55.244  1.00  0.00    -0.252 NA
HETATM    9  C7  UNL     1      22.500  -0.745  54.144  1.00  0.00     0.244 A 
HETATM   10  C13 UNL     1      26.040   0.687  53.904  1.00  0.00     0.070 A 
HETATM   11  C14 UNL     1      25.373   1.320  52.951  1.00  0.00     0.089 A 
ENDROOT
BRANCH  11  12
HETATM   12  O1  UNL     1      26.039   2.245  52.181  1.00  0.00    -0.354 OA
HETATM   13  C15 UNL     1      26.593   2.047  50.921  1.00  0.00     0.210 C 
ENDBRANCH  11  12
BRANCH   9  14
HETATM   14  N3  UNL     1      21.454   0.184  54.592  1.00  0.00    -0.373 N 
HETATM   15  H4  UNL     1      21.633   0.806  55.413  1.00  0.00     0.161 HD
BRANCH  14  16
HETATM   16  C8  UNL     1      20.150   0.333  53.995  1.00  0.00     0.085 C 
HETATM   17  C9  UNL     1      19.778  -0.515  53.025  1.00  0.00     0.018 C 
BRANCH  17  18
HETATM   18  C10 UNL     1      18.472  -0.409  52.388  1.00  0.00     0.023 C 
HETATM   19  C11 UNL     1      17.523  -1.290  52.650  1.00  0.00     0.040 C 
HETATM   20 CL1  UNL     1      17.839  -2.589  53.769  1.00  0.00    -0.086 Cl
BRANCH  19  21
HETATM   21  C12 UNL     1      16.196  -1.206  52.021  1.00  0.00     0.273 C 
HETATM   22  F1  UNL     1      16.339  -1.013  50.649  1.00  0.00    -0.250 F 
ENDBRANCH  19  21
ENDBRANCH  17  18
ENDBRANCH  14  16
ENDBRANCH   9  14
TORSDOF 5
ENDMDL
