MODEL 1
REMARK VINA RESULT:      -9.7      0.000      0.000
REMARK  6 active torsions:
REMARK  status: ('A' for Active; 'I' for Inactive)
REMARK    1  A    between atoms: C3_4  and  C4_5 
REMARK    2  A    between atoms: C14_15  and  C15_16 
REMARK    3  A    between atoms: C15_16  and  C16_17 
REMARK    4  A    between atoms: C17_19  and  C18_20 
REMARK    5  A    between atoms: C20_22  and  O1_23 
REMARK    6  A    between atoms: C24_29  and  N5_30 
ROOT
HETATM    1  C16 UNL     1      27.482   5.462  48.645  1.00  0.00     0.071 A 
HETATM    2  N2  UNL     1      28.674   4.950  48.242  1.00  0.00    -0.236 NA
HETATM    3  C17 UNL     1      29.580   5.942  48.197  1.00  0.00     0.115 A 
HETATM    4  N3  UNL     1      28.967   7.089  48.571  1.00  0.00    -0.303 N 
HETATM    5  C22 UNL     1      29.381   8.360  48.705  1.00  0.00     0.118 A 
HETATM    6  C23 UNL     1      28.608   9.420  49.103  1.00  0.00     0.136 A 
HETATM    7  N4  UNL     1      27.317   9.119  49.378  1.00  0.00    -0.240 NA
HETATM    8  C24 UNL     1      26.840   7.857  49.261  1.00  0.00     0.150 A 
HETATM    9  C25 UNL     1      27.683   6.817  48.850  1.00  0.00     0.111 A 
ENDROOT
BRANCH   1  10
HETATM   10  C15 UNL     1      26.167   4.745  48.843  1.00  0.00     0.090 C 
BRANCH  10  11
HETATM   11  C14 UNL     1      26.186   3.817  49.965  1.00  0.00    -0.007 C 
HETATM   12  C13 UNL     1      25.413   3.030  50.667  1.00  0.00    -0.009 A 
HETATM   13  C2  UNL     1      25.920   2.275  51.733  1.00  0.00     0.046 A 
HETATM   14  C11 UNL     1      24.049   2.915  50.377  1.00  0.00    -0.048 A 
HETATM   15  C1  UNL     1      27.187   2.345  52.050  1.00  0.00     0.066 C 
HETATM   16  N1  UNL     1      25.102   1.479  52.431  1.00  0.00    -0.252 NA
HETATM   17  C3  UNL     1      23.798   1.346  52.179  1.00  0.00     0.068 A 
HETATM   18  C10 UNL     1      23.266   2.070  51.143  1.00  0.00     0.040 A 
HETATM   19  C12 UNL     1      23.376   3.658  49.293  1.00  0.00     0.049 C 
BRANCH  17  20
HETATM   20  C4  UNL     1      23.043   0.439  53.031  1.00  0.00    -0.007 A 
HETATM   21  C5  UNL     1      21.666   0.438  52.960  1.00  0.00     0.014 A 
HETATM   22  C6  UNL     1      20.881  -0.385  53.728  1.00  0.00     0.001 A 
HETATM   23  C7  UNL     1      21.455  -1.253  54.613  1.00  0.00     0.000 A 
HETATM   24  C8  UNL     1      22.838  -1.252  54.685  1.00  0.00     0.001 A 
HETATM   25  C9  UNL     1      23.661  -0.423  53.913  1.00  0.00     0.014 A 
ENDBRANCH  17  20
ENDBRANCH  10  11
ENDBRANCH   1  10
BRANCH   3  26
HETATM   26  C18 UNL     1      30.995   5.798  47.798  1.00  0.00     0.060 C 
HETATM   27  C19 UNL     1      31.330   4.398  47.260  1.00  0.00     0.044 C 
HETATM   28  C20 UNL     1      32.688   4.587  47.905  1.00  0.00     0.119 C 
HETATM   29  C21 UNL     1      31.975   5.524  48.890  1.00  0.00     0.044 C 
BRANCH  28  30
HETATM   30  O1  UNL     1      33.209   3.447  48.508  1.00  0.00    -0.396 OA
HETATM   31  H19 UNL     1      33.265   3.664  49.492  1.00  0.00     0.210 HD
ENDBRANCH  28  30
ENDBRANCH   3  26
BRANCH   8  32
HETATM   32  N5  UNL     1      25.469   7.576  49.560  1.00  0.00    -0.382 N 
HETATM   33  H24 UNL     1      25.315   6.598  49.184  1.00  0.00     0.157 HD
HETATM   34  H25 UNL     1      24.762   8.173  50.035  1.00  0.00     0.157 HD
ENDBRANCH   8  32
TORSDOF 6
ENDMDL
MODEL 2
REMARK VINA RESULT:      -9.5      3.705      6.637
REMARK  6 active torsions:
REMARK  status: ('A' for Active; 'I' for Inactive)
REMARK    1  A    between atoms: C3_4  and  C4_5 
REMARK    2  A    between atoms: C14_15  and  C15_16 
REMARK    3  A    between atoms: C15_16  and  C16_17 
REMARK    4  A    between atoms: C17_19  and  C18_20 
REMARK    5  A    between atoms: C20_22  and  O1_23 
REMARK    6  A    between atoms: C24_29  and  N5_30 
ROOT
HETATM    1  C16 UNL     1      23.596   2.104  52.017  1.00  0.00     0.071 A 
HETATM    2  N2  UNL     1      24.484   1.164  52.435  1.00  0.00    -0.236 NA
HETATM    3  C17 UNL     1      25.675   1.408  51.862  1.00  0.00     0.115 A 
HETATM    4  N3  UNL     1      25.549   2.501  51.076  1.00  0.00    -0.303 N 
HETATM    5  C22 UNL     1      26.399   3.179  50.286  1.00  0.00     0.118 A 
HETATM    6  C23 UNL     1      26.094   4.291  49.544  1.00  0.00     0.136 A 
HETATM    7  N4  UNL     1      24.813   4.715  49.644  1.00  0.00    -0.240 NA
HETATM    8  C24 UNL     1      23.910   4.075  50.422  1.00  0.00     0.150 A 
HETATM    9  C25 UNL     1      24.284   2.943  51.156  1.00  0.00     0.111 A 
ENDROOT
BRANCH   1  10
HETATM   10  C15 UNL     1      22.137   2.248  52.379  1.00  0.00     0.090 C 
BRANCH  10  11
HETATM   11  C14 UNL     1      21.581   1.052  52.996  1.00  0.00    -0.007 C 
HETATM   12  C13 UNL     1      20.534   0.269  52.971  1.00  0.00    -0.009 A 
HETATM   13  C2  UNL     1      20.440  -0.848  53.813  1.00  0.00     0.046 A 
HETATM   14  C11 UNL     1      19.468   0.520  52.100  1.00  0.00    -0.048 A 
HETATM   15  C1  UNL     1      21.408  -1.129  54.648  1.00  0.00     0.066 C 
HETATM   16  N1  UNL     1      19.357  -1.630  53.761  1.00  0.00    -0.252 NA
HETATM   17  C3  UNL     1      18.324  -1.418  52.943  1.00  0.00     0.068 A 
HETATM   18  C10 UNL     1      18.379  -0.335  52.105  1.00  0.00     0.040 A 
HETATM   19  C12 UNL     1      19.423   1.664  51.168  1.00  0.00     0.049 C 
BRANCH  17  20
HETATM   20  C4  UNL     1      17.216  -2.361  53.008  1.00  0.00    -0.007 A 
HETATM   21  C5  UNL     1      17.386  -3.556  53.675  1.00  0.00     0.014 A 
HETATM   22  C6  UNL     1      16.394  -4.497  53.783  1.00  0.00     0.001 A 
HETATM   23  C7  UNL     1      15.171  -4.275  53.216  1.00  0.00     0.000 A 
HETATM   24  C8  UNL     1      14.999  -3.074  52.546  1.00  0.00     0.001 A 
HETATM   25  C9  UNL     1      15.996  -2.098  52.422  1.00  0.00     0.014 A 
ENDBRANCH  17  20
ENDBRANCH  10  11
ENDBRANCH   1  10
BRANCH   3  26
HETATM   26  C18 UNL     1      26.903   0.608  52.054  1.00  0.00     0.060 C 
HETATM   27  C19 UNL     1      26.700  -0.588  52.999  1.00  0.00     0.044 C 
HETATM   28  C20 UNL     1      28.125  -0.340  53.451  1.00  0.00     0.119 C 
HETATM   29  C21 UNL     1      27.889   1.123  53.049  1.00  0.00     0.044 C 
BRANCH  28  30
HETATM   30  O1  UNL     1      28.339  -0.509  54.814  1.00  0.00    -0.396 OA
HETATM   31  H19 UNL     1      28.024  -1.444  55.023  1.00  0.00     0.210 HD
ENDBRANCH  28  30
ENDBRANCH   3  26
BRANCH   8  32
HETATM   32  N5  UNL     1      22.563   4.552  50.502  1.00  0.00    -0.382 N 
HETATM   33  H24 UNL     1      22.313   4.461  51.527  1.00  0.00     0.157 HD
HETATM   34  H25 UNL     1      21.944   4.912  49.745  1.00  0.00     0.157 HD
ENDBRANCH   8  32
TORSDOF 6
ENDMDL
MODEL 3
REMARK VINA RESULT:      -9.5      6.104     10.521
REMARK  6 active torsions:
REMARK  status: ('A' for Active; 'I' for Inactive)
REMARK    1  A    between atoms: C3_4  and  C4_5 
REMARK    2  A    between atoms: C14_15  and  C15_16 
REMARK    3  A    between atoms: C15_16  and  C16_17 
REMARK    4  A    between atoms: C17_19  and  C18_20 
REMARK    5  A    between atoms: C20_22  and  O1_23 
REMARK    6  A    between atoms: C24_29  and  N5_30 
ROOT
HETATM    1  C16 UNL     1      19.324   0.525  52.476  1.00  0.00     0.071 A 
HETATM    2  N2  UNL     1      19.220   1.587  51.635  1.00  0.00    -0.236 NA
HETATM    3  C17 UNL     1      18.030   1.532  51.011  1.00  0.00     0.115 A 
HETATM    4  N3  UNL     1      17.374   0.436  51.453  1.00  0.00    -0.303 N 
HETATM    5  C22 UNL     1      16.173  -0.100  51.177  1.00  0.00     0.118 A 
HETATM    6  C23 UNL     1      15.655  -1.242  51.730  1.00  0.00     0.136 A 
HETATM    7  N4  UNL     1      16.455  -1.858  52.631  1.00  0.00    -0.240 NA
HETATM    8  C24 UNL     1      17.676  -1.369  52.951  1.00  0.00     0.150 A 
HETATM    9  C25 UNL     1      18.147  -0.195  52.350  1.00  0.00     0.111 A 
ENDROOT
BRANCH   1  10
HETATM   10  C15 UNL     1      20.470   0.152  53.386  1.00  0.00     0.090 C 
BRANCH  10  11
HETATM   11  C14 UNL     1      21.770   0.529  52.849  1.00  0.00    -0.007 C 
HETATM   12  C13 UNL     1      23.053   0.333  53.016  1.00  0.00    -0.009 A 
HETATM   13  C2  UNL     1      23.998   0.960  52.191  1.00  0.00     0.046 A 
HETATM   14  C11 UNL     1      23.527  -0.512  54.025  1.00  0.00    -0.048 A 
HETATM   15  C1  UNL     1      23.610   1.761  51.232  1.00  0.00     0.066 C 
HETATM   16  N1  UNL     1      25.301   0.737  52.388  1.00  0.00    -0.252 NA
HETATM   17  C3  UNL     1      25.786  -0.062  53.340  1.00  0.00     0.068 A 
HETATM   18  C10 UNL     1      24.891  -0.693  54.166  1.00  0.00     0.040 A 
HETATM   19  C12 UNL     1      22.650  -1.227  54.974  1.00  0.00     0.049 C 
BRANCH  17  20
HETATM   20  C4  UNL     1      27.232  -0.200  53.426  1.00  0.00    -0.007 A 
HETATM   21  C5  UNL     1      27.811  -1.419  53.145  1.00  0.00     0.014 A 
HETATM   22  C6  UNL     1      29.165  -1.632  53.202  1.00  0.00     0.001 A 
HETATM   23  C7  UNL     1      30.008  -0.614  53.549  1.00  0.00     0.000 A 
HETATM   24  C8  UNL     1      29.427   0.612  53.831  1.00  0.00     0.001 A 
HETATM   25  C9  UNL     1      28.048   0.855  53.779  1.00  0.00     0.014 A 
ENDBRANCH  17  20
ENDBRANCH  10  11
ENDBRANCH   1  10
BRANCH   3  26
HETATM   26  C18 UNL     1      17.538   2.501  50.011  1.00  0.00     0.060 C 
HETATM   27  C19 UNL     1      18.667   3.299  49.338  1.00  0.00     0.044 C 
HETATM   28  C20 UNL     1      17.689   4.456  49.303  1.00  0.00     0.119 C 
HETATM   29  C21 UNL     1      17.037   3.807  50.532  1.00  0.00     0.044 C 
BRANCH  28  30
HETATM   30  O1  UNL     1      18.252   5.699  49.570  1.00  0.00    -0.396 OA
HETATM   31  H19 UNL     1      19.224   5.616  49.315  1.00  0.00     0.210 HD
ENDBRANCH  28  30
ENDBRANCH   3  26
BRANCH   8  32
HETATM   32  N5  UNL     1      18.495  -2.047  53.908  1.00  0.00    -0.382 N 
HETATM   33  H24 UNL     1      17.996  -2.965  54.076  1.00  0.00     0.157 HD
HETATM   34  H25 UNL     1      19.383  -1.736  54.355  1.00  0.00     0.157 HD
ENDBRANCH   8  32
TORSDOF 6
ENDMDL
MODEL 4
REMARK VINA RESULT:      -9.3      2.347      8.988
REMARK  6 active torsions:
REMARK  status: ('A' for Active; 'I' for Inactive)
REMARK    1  A    between atoms: C3_4  and  C4_5 
REMARK    2  A    between atoms: C14_15  and  C15_16 
REMARK    3  A    between atoms: C15_16  and  C16_17 
REMARK    4  A    between atoms: C17_19  and  C18_20 
REMARK    5  A    between atoms: C20_22  and  O1_23 
REMARK    6  A    between atoms: C24_29  and  N5_30 
ROOT
HETATM    1  C16 UNL     1      25.991   3.239  50.333  1.00  0.00     0.071 A 
HETATM    2  N2  UNL     1      26.986   2.932  51.206  1.00  0.00    -0.236 NA
HETATM    3  C17 UNL     1      26.485   2.147  52.176  1.00  0.00     0.115 A 
HETATM    4  N3  UNL     1      25.171   1.953  51.924  1.00  0.00    -0.303 N 
HETATM    5  C22 UNL     1      24.198   1.269  52.548  1.00  0.00     0.118 A 
HETATM    6  C23 UNL     1      22.891   1.179  52.145  1.00  0.00     0.136 A 
HETATM    7  N4  UNL     1      22.592   1.853  51.009  1.00  0.00    -0.240 NA
HETATM    8  C24 UNL     1      23.528   2.561  50.335  1.00  0.00     0.150 A 
HETATM    9  C25 UNL     1      24.848   2.613  50.800  1.00  0.00     0.111 A 
ENDROOT
BRANCH   1  10
HETATM   10  C15 UNL     1      26.060   4.094  49.089  1.00  0.00     0.090 C 
BRANCH  10  11
HETATM   11  C14 UNL     1      25.998   5.520  49.373  1.00  0.00    -0.007 C 
HETATM   12  C13 UNL     1      26.685   6.627  49.257  1.00  0.00    -0.009 A 
HETATM   13  C2  UNL     1      26.173   7.852  49.708  1.00  0.00     0.046 A 
HETATM   14  C11 UNL     1      27.958   6.627  48.677  1.00  0.00    -0.048 A 
HETATM   15  C1  UNL     1      24.987   7.910  50.259  1.00  0.00     0.066 C 
HETATM   16  N1  UNL     1      26.901   8.965  49.574  1.00  0.00    -0.252 NA
HETATM   17  C3  UNL     1      28.117   8.999  49.025  1.00  0.00     0.068 A 
HETATM   18  C10 UNL     1      28.651   7.820  48.573  1.00  0.00     0.040 A 
HETATM   19  C12 UNL     1      28.628   5.412  48.170  1.00  0.00     0.049 C 
BRANCH  17  20
HETATM   20  C4  UNL     1      28.781  10.292  48.953  1.00  0.00    -0.007 A 
HETATM   21  C5  UNL     1      30.159  10.342  48.937  1.00  0.00     0.014 A 
HETATM   22  C6  UNL     1      30.862  11.518  48.870  1.00  0.00     0.001 A 
HETATM   23  C7  UNL     1      30.200  12.713  48.817  1.00  0.00     0.000 A 
HETATM   24  C8  UNL     1      28.816  12.663  48.834  1.00  0.00     0.001 A 
HETATM   25  C9  UNL     1      28.076  11.476  48.901  1.00  0.00     0.014 A 
ENDBRANCH  17  20
ENDBRANCH  10  11
ENDBRANCH   1  10
BRANCH   3  26
HETATM   26  C18 UNL     1      27.245   1.602  53.320  1.00  0.00     0.060 C 
HETATM   27  C19 UNL     1      28.624   2.257  53.494  1.00  0.00     0.044 C 
HETATM   28  C20 UNL     1      29.097   0.896  53.964  1.00  0.00     0.119 C 
HETATM   29  C21 UNL     1      27.973   0.319  53.093  1.00  0.00     0.044 C 
BRANCH  28  30
HETATM   30  O1  UNL     1      30.369   0.541  53.528  1.00  0.00    -0.396 OA
HETATM   31  H19 UNL     1      30.894   0.337  54.365  1.00  0.00     0.210 HD
ENDBRANCH  28  30
ENDBRANCH   3  26
BRANCH   8  32
HETATM   32  N5  UNL     1      23.176   3.263  49.139  1.00  0.00    -0.382 N 
HETATM   33  H24 UNL     1      23.798   4.119  49.144  1.00  0.00     0.157 HD
HETATM   34  H25 UNL     1      22.473   3.014  48.411  1.00  0.00     0.157 HD
ENDBRANCH   8  32
TORSDOF 6
ENDMDL
MODEL 5
REMARK VINA RESULT:      -9.1      3.524      9.615
REMARK  6 active torsions:
REMARK  status: ('A' for Active; 'I' for Inactive)
REMARK    1  A    between atoms: C3_4  and  C4_5 
REMARK    2  A    between atoms: C14_15  and  C15_16 
REMARK    3  A    between atoms: C15_16  and  C16_17 
REMARK    4  A    between atoms: C17_19  and  C18_20 
REMARK    5  A    between atoms: C20_22  and  O1_23 
REMARK    6  A    between atoms: C24_29  and  N5_30 
ROOT
HETATM    1  C16 UNL     1      22.382   3.136  52.131  1.00  0.00     0.071 A 
HETATM    2  N2  UNL     1      22.782   1.954  52.668  1.00  0.00    -0.236 NA
HETATM    3  C17 UNL     1      21.734   1.112  52.691  1.00  0.00     0.115 A 
HETATM    4  N3  UNL     1      20.665   1.755  52.171  1.00  0.00    -0.303 N 
HETATM    5  C22 UNL     1      19.387   1.404  51.954  1.00  0.00     0.118 A 
HETATM    6  C23 UNL     1      18.415   2.200  51.404  1.00  0.00     0.136 A 
HETATM    7  N4  UNL     1      18.819   3.445  51.060  1.00  0.00    -0.240 NA
HETATM    8  C24 UNL     1      20.094   3.859  51.254  1.00  0.00     0.150 A 
HETATM    9  C25 UNL     1      21.039   2.996  51.821  1.00  0.00     0.111 A 
ENDROOT
BRANCH   1  10
HETATM   10  C15 UNL     1      23.194   4.389  51.900  1.00  0.00     0.090 C 
BRANCH  10  11
HETATM   11  C14 UNL     1      24.361   4.165  51.057  1.00  0.00    -0.007 C 
HETATM   12  C13 UNL     1      25.237   4.795  50.319  1.00  0.00    -0.009 A 
HETATM   13  C2  UNL     1      26.257   4.103  49.650  1.00  0.00     0.046 A 
HETATM   14  C11 UNL     1      25.187   6.185  50.170  1.00  0.00    -0.048 A 
HETATM   15  C1  UNL     1      26.350   2.802  49.753  1.00  0.00     0.066 C 
HETATM   16  N1  UNL     1      27.137   4.778  48.903  1.00  0.00    -0.252 NA
HETATM   17  C3  UNL     1      27.117   6.102  48.741  1.00  0.00     0.068 A 
HETATM   18  C10 UNL     1      26.134   6.813  49.380  1.00  0.00     0.040 A 
HETATM   19  C12 UNL     1      24.163   7.041  50.803  1.00  0.00     0.049 C 
BRANCH  17  20
HETATM   20  C4  UNL     1      28.146   6.687  47.894  1.00  0.00    -0.007 A 
HETATM   21  C5  UNL     1      27.822   7.747  47.074  1.00  0.00     0.014 A 
HETATM   22  C6  UNL     1      28.732   8.355  46.246  1.00  0.00     0.001 A 
HETATM   23  C7  UNL     1      30.025   7.916  46.206  1.00  0.00     0.000 A 
HETATM   24  C8  UNL     1      30.352   6.851  47.030  1.00  0.00     0.001 A 
HETATM   25  C9  UNL     1      29.442   6.215  47.883  1.00  0.00     0.014 A 
ENDBRANCH  17  20
ENDBRANCH  10  11
ENDBRANCH   1  10
BRANCH   3  26
HETATM   26  C18 UNL     1      21.755  -0.273  53.208  1.00  0.00     0.060 C 
HETATM   27  C19 UNL     1      21.366  -0.367  54.692  1.00  0.00     0.044 C 
HETATM   28  C20 UNL     1      22.364  -1.505  54.774  1.00  0.00     0.119 C 
HETATM   29  C21 UNL     1      23.085  -0.821  53.605  1.00  0.00     0.044 C 
BRANCH  28  30
HETATM   30  O1  UNL     1      23.115  -1.535  55.944  1.00  0.00    -0.396 OA
HETATM   31  H19 UNL     1      23.711  -0.721  55.903  1.00  0.00     0.210 HD
ENDBRANCH  28  30
ENDBRANCH   3  26
BRANCH   8  32
HETATM   32  N5  UNL     1      20.485   5.183  50.879  1.00  0.00    -0.382 N 
HETATM   33  H24 UNL     1      20.028   5.335  49.937  1.00  0.00     0.157 HD
HETATM   34  H25 UNL     1      21.082   5.865  51.393  1.00  0.00     0.157 HD
ENDBRANCH   8  32
TORSDOF 6
ENDMDL
MODEL 6
REMARK VINA RESULT:      -8.9      2.726      8.681
REMARK  6 active torsions:
REMARK  status: ('A' for Active; 'I' for Inactive)
REMARK    1  A    between atoms: C3_4  and  C4_5 
REMARK    2  A    between atoms: C14_15  and  C15_16 
REMARK    3  A    between atoms: C15_16  and  C16_17 
REMARK    4  A    between atoms: C17_19  and  C18_20 
REMARK    5  A    between atoms: C20_22  and  O1_23 
REMARK    6  A    between atoms: C24_29  and  N5_30 
ROOT
HETATM    1  C16 UNL     1      24.402   1.107  52.012  1.00  0.00     0.071 A 
HETATM    2  N2  UNL     1      25.713   1.112  52.367  1.00  0.00    -0.236 NA
HETATM    3  C17 UNL     1      25.860   0.389  53.491  1.00  0.00     0.115 A 
HETATM    4  N3  UNL     1      24.643  -0.077  53.854  1.00  0.00    -0.303 N 
HETATM    5  C22 UNL     1      24.207  -0.837  54.873  1.00  0.00     0.118 A 
HETATM    6  C23 UNL     1      22.910  -1.222  55.092  1.00  0.00     0.136 A 
HETATM    7  N4  UNL     1      22.016  -0.777  54.178  1.00  0.00    -0.240 NA
HETATM    8  C24 UNL     1      22.393  -0.007  53.130  1.00  0.00     0.150 A 
HETATM    9  C25 UNL     1      23.736   0.351  52.962  1.00  0.00     0.111 A 
ENDROOT
BRANCH   1  10
HETATM   10  C15 UNL     1      23.744   1.780  50.830  1.00  0.00     0.090 C 
BRANCH  10  11
HETATM   11  C14 UNL     1      23.846   3.232  50.870  1.00  0.00    -0.007 C 
HETATM   12  C13 UNL     1      24.590   4.226  50.458  1.00  0.00    -0.009 A 
HETATM   13  C2  UNL     1      24.264   5.554  50.767  1.00  0.00     0.046 A 
HETATM   14  C11 UNL     1      25.739   3.998  49.694  1.00  0.00    -0.048 A 
HETATM   15  C1  UNL     1      23.201   5.826  51.480  1.00  0.00     0.066 C 
HETATM   16  N1  UNL     1      25.045   6.548  50.330  1.00  0.00    -0.252 NA
HETATM   17  C3  UNL     1      26.147   6.364  49.600  1.00  0.00     0.068 A 
HETATM   18  C10 UNL     1      26.498   5.078  49.278  1.00  0.00     0.040 A 
HETATM   19  C12 UNL     1      26.211   2.653  49.305  1.00  0.00     0.049 C 
BRANCH  17  20
HETATM   20  C4  UNL     1      26.891   7.550  49.203  1.00  0.00    -0.007 A 
HETATM   21  C5  UNL     1      26.912   8.645  50.041  1.00  0.00     0.014 A 
HETATM   22  C6  UNL     1      27.589   9.800  49.742  1.00  0.00     0.001 A 
HETATM   23  C7  UNL     1      28.282   9.907  48.569  1.00  0.00     0.000 A 
HETATM   24  C8  UNL     1      28.262   8.807  47.726  1.00  0.00     0.001 A 
HETATM   25  C9  UNL     1      27.580   7.618  48.009  1.00  0.00     0.014 A 
ENDBRANCH  17  20
ENDBRANCH  10  11
ENDBRANCH   1  10
BRANCH   3  26
HETATM   26  C18 UNL     1      27.132   0.156  54.205  1.00  0.00     0.060 C 
HETATM   27  C19 UNL     1      28.118   1.329  54.076  1.00  0.00     0.044 C 
HETATM   28  C20 UNL     1      29.209   0.278  54.082  1.00  0.00     0.119 C 
HETATM   29  C21 UNL     1      28.154  -0.673  53.501  1.00  0.00     0.044 C 
BRANCH  28  30
HETATM   30  O1  UNL     1      30.263   0.531  53.211  1.00  0.00    -0.396 OA
HETATM   31  H19 UNL     1      30.844   1.211  53.679  1.00  0.00     0.210 HD
ENDBRANCH  28  30
ENDBRANCH   3  26
BRANCH   8  32
HETATM   32  N5  UNL     1      21.420   0.446  52.183  1.00  0.00    -0.382 N 
HETATM   33  H24 UNL     1      21.894   0.328  51.244  1.00  0.00     0.157 HD
HETATM   34  H25 UNL     1      20.459   0.812  52.349  1.00  0.00     0.157 HD
ENDBRANCH   8  32
TORSDOF 6
ENDMDL
MODEL 7
REMARK VINA RESULT:      -8.9      3.139      4.852
REMARK  6 active torsions:
REMARK  status: ('A' for Active; 'I' for Inactive)
REMARK    1  A    between atoms: C3_4  and  C4_5 
REMARK    2  A    between atoms: C14_15  and  C15_16 
REMARK    3  A    between atoms: C15_16  and  C16_17 
REMARK    4  A    between atoms: C17_19  and  C18_20 
REMARK    5  A    between atoms: C20_22  and  O1_23 
REMARK    6  A    between atoms: C24_29  and  N5_30 
ROOT
HETATM    1  C16 UNL     1      25.819   5.717  49.488  1.00  0.00     0.071 A 
HETATM    2  N2  UNL     1      24.555   6.011  49.889  1.00  0.00    -0.236 NA
HETATM    3  C17 UNL     1      24.428   7.347  49.977  1.00  0.00     0.115 A 
HETATM    4  N3  UNL     1      25.610   7.906  49.633  1.00  0.00    -0.303 N 
HETATM    5  C22 UNL     1      26.045   9.174  49.544  1.00  0.00     0.118 A 
HETATM    6  C23 UNL     1      27.304   9.569  49.170  1.00  0.00     0.136 A 
HETATM    7  N4  UNL     1      28.156   8.561  48.869  1.00  0.00    -0.240 NA
HETATM    8  C24 UNL     1      27.778   7.263  48.940  1.00  0.00     0.150 A 
HETATM    9  C25 UNL     1      26.476   6.926  49.329  1.00  0.00     0.111 A 
ENDROOT
BRANCH   1  10
HETATM   10  C15 UNL     1      26.441   4.361  49.251  1.00  0.00     0.090 C 
BRANCH  10  11
HETATM   11  C14 UNL     1      26.345   3.479  50.406  1.00  0.00    -0.007 C 
HETATM   12  C13 UNL     1      25.517   2.683  51.030  1.00  0.00    -0.009 A 
HETATM   13  C2  UNL     1      25.903   1.996  52.190  1.00  0.00     0.046 A 
HETATM   14  C11 UNL     1      24.213   2.488  50.562  1.00  0.00    -0.048 A 
HETATM   15  C1  UNL     1      27.110   2.141  52.673  1.00  0.00     0.066 C 
HETATM   16  N1  UNL     1      25.033   1.188  52.804  1.00  0.00    -0.252 NA
HETATM   17  C3  UNL     1      23.783   0.980  52.383  1.00  0.00     0.068 A 
HETATM   18  C10 UNL     1      23.369   1.636  51.252  1.00  0.00     0.040 A 
HETATM   19  C12 UNL     1      23.665   3.154  49.363  1.00  0.00     0.049 C 
BRANCH  17  20
HETATM   20  C4  UNL     1      22.958   0.071  53.164  1.00  0.00    -0.007 A 
HETATM   21  C5  UNL     1      21.620  -0.058  52.856  1.00  0.00     0.014 A 
HETATM   22  C6  UNL     1      20.774  -0.892  53.542  1.00  0.00     0.001 A 
HETATM   23  C7  UNL     1      21.243  -1.643  54.583  1.00  0.00     0.000 A 
HETATM   24  C8  UNL     1      22.587  -1.514  54.893  1.00  0.00     0.001 A 
HETATM   25  C9  UNL     1      23.470  -0.670  54.208  1.00  0.00     0.014 A 
ENDBRANCH  17  20
ENDBRANCH  10  11
ENDBRANCH   1  10
BRANCH   3  26
HETATM   26  C18 UNL     1      23.207   8.070  50.389  1.00  0.00     0.060 C 
HETATM   27  C19 UNL     1      22.072   7.132  50.832  1.00  0.00     0.044 C 
HETATM   28  C20 UNL     1      21.131   8.153  50.226  1.00  0.00     0.119 C 
HETATM   29  C21 UNL     1      22.296   8.524  49.298  1.00  0.00     0.044 C 
BRANCH  28  30
HETATM   30  O1  UNL     1      20.042   7.610  49.553  1.00  0.00    -0.396 OA
HETATM   31  H19 UNL     1      19.589   8.390  49.099  1.00  0.00     0.210 HD
ENDBRANCH  28  30
ENDBRANCH   3  26
BRANCH   8  32
HETATM   32  N5  UNL     1      28.707   6.224  48.616  1.00  0.00    -0.382 N 
HETATM   33  H24 UNL     1      28.536   6.032  47.589  1.00  0.00     0.157 HD
HETATM   34  H25 UNL     1      29.403   5.747  49.226  1.00  0.00     0.157 HD
ENDBRANCH   8  32
TORSDOF 6
ENDMDL
MODEL 8
REMARK VINA RESULT:      -8.8      4.291      7.363
REMARK  6 active torsions:
REMARK  status: ('A' for Active; 'I' for Inactive)
REMARK    1  A    between atoms: C3_4  and  C4_5 
REMARK    2  A    between atoms: C14_15  and  C15_16 
REMARK    3  A    between atoms: C15_16  and  C16_17 
REMARK    4  A    between atoms: C17_19  and  C18_20 
REMARK    5  A    between atoms: C20_22  and  O1_23 
REMARK    6  A    between atoms: C24_29  and  N5_30 
ROOT
HETATM    1  C16 UNL     1      24.500   0.886  52.654  1.00  0.00     0.071 A 
HETATM    2  N2  UNL     1      24.452   1.847  51.695  1.00  0.00    -0.236 NA
HETATM    3  C17 UNL     1      25.649   2.456  51.631  1.00  0.00     0.115 A 
HETATM    4  N3  UNL     1      26.461   1.884  52.549  1.00  0.00    -0.303 N 
HETATM    5  C22 UNL     1      27.738   2.090  52.914  1.00  0.00     0.118 A 
HETATM    6  C23 UNL     1      28.418   1.403  53.886  1.00  0.00     0.136 A 
HETATM    7  N4  UNL     1      27.706   0.437  54.512  1.00  0.00    -0.240 NA
HETATM    8  C24 UNL     1      26.416   0.182  54.190  1.00  0.00     0.150 A 
HETATM    9  C25 UNL     1      25.778   0.921  53.186  1.00  0.00     0.111 A 
ENDROOT
BRANCH   1  10
HETATM   10  C15 UNL     1      23.406  -0.058  53.097  1.00  0.00     0.090 C 
BRANCH  10  11
HETATM   11  C14 UNL     1      22.155   0.142  52.379  1.00  0.00    -0.007 C 
HETATM   12  C13 UNL     1      20.877  -0.131  52.436  1.00  0.00    -0.009 A 
HETATM   13  C2  UNL     1      19.994   0.308  51.440  1.00  0.00     0.046 A 
HETATM   14  C11 UNL     1      20.346  -0.873  53.497  1.00  0.00    -0.048 A 
HETATM   15  C1  UNL     1      20.437   1.004  50.424  1.00  0.00     0.066 C 
HETATM   16  N1  UNL     1      18.693   0.012  51.528  1.00  0.00    -0.252 NA
HETATM   17  C3  UNL     1      18.155  -0.692  52.526  1.00  0.00     0.068 A 
HETATM   18  C10 UNL     1      18.988  -1.139  53.519  1.00  0.00     0.040 A 
HETATM   19  C12 UNL     1      21.157  -1.410  54.608  1.00  0.00     0.049 C 
BRANCH  17  20
HETATM   20  C4  UNL     1      16.720  -0.931  52.477  1.00  0.00    -0.007 A 
HETATM   21  C5  UNL     1      16.254  -2.228  52.440  1.00  0.00     0.014 A 
HETATM   22  C6  UNL     1      14.918  -2.538  52.394  1.00  0.00     0.001 A 
HETATM   23  C7  UNL     1      13.981  -1.544  52.381  1.00  0.00     0.000 A 
HETATM   24  C8  UNL     1      14.449  -0.241  52.418  1.00  0.00     0.001 A 
HETATM   25  C9  UNL     1      15.806   0.102  52.466  1.00  0.00     0.014 A 
ENDBRANCH  17  20
ENDBRANCH  10  11
ENDBRANCH   1  10
BRANCH   3  26
HETATM   26  C18 UNL     1      26.004   3.563  50.720  1.00  0.00     0.060 C 
HETATM   27  C19 UNL     1      25.005   4.730  50.772  1.00  0.00     0.044 C 
HETATM   28  C20 UNL     1      25.286   4.902  49.293  1.00  0.00     0.119 C 
HETATM   29  C21 UNL     1      25.618   3.403  49.287  1.00  0.00     0.044 C 
BRANCH  28  30
HETATM   30  O1  UNL     1      24.172   5.222  48.524  1.00  0.00    -0.396 OA
HETATM   31  H19 UNL     1      23.762   4.338  48.261  1.00  0.00     0.210 HD
ENDBRANCH  28  30
ENDBRANCH   3  26
BRANCH   8  32
HETATM   32  N5  UNL     1      25.693  -0.846  54.874  1.00  0.00    -0.382 N 
HETATM   33  H24 UNL     1      24.726  -0.817  54.445  1.00  0.00     0.157 HD
HETATM   34  H25 UNL     1      26.016  -1.492  55.625  1.00  0.00     0.157 HD
ENDBRANCH   8  32
TORSDOF 6
ENDMDL
MODEL 9
REMARK VINA RESULT:      -8.6      4.338      8.747
REMARK  6 active torsions:
REMARK  status: ('A' for Active; 'I' for Inactive)
REMARK    1  A    between atoms: C3_4  and  C4_5 
REMARK    2  A    between atoms: C14_15  and  C15_16 
REMARK    3  A    between atoms: C15_16  and  C16_17 
REMARK    4  A    between atoms: C17_19  and  C18_20 
REMARK    5  A    between atoms: C20_22  and  O1_23 
REMARK    6  A    between atoms: C24_29  and  N5_30 
ROOT
HETATM    1  C16 UNL     1      22.819   0.656  52.246  1.00  0.00     0.071 A 
HETATM    2  N2  UNL     1      24.132   0.920  52.017  1.00  0.00    -0.236 NA
HETATM    3  C17 UNL     1      24.868   0.323  52.971  1.00  0.00     0.115 A 
HETATM    4  N3  UNL     1      24.025  -0.322  53.811  1.00  0.00    -0.303 N 
HETATM    5  C22 UNL     1      24.205  -1.066  54.914  1.00  0.00     0.118 A 
HETATM    6  C23 UNL     1      23.216  -1.656  55.658  1.00  0.00     0.136 A 
HETATM    7  N4  UNL     1      21.957  -1.448  55.206  1.00  0.00    -0.240 NA
HETATM    8  C24 UNL     1      21.710  -0.707  54.100  1.00  0.00     0.150 A 
HETATM    9  C25 UNL     1      22.767  -0.131  53.385  1.00  0.00     0.111 A 
ENDROOT
BRANCH   1  10
HETATM   10  C15 UNL     1      21.615   1.108  51.454  1.00  0.00     0.090 C 
BRANCH  10  11
HETATM   11  C14 UNL     1      21.969   1.832  50.241  1.00  0.00    -0.007 C 
HETATM   12  C13 UNL     1      22.285   3.024  49.805  1.00  0.00    -0.009 A 
HETATM   13  C2  UNL     1      22.565   3.252  48.450  1.00  0.00     0.046 A 
HETATM   14  C11 UNL     1      22.355   4.115  50.678  1.00  0.00    -0.048 A 
HETATM   15  C1  UNL     1      22.513   2.268  47.589  1.00  0.00     0.066 C 
HETATM   16  N1  UNL     1      22.885   4.483  48.037  1.00  0.00    -0.252 NA
HETATM   17  C3  UNL     1      22.961   5.544  48.843  1.00  0.00     0.068 A 
HETATM   18  C10 UNL     1      22.693   5.359  50.175  1.00  0.00     0.040 A 
HETATM   19  C12 UNL     1      22.074   4.026  52.125  1.00  0.00     0.049 C 
BRANCH  17  20
HETATM   20  C4  UNL     1      23.322   6.818  48.239  1.00  0.00    -0.007 A 
HETATM   21  C5  UNL     1      23.335   6.932  46.865  1.00  0.00     0.014 A 
HETATM   22  C6  UNL     1      23.662   8.096  46.217  1.00  0.00     0.001 A 
HETATM   23  C7  UNL     1      23.998   9.211  46.933  1.00  0.00     0.000 A 
HETATM   24  C8  UNL     1      23.985   9.097  48.313  1.00  0.00     0.001 A 
HETATM   25  C9  UNL     1      23.653   7.921  48.998  1.00  0.00     0.014 A 
ENDBRANCH  17  20
ENDBRANCH  10  11
ENDBRANCH   1  10
BRANCH   3  26
HETATM   26  C18 UNL     1      26.340   0.375  53.082  1.00  0.00     0.060 C 
HETATM   27  C19 UNL     1      26.835   1.502  54.004  1.00  0.00     0.044 C 
HETATM   28  C20 UNL     1      28.014   1.617  53.060  1.00  0.00     0.119 C 
HETATM   29  C21 UNL     1      27.071   1.067  51.980  1.00  0.00     0.044 C 
BRANCH  28  30
HETATM   30  O1  UNL     1      28.435   2.919  52.812  1.00  0.00    -0.396 OA
HETATM   31  H19 UNL     1      27.648   3.506  53.047  1.00  0.00     0.210 HD
ENDBRANCH  28  30
ENDBRANCH   3  26
BRANCH   8  32
HETATM   32  N5  UNL     1      20.366  -0.508  53.653  1.00  0.00    -0.382 N 
HETATM   33  H24 UNL     1      20.467  -0.208  52.644  1.00  0.00     0.157 HD
HETATM   34  H25 UNL     1      19.472  -0.624  54.176  1.00  0.00     0.157 HD
ENDBRANCH   8  32
TORSDOF 6
ENDMDL
