MODEL 1
REMARK VINA RESULT:      -7.8      0.000      0.000
REMARK  7 active torsions:
REMARK  status: ('A' for Active; 'I' for Inactive)
REMARK    1  A    between atoms: C2_2  and  C3_3 
REMARK    2  A    between atoms: C3_3  and  C4_4 
REMARK    3  A    between atoms: C5_5  and  C6_6 
REMARK    4  A    between atoms: C6_6  and  N1_7 
REMARK    5  A    between atoms: N1_7  and  C7_8 
REMARK    6  A    between atoms: C10_11  and  N2_12 
REMARK    7  A    between atoms: N2_12  and  C11_13 
ROOT
HETATM    1  C7  UNL     1      24.618  -0.390  53.613  1.00  0.00     0.124 A 
HETATM    2  C8  UNL     1      25.289   0.468  52.770  1.00  0.00     0.068 A 
HETATM    3  C9  UNL     1      26.493   1.085  53.029  1.00  0.00     0.044 A 
HETATM    4  C10 UNL     1      27.134   1.937  52.159  1.00  0.00     0.142 A 
HETATM    5  N3  UNL     1      28.287   2.418  52.614  1.00  0.00    -0.224 NA
HETATM    6  C17 UNL     1      28.823   2.131  53.804  1.00  0.00     0.236 A 
HETATM    7  N4  UNL     1      28.179   1.289  54.656  1.00  0.00    -0.240 NA
HETATM    8  C18 UNL     1      26.993   0.754  54.265  1.00  0.00     0.089 A 
HETATM    9  C19 UNL     1      26.390  -0.088  55.157  1.00  0.00     0.151 A 
HETATM   10  N5  UNL     1      25.214  -0.645  54.816  1.00  0.00    -0.241 NA
ENDROOT
BRANCH   4  11
HETATM   11  N2  UNL     1      26.541   2.229  50.910  1.00  0.00    -0.340 N 
HETATM   12  H12 UNL     1      26.621   1.605  50.099  1.00  0.00     0.167 HD
BRANCH  11  13
HETATM   13  C11 UNL     1      25.771   3.367  50.570  1.00  0.00     0.035 A 
HETATM   14  C12 UNL     1      26.112   4.230  49.563  1.00  0.00     0.032 A 
HETATM   15  C13 UNL     1      25.395   5.352  49.209  1.00  0.00     0.046 A 
HETATM   16  C14 UNL     1      24.241   5.671  49.890  1.00  0.00     0.138 A 
HETATM   17  F1  UNL     1      23.487   6.740  49.610  1.00  0.00    -0.204 F 
HETATM   18  C15 UNL     1      23.853   4.838  50.910  1.00  0.00     0.074 A 
HETATM   19 CL1  UNL     1      22.409   5.191  51.803  1.00  0.00    -0.081 Cl
HETATM   20  C16 UNL     1      24.610   3.739  51.212  1.00  0.00     0.056 A 
ENDBRANCH  11  13
ENDBRANCH   4  11
BRANCH   1  21
HETATM   21  N1  UNL     1      23.374  -0.986  53.264  1.00  0.00    -0.364 N 
HETATM   22  H10 UNL     1      23.386  -1.987  52.966  1.00  0.00     0.162 HD
BRANCH  21  23
HETATM   23  C6  UNL     1      22.191  -0.179  53.346  1.00  0.00     0.215 C 
BRANCH  23  24
HETATM   24  C5  UNL     1      21.873   0.231  51.957  1.00  0.00    -0.087 C 
HETATM   25  C4  UNL     1      21.594   0.571  50.825  1.00  0.00    -0.105 C 
BRANCH  25  26
HETATM   26  C3  UNL     1      21.269   0.965  49.454  1.00  0.00     0.093 C 
BRANCH  26  27
HETATM   27  C2  UNL     1      21.664   2.401  49.183  1.00  0.00     0.007 C 
HETATM   28  C1  UNL     1      22.759   2.545  48.169  1.00  0.00     0.006 C 
ENDBRANCH  26  27
ENDBRANCH  25  26
ENDBRANCH  23  24
ENDBRANCH  21  23
ENDBRANCH   1  21
TORSDOF 7
ENDMDL
MODEL 2
REMARK VINA RESULT:      -7.8      3.373      5.844
REMARK  7 active torsions:
REMARK  status: ('A' for Active; 'I' for Inactive)
REMARK    1  A    between atoms: C2_2  and  C3_3 
REMARK    2  A    between atoms: C3_3  and  C4_4 
REMARK    3  A    between atoms: C5_5  and  C6_6 
REMARK    4  A    between atoms: C6_6  and  N1_7 
REMARK    5  A    between atoms: N1_7  and  C7_8 
REMARK    6  A    between atoms: C10_11  and  N2_12 
REMARK    7  A    between atoms: N2_12  and  C11_13 
ROOT
HETATM    1  C7  UNL     1      20.707   0.623  51.451  1.00  0.00     0.124 A 
HETATM    2  C8  UNL     1      22.003   0.475  51.893  1.00  0.00     0.068 A 
HETATM    3  C9  UNL     1      22.398  -0.148  53.057  1.00  0.00     0.044 A 
HETATM    4  C10 UNL     1      23.706  -0.277  53.466  1.00  0.00     0.142 A 
HETATM    5  N3  UNL     1      23.857  -0.917  54.621  1.00  0.00    -0.224 NA
HETATM    6  C17 UNL     1      22.861  -1.412  55.362  1.00  0.00     0.236 A 
HETATM    7  N4  UNL     1      21.573  -1.278  54.947  1.00  0.00    -0.240 NA
HETATM    8  C18 UNL     1      21.333  -0.635  53.775  1.00  0.00     0.089 A 
HETATM    9  C19 UNL     1      20.021  -0.530  53.404  1.00  0.00     0.151 A 
HETATM   10  N5  UNL     1      19.732   0.097  52.250  1.00  0.00    -0.241 NA
ENDROOT
BRANCH   4  11
HETATM   11  N2  UNL     1      24.739   0.264  52.668  1.00  0.00    -0.340 N 
HETATM   12  H12 UNL     1      24.559   0.729  51.770  1.00  0.00     0.167 HD
BRANCH  11  13
HETATM   13  C11 UNL     1      26.127   0.265  52.944  1.00  0.00     0.035 A 
HETATM   14  C12 UNL     1      26.830   1.400  53.250  1.00  0.00     0.032 A 
HETATM   15  C13 UNL     1      28.182   1.441  53.517  1.00  0.00     0.046 A 
HETATM   16  C14 UNL     1      28.923   0.281  53.486  1.00  0.00     0.138 A 
HETATM   17  F1  UNL     1      30.237   0.235  53.732  1.00  0.00    -0.204 F 
HETATM   18  C15 UNL     1      28.266  -0.886  53.185  1.00  0.00     0.074 A 
HETATM   19 CL1  UNL     1      29.148  -2.377  53.131  1.00  0.00    -0.081 Cl
HETATM   20  C16 UNL     1      26.921  -0.860  52.930  1.00  0.00     0.056 A 
ENDBRANCH  11  13
ENDBRANCH   4  11
BRANCH   1  21
HETATM   21  N1  UNL     1      20.388   1.283  50.232  1.00  0.00    -0.364 N 
HETATM   22  H10 UNL     1      19.575   1.939  50.237  1.00  0.00     0.162 HD
BRANCH  21  23
HETATM   23  C6  UNL     1      21.198   1.007  49.080  1.00  0.00     0.215 C 
BRANCH  23  24
HETATM   24  C5  UNL     1      22.282   2.019  49.085  1.00  0.00    -0.087 C 
HETATM   25  C4  UNL     1      23.181   2.836  49.100  1.00  0.00    -0.105 C 
BRANCH  25  26
HETATM   26  C3  UNL     1      24.250   3.835  49.121  1.00  0.00     0.093 C 
BRANCH  26  27
HETATM   27  C2  UNL     1      25.465   3.328  49.869  1.00  0.00     0.007 C 
HETATM   28  C1  UNL     1      26.755   3.930  49.402  1.00  0.00     0.006 C 
ENDBRANCH  26  27
ENDBRANCH  25  26
ENDBRANCH  23  24
ENDBRANCH  21  23
ENDBRANCH   1  21
TORSDOF 7
ENDMDL
MODEL 3
REMARK VINA RESULT:      -7.6      1.792      4.609
REMARK  7 active torsions:
REMARK  status: ('A' for Active; 'I' for Inactive)
REMARK    1  A    between atoms: C2_2  and  C3_3 
REMARK    2  A    between atoms: C3_3  and  C4_4 
REMARK    3  A    between atoms: C5_5  and  C6_6 
REMARK    4  A    between atoms: C6_6  and  N1_7 
REMARK    5  A    between atoms: N1_7  and  C7_8 
REMARK    6  A    between atoms: C10_11  and  N2_12 
REMARK    7  A    between atoms: N2_12  and  C11_13 
ROOT
HETATM    1  C7  UNL     1      25.644  -0.163  53.959  1.00  0.00     0.124 A 
HETATM    2  C8  UNL     1      24.529   0.063  53.183  1.00  0.00     0.068 A 
HETATM    3  C9  UNL     1      23.242  -0.334  53.476  1.00  0.00     0.044 A 
HETATM    4  C10 UNL     1      22.151  -0.088  52.674  1.00  0.00     0.142 A 
HETATM    5  N3  UNL     1      21.004  -0.560  53.152  1.00  0.00    -0.224 NA
HETATM    6  C17 UNL     1      20.866  -1.222  54.305  1.00  0.00     0.236 A 
HETATM    7  N4  UNL     1      21.952  -1.459  55.088  1.00  0.00    -0.240 NA
HETATM    8  C18 UNL     1      23.163  -1.009  54.670  1.00  0.00     0.089 A 
HETATM    9  C19 UNL     1      24.221  -1.272  55.495  1.00  0.00     0.151 A 
HETATM   10  N5  UNL     1      25.442  -0.845  55.126  1.00  0.00    -0.241 NA
ENDROOT
BRANCH   4  11
HETATM   11  N2  UNL     1      22.327   0.607  51.456  1.00  0.00    -0.340 N 
HETATM   12  H12 UNL     1      22.455   0.127  50.558  1.00  0.00     0.167 HD
BRANCH  11  13
HETATM   13  C11 UNL     1      22.357   2.009  51.265  1.00  0.00     0.035 A 
HETATM   14  C12 UNL     1      22.057   2.908  52.253  1.00  0.00     0.032 A 
HETATM   15  C13 UNL     1      22.067   4.278  52.103  1.00  0.00     0.046 A 
HETATM   16  C14 UNL     1      22.398   4.831  50.886  1.00  0.00     0.138 A 
HETATM   17  F1  UNL     1      22.431   6.149  50.656  1.00  0.00    -0.204 F 
HETATM   18  C15 UNL     1      22.708   3.974  49.860  1.00  0.00     0.074 A 
HETATM   19 CL1  UNL     1      23.132   4.615  48.305  1.00  0.00    -0.081 Cl
HETATM   20  C16 UNL     1      22.680   2.622  50.074  1.00  0.00     0.056 A 
ENDBRANCH  11  13
ENDBRANCH   4  11
BRANCH   1  21
HETATM   21  N1  UNL     1      26.941   0.284  53.581  1.00  0.00    -0.364 N 
HETATM   22  H10 UNL     1      27.650  -0.444  53.337  1.00  0.00     0.162 HD
BRANCH  21  23
HETATM   23  C6  UNL     1      27.189   1.697  53.557  1.00  0.00     0.215 C 
BRANCH  23  24
HETATM   24  C5  UNL     1      26.896   2.146  52.175  1.00  0.00    -0.087 C 
HETATM   25  C4  UNL     1      26.673   2.523  51.042  1.00  0.00    -0.105 C 
BRANCH  25  26
HETATM   26  C3  UNL     1      26.385   2.982  49.683  1.00  0.00     0.093 C 
BRANCH  26  27
HETATM   27  C2  UNL     1      26.532   4.484  49.564  1.00  0.00     0.007 C 
HETATM   28  C1  UNL     1      27.614   4.912  48.618  1.00  0.00     0.006 C 
ENDBRANCH  26  27
ENDBRANCH  25  26
ENDBRANCH  23  24
ENDBRANCH  21  23
ENDBRANCH   1  21
TORSDOF 7
ENDMDL
MODEL 4
REMARK VINA RESULT:      -7.6      1.935      2.213
REMARK  7 active torsions:
REMARK  status: ('A' for Active; 'I' for Inactive)
REMARK    1  A    between atoms: C2_2  and  C3_3 
REMARK    2  A    between atoms: C3_3  and  C4_4 
REMARK    3  A    between atoms: C5_5  and  C6_6 
REMARK    4  A    between atoms: C6_6  and  N1_7 
REMARK    5  A    between atoms: N1_7  and  C7_8 
REMARK    6  A    between atoms: C10_11  and  N2_12 
REMARK    7  A    between atoms: N2_12  and  C11_13 
ROOT
HETATM    1  C7  UNL     1      24.615  -0.472  53.675  1.00  0.00     0.124 A 
HETATM    2  C8  UNL     1      25.217   0.375  52.770  1.00  0.00     0.068 A 
HETATM    3  C9  UNL     1      26.394   1.064  52.962  1.00  0.00     0.044 A 
HETATM    4  C10 UNL     1      26.966   1.902  52.031  1.00  0.00     0.142 A 
HETATM    5  N3  UNL     1      28.105   2.462  52.427  1.00  0.00    -0.224 NA
HETATM    6  C17 UNL     1      28.688   2.263  53.613  1.00  0.00     0.236 A 
HETATM    7  N4  UNL     1      28.113   1.433  54.524  1.00  0.00    -0.240 NA
HETATM    8  C18 UNL     1      26.946   0.821  54.196  1.00  0.00     0.089 A 
HETATM    9  C19 UNL     1      26.412  -0.004  55.147  1.00  0.00     0.151 A 
HETATM   10  N5  UNL     1      25.257  -0.635  54.870  1.00  0.00    -0.241 NA
ENDROOT
BRANCH   4  11
HETATM   11  N2  UNL     1      26.323   2.101  50.789  1.00  0.00    -0.340 N 
HETATM   12  H12 UNL     1      25.990   1.323  50.207  1.00  0.00     0.167 HD
BRANCH  11  13
HETATM   13  C11 UNL     1      26.036   3.335  50.158  1.00  0.00     0.035 A 
HETATM   14  C12 UNL     1      24.786   3.894  50.137  1.00  0.00     0.032 A 
HETATM   15  C13 UNL     1      24.467   5.088  49.526  1.00  0.00     0.046 A 
HETATM   16  C14 UNL     1      25.444   5.809  48.878  1.00  0.00     0.138 A 
HETATM   17  F1  UNL     1      25.218   6.974  48.261  1.00  0.00    -0.204 F 
HETATM   18  C15 UNL     1      26.716   5.294  48.870  1.00  0.00     0.074 A 
HETATM   19 CL1  UNL     1      27.987   6.158  48.068  1.00  0.00    -0.081 Cl
HETATM   20  C16 UNL     1      26.968   4.102  49.495  1.00  0.00     0.056 A 
ENDBRANCH  11  13
ENDBRANCH   4  11
BRANCH   1  21
HETATM   21  N1  UNL     1      23.394  -1.146  53.394  1.00  0.00    -0.364 N 
HETATM   22  H10 UNL     1      23.393  -1.834  52.608  1.00  0.00     0.162 HD
BRANCH  21  23
HETATM   23  C6  UNL     1      22.250  -0.840  54.205  1.00  0.00     0.215 C 
BRANCH  23  24
HETATM   24  C5  UNL     1      21.611   0.348  53.589  1.00  0.00    -0.087 C 
HETATM   25  C4  UNL     1      21.099   1.331  53.094  1.00  0.00    -0.105 C 
BRANCH  25  26
HETATM   26  C3  UNL     1      20.464   2.508  52.501  1.00  0.00     0.093 C 
BRANCH  26  27
HETATM   27  C2  UNL     1      21.494   3.495  51.994  1.00  0.00     0.007 C 
HETATM   28  C1  UNL     1      20.903   4.661  51.260  1.00  0.00     0.006 C 
ENDBRANCH  26  27
ENDBRANCH  25  26
ENDBRANCH  23  24
ENDBRANCH  21  23
ENDBRANCH   1  21
TORSDOF 7
ENDMDL
MODEL 5
REMARK VINA RESULT:      -7.4      3.710      7.299
REMARK  7 active torsions:
REMARK  status: ('A' for Active; 'I' for Inactive)
REMARK    1  A    between atoms: C2_2  and  C3_3 
REMARK    2  A    between atoms: C3_3  and  C4_4 
REMARK    3  A    between atoms: C5_5  and  C6_6 
REMARK    4  A    between atoms: C6_6  and  N1_7 
REMARK    5  A    between atoms: N1_7  and  C7_8 
REMARK    6  A    between atoms: C10_11  and  N2_12 
REMARK    7  A    between atoms: N2_12  and  C11_13 
ROOT
HETATM    1  C7  UNL     1      24.966   3.827  50.110  1.00  0.00     0.124 A 
HETATM    2  C8  UNL     1      24.746   2.943  51.143  1.00  0.00     0.068 A 
HETATM    3  C9  UNL     1      23.709   2.040  51.234  1.00  0.00     0.044 A 
HETATM    4  C10 UNL     1      23.523   1.170  52.284  1.00  0.00     0.142 A 
HETATM    5  N3  UNL     1      22.456   0.386  52.162  1.00  0.00    -0.224 NA
HETATM    6  C17 UNL     1      21.606   0.399  51.131  1.00  0.00     0.236 A 
HETATM    7  N4  UNL     1      21.801   1.264  50.100  1.00  0.00    -0.240 NA
HETATM    8  C18 UNL     1      22.869   2.100  50.148  1.00  0.00     0.089 A 
HETATM    9  C19 UNL     1      23.019   2.947  49.085  1.00  0.00     0.151 A 
HETATM   10  N5  UNL     1      24.063   3.794  49.085  1.00  0.00    -0.241 NA
ENDROOT
BRANCH   4  11
HETATM   11  N2  UNL     1      24.433   1.184  53.365  1.00  0.00    -0.340 N 
HETATM   12  H12 UNL     1      24.209   1.610  54.272  1.00  0.00     0.167 HD
BRANCH  11  13
HETATM   13  C11 UNL     1      25.741   0.645  53.393  1.00  0.00     0.035 A 
HETATM   14  C12 UNL     1      26.045  -0.609  52.933  1.00  0.00     0.032 A 
HETATM   15  C13 UNL     1      27.303  -1.172  52.951  1.00  0.00     0.046 A 
HETATM   16  C14 UNL     1      28.366  -0.459  53.460  1.00  0.00     0.138 A 
HETATM   17  F1  UNL     1      29.616  -0.930  53.514  1.00  0.00    -0.204 F 
HETATM   18  C15 UNL     1      28.116   0.805  53.934  1.00  0.00     0.074 A 
HETATM   19 CL1  UNL     1      29.416   1.749  54.587  1.00  0.00    -0.081 Cl
HETATM   20  C16 UNL     1      26.843   1.307  53.887  1.00  0.00     0.056 A 
ENDBRANCH  11  13
ENDBRANCH   4  11
BRANCH   1  21
HETATM   21  N1  UNL     1      26.066   4.727  50.097  1.00  0.00    -0.364 N 
HETATM   22  H10 UNL     1      26.731   4.689  50.903  1.00  0.00     0.162 HD
BRANCH  21  23
HETATM   23  C6  UNL     1      26.194   5.625  48.984  1.00  0.00     0.215 C 
BRANCH  23  24
HETATM   24  C5  UNL     1      27.620   5.585  48.581  1.00  0.00    -0.087 C 
HETATM   25  C4  UNL     1      28.783   5.547  48.234  1.00  0.00    -0.105 C 
BRANCH  25  26
HETATM   26  C3  UNL     1      30.189   5.491  47.832  1.00  0.00     0.093 C 
BRANCH  26  27
HETATM   27  C2  UNL     1      31.004   6.562  48.527  1.00  0.00     0.007 C 
HETATM   28  C1  UNL     1      31.873   6.038  49.630  1.00  0.00     0.006 C 
ENDBRANCH  26  27
ENDBRANCH  25  26
ENDBRANCH  23  24
ENDBRANCH  21  23
ENDBRANCH   1  21
TORSDOF 7
ENDMDL
MODEL 6
REMARK VINA RESULT:      -7.3      3.724      7.058
REMARK  7 active torsions:
REMARK  status: ('A' for Active; 'I' for Inactive)
REMARK    1  A    between atoms: C2_2  and  C3_3 
REMARK    2  A    between atoms: C3_3  and  C4_4 
REMARK    3  A    between atoms: C5_5  and  C6_6 
REMARK    4  A    between atoms: C6_6  and  N1_7 
REMARK    5  A    between atoms: N1_7  and  C7_8 
REMARK    6  A    between atoms: C10_11  and  N2_12 
REMARK    7  A    between atoms: N2_12  and  C11_13 
ROOT
HETATM    1  C7  UNL     1      24.473   3.235  49.891  1.00  0.00     0.124 A 
HETATM    2  C8  UNL     1      24.734   2.658  51.114  1.00  0.00     0.068 A 
HETATM    3  C9  UNL     1      23.942   1.735  51.763  1.00  0.00     0.044 A 
HETATM    4  C10 UNL     1      24.238   1.179  52.986  1.00  0.00     0.142 A 
HETATM    5  N3  UNL     1      23.333   0.309  53.424  1.00  0.00    -0.224 NA
HETATM    6  C17 UNL     1      22.217  -0.033  52.773  1.00  0.00     0.236 A 
HETATM    7  N4  UNL     1      21.936   0.525  51.565  1.00  0.00    -0.240 NA
HETATM    8  C18 UNL     1      22.811   1.425  51.048  1.00  0.00     0.089 A 
HETATM    9  C19 UNL     1      22.481   1.953  49.830  1.00  0.00     0.151 A 
HETATM   10  N5  UNL     1      23.317   2.848  49.274  1.00  0.00    -0.241 NA
ENDROOT
BRANCH   4  11
HETATM   11  N2  UNL     1      25.421   1.564  53.656  1.00  0.00    -0.340 N 
HETATM   12  H12 UNL     1      25.468   2.386  54.269  1.00  0.00     0.167 HD
BRANCH  11  13
HETATM   13  C11 UNL     1      26.683   0.925  53.606  1.00  0.00     0.035 A 
HETATM   14  C12 UNL     1      27.863   1.575  53.849  1.00  0.00     0.032 A 
HETATM   15  C13 UNL     1      29.110   0.990  53.801  1.00  0.00     0.046 A 
HETATM   16  C14 UNL     1      29.229  -0.346  53.491  1.00  0.00     0.138 A 
HETATM   17  F1  UNL     1      30.399  -0.990  53.423  1.00  0.00    -0.204 F 
HETATM   18  C15 UNL     1      28.075  -1.046  53.239  1.00  0.00     0.074 A 
HETATM   19 CL1  UNL     1      28.163  -2.731  52.841  1.00  0.00    -0.081 Cl
HETATM   20  C16 UNL     1      26.867  -0.406  53.302  1.00  0.00     0.056 A 
ENDBRANCH  11  13
ENDBRANCH   4  11
BRANCH   1  21
HETATM   21  N1  UNL     1      25.349   4.182  49.292  1.00  0.00    -0.364 N 
HETATM   22  H10 UNL     1      24.917   5.016  48.834  1.00  0.00     0.162 HD
BRANCH  21  23
HETATM   23  C6  UNL     1      26.761   3.934  49.357  1.00  0.00     0.215 C 
BRANCH  23  24
HETATM   24  C5  UNL     1      27.415   5.093  48.704  1.00  0.00    -0.087 C 
HETATM   25  C4  UNL     1      27.966   6.042  48.182  1.00  0.00    -0.105 C 
BRANCH  25  26
HETATM   26  C3  UNL     1      28.611   7.194  47.553  1.00  0.00     0.093 C 
BRANCH  26  27
HETATM   27  C2  UNL     1      29.380   8.017  48.564  1.00  0.00     0.007 C 
HETATM   28  C1  UNL     1      28.524   8.978  49.334  1.00  0.00     0.006 C 
ENDBRANCH  26  27
ENDBRANCH  25  26
ENDBRANCH  23  24
ENDBRANCH  21  23
ENDBRANCH   1  21
TORSDOF 7
ENDMDL
MODEL 7
REMARK VINA RESULT:      -7.2      3.478      6.187
REMARK  7 active torsions:
REMARK  status: ('A' for Active; 'I' for Inactive)
REMARK    1  A    between atoms: C2_2  and  C3_3 
REMARK    2  A    between atoms: C3_3  and  C4_4 
REMARK    3  A    between atoms: C5_5  and  C6_6 
REMARK    4  A    between atoms: C6_6  and  N1_7 
REMARK    5  A    between atoms: N1_7  and  C7_8 
REMARK    6  A    between atoms: C10_11  and  N2_12 
REMARK    7  A    between atoms: N2_12  and  C11_13 
ROOT
HETATM    1  C7  UNL     1      21.922   3.166  51.551  1.00  0.00     0.124 A 
HETATM    2  C8  UNL     1      22.951   2.289  51.815  1.00  0.00     0.068 A 
HETATM    3  C9  UNL     1      22.883   1.178  52.627  1.00  0.00     0.044 A 
HETATM    4  C10 UNL     1      23.935   0.322  52.866  1.00  0.00     0.142 A 
HETATM    5  N3  UNL     1      23.645  -0.687  53.681  1.00  0.00    -0.224 NA
HETATM    6  C17 UNL     1      22.453  -0.901  54.245  1.00  0.00     0.236 A 
HETATM    7  N4  UNL     1      21.422  -0.048  54.002  1.00  0.00    -0.240 NA
HETATM    8  C18 UNL     1      21.637   1.010  53.179  1.00  0.00     0.089 A 
HETATM    9  C19 UNL     1      20.566   1.834  52.967  1.00  0.00     0.151 A 
HETATM   10  N5  UNL     1      20.728   2.896  52.157  1.00  0.00    -0.241 NA
ENDROOT
BRANCH   4  11
HETATM   11  N2  UNL     1      25.187   0.577  52.262  1.00  0.00    -0.340 N 
HETATM   12  H12 UNL     1      25.282   1.090  51.377  1.00  0.00     0.167 HD
BRANCH  11  13
HETATM   13  C11 UNL     1      26.464   0.195  52.739  1.00  0.00     0.035 A 
HETATM   14  C12 UNL     1      26.962  -1.075  52.615  1.00  0.00     0.032 A 
HETATM   15  C13 UNL     1      28.194  -1.486  53.074  1.00  0.00     0.046 A 
HETATM   16  C14 UNL     1      29.024  -0.590  53.710  1.00  0.00     0.138 A 
HETATM   17  F1  UNL     1      30.233  -0.907  54.185  1.00  0.00    -0.204 F 
HETATM   18  C15 UNL     1      28.573   0.698  53.860  1.00  0.00     0.074 A 
HETATM   19 CL1  UNL     1      29.574   1.870  54.654  1.00  0.00    -0.081 Cl
HETATM   20  C16 UNL     1      27.338   1.044  53.382  1.00  0.00     0.056 A 
ENDBRANCH  11  13
ENDBRANCH   4  11
BRANCH   1  21
HETATM   21  N1  UNL     1      22.080   4.292  50.697  1.00  0.00    -0.364 N 
HETATM   22  H10 UNL     1      21.863   5.233  51.095  1.00  0.00     0.162 HD
BRANCH  21  23
HETATM   23  C6  UNL     1      22.525   4.064  49.352  1.00  0.00     0.215 C 
BRANCH  23  24
HETATM   24  C5  UNL     1      24.002   3.948  49.419  1.00  0.00    -0.087 C 
HETATM   25  C4  UNL     1      25.212   3.870  49.484  1.00  0.00    -0.105 C 
BRANCH  25  26
HETATM   26  C3  UNL     1      26.671   3.770  49.542  1.00  0.00     0.093 C 
BRANCH  26  27
HETATM   27  C2  UNL     1      27.332   4.850  48.712  1.00  0.00     0.007 C 
HETATM   28  C1  UNL     1      26.553   6.130  48.656  1.00  0.00     0.006 C 
ENDBRANCH  26  27
ENDBRANCH  25  26
ENDBRANCH  23  24
ENDBRANCH  21  23
ENDBRANCH   1  21
TORSDOF 7
ENDMDL
MODEL 8
REMARK VINA RESULT:      -7.1      4.328      7.731
REMARK  7 active torsions:
REMARK  status: ('A' for Active; 'I' for Inactive)
REMARK    1  A    between atoms: C2_2  and  C3_3 
REMARK    2  A    between atoms: C3_3  and  C4_4 
REMARK    3  A    between atoms: C5_5  and  C6_6 
REMARK    4  A    between atoms: C6_6  and  N1_7 
REMARK    5  A    between atoms: N1_7  and  C7_8 
REMARK    6  A    between atoms: C10_11  and  N2_12 
REMARK    7  A    between atoms: N2_12  and  C11_13 
ROOT
HETATM    1  C7  UNL     1      26.512   4.806  49.393  1.00  0.00     0.124 A 
HETATM    2  C8  UNL     1      26.016   3.718  50.077  1.00  0.00     0.068 A 
HETATM    3  C9  UNL     1      24.909   3.710  50.897  1.00  0.00     0.044 A 
HETATM    4  C10 UNL     1      24.442   2.601  51.564  1.00  0.00     0.142 A 
HETATM    5  N3  UNL     1      23.356   2.821  52.298  1.00  0.00    -0.224 NA
HETATM    6  C17 UNL     1      22.731   3.996  52.414  1.00  0.00     0.236 A 
HETATM    7  N4  UNL     1      23.202   5.085  51.750  1.00  0.00    -0.240 NA
HETATM    8  C18 UNL     1      24.310   4.944  50.977  1.00  0.00     0.089 A 
HETATM    9  C19 UNL     1      24.739   6.069  50.330  1.00  0.00     0.151 A 
HETATM   10  N5  UNL     1      25.832   5.981  49.550  1.00  0.00    -0.241 NA
ENDROOT
BRANCH   4  11
HETATM   11  N2  UNL     1      25.127   1.372  51.430  1.00  0.00    -0.340 N 
HETATM   12  H12 UNL     1      24.901   0.687  50.700  1.00  0.00     0.167 HD
BRANCH  11  13
HETATM   13  C11 UNL     1      26.190   0.891  52.232  1.00  0.00     0.035 A 
HETATM   14  C12 UNL     1      26.884   1.680  53.111  1.00  0.00     0.032 A 
HETATM   15  C13 UNL     1      27.929   1.250  53.900  1.00  0.00     0.046 A 
HETATM   16  C14 UNL     1      28.341  -0.062  53.837  1.00  0.00     0.138 A 
HETATM   17  F1  UNL     1      29.345  -0.559  54.569  1.00  0.00    -0.204 F 
HETATM   18  C15 UNL     1      27.678  -0.897  52.973  1.00  0.00     0.074 A 
HETATM   19 CL1  UNL     1      28.155  -2.560  52.851  1.00  0.00    -0.081 Cl
HETATM   20  C16 UNL     1      26.648  -0.408  52.215  1.00  0.00     0.056 A 
ENDBRANCH  11  13
ENDBRANCH   4  11
BRANCH   1  21
HETATM   21  N1  UNL     1      27.665   4.726  48.565  1.00  0.00    -0.364 N 
HETATM   22  H10 UNL     1      27.951   3.780  48.226  1.00  0.00     0.162 HD
BRANCH  21  23
HETATM   23  C6  UNL     1      28.357   5.943  48.248  1.00  0.00     0.215 C 
BRANCH  23  24
HETATM   24  C5  UNL     1      29.773   5.565  48.015  1.00  0.00    -0.087 C 
HETATM   25  C4  UNL     1      30.929   5.260  47.806  1.00  0.00    -0.105 C 
BRANCH  25  26
HETATM   26  C3  UNL     1      32.321   4.877  47.566  1.00  0.00     0.093 C 
BRANCH  26  27
HETATM   27  C2  UNL     1      32.448   3.999  46.339  1.00  0.00     0.007 C 
HETATM   28  C1  UNL     1      32.068   2.569  46.578  1.00  0.00     0.006 C 
ENDBRANCH  26  27
ENDBRANCH  25  26
ENDBRANCH  23  24
ENDBRANCH  21  23
ENDBRANCH   1  21
TORSDOF 7
ENDMDL
MODEL 9
REMARK VINA RESULT:      -6.9      4.220      7.827
REMARK  7 active torsions:
REMARK  status: ('A' for Active; 'I' for Inactive)
REMARK    1  A    between atoms: C2_2  and  C3_3 
REMARK    2  A    between atoms: C3_3  and  C4_4 
REMARK    3  A    between atoms: C5_5  and  C6_6 
REMARK    4  A    between atoms: C6_6  and  N1_7 
REMARK    5  A    between atoms: N1_7  and  C7_8 
REMARK    6  A    between atoms: C10_11  and  N2_12 
REMARK    7  A    between atoms: N2_12  and  C11_13 
ROOT
HETATM    1  C7  UNL     1      26.404   5.421  49.362  1.00  0.00     0.124 A 
HETATM    2  C8  UNL     1      25.498   4.475  49.788  1.00  0.00     0.068 A 
HETATM    3  C9  UNL     1      24.276   4.726  50.374  1.00  0.00     0.044 A 
HETATM    4  C10 UNL     1      23.395   3.753  50.787  1.00  0.00     0.142 A 
HETATM    5  N3  UNL     1      22.274   4.222  51.324  1.00  0.00    -0.224 NA
HETATM    6  C17 UNL     1      21.976   5.516  51.473  1.00  0.00     0.236 A 
HETATM    7  N4  UNL     1      22.854   6.469  51.061  1.00  0.00    -0.240 NA
HETATM    8  C18 UNL     1      24.026   6.071  50.501  1.00  0.00     0.089 A 
HETATM    9  C19 UNL     1      24.871   7.069  50.103  1.00  0.00     0.151 A 
HETATM   10  N5  UNL     1      26.044   6.726  49.541  1.00  0.00    -0.241 NA
ENDROOT
BRANCH   4  11
HETATM   11  N2  UNL     1      23.740   2.392  50.625  1.00  0.00    -0.340 N 
HETATM   12  H12 UNL     1      23.741   1.926  49.710  1.00  0.00     0.167 HD
BRANCH  11  13
HETATM   13  C11 UNL     1      24.125   1.478  51.635  1.00  0.00     0.035 A 
HETATM   14  C12 UNL     1      23.235   0.891  52.494  1.00  0.00     0.032 A 
HETATM   15  C13 UNL     1      23.572   0.004  53.494  1.00  0.00     0.046 A 
HETATM   16  C14 UNL     1      24.890  -0.349  53.681  1.00  0.00     0.138 A 
HETATM   17  F1  UNL     1      25.301  -1.201  54.627  1.00  0.00    -0.204 F 
HETATM   18  C15 UNL     1      25.824   0.211  52.846  1.00  0.00     0.074 A 
HETATM   19 CL1  UNL     1      27.498  -0.197  53.036  1.00  0.00    -0.081 Cl
HETATM   20  C16 UNL     1      25.424   1.085  51.872  1.00  0.00     0.056 A 
ENDBRANCH  11  13
ENDBRANCH   4  11
BRANCH   1  21
HETATM   21  N1  UNL     1      27.647   5.072  48.765  1.00  0.00    -0.364 N 
HETATM   22  H10 UNL     1      27.883   4.056  48.700  1.00  0.00     0.162 HD
BRANCH  21  23
HETATM   23  C6  UNL     1      28.492   6.131  48.293  1.00  0.00     0.215 C 
BRANCH  23  24
HETATM   24  C5  UNL     1      29.793   5.504  47.955  1.00  0.00    -0.087 C 
HETATM   25  C4  UNL     1      30.862   4.989  47.697  1.00  0.00    -0.105 C 
BRANCH  25  26
HETATM   26  C3  UNL     1      32.153   4.383  47.371  1.00  0.00     0.093 C 
BRANCH  26  27
HETATM   27  C2  UNL     1      31.978   3.115  46.562  1.00  0.00     0.007 C 
HETATM   28  C1  UNL     1      32.783   1.957  47.073  1.00  0.00     0.006 C 
ENDBRANCH  26  27
ENDBRANCH  25  26
ENDBRANCH  23  24
ENDBRANCH  21  23
ENDBRANCH   1  21
TORSDOF 7
ENDMDL
