MODEL 1
REMARK VINA RESULT:      -9.7      0.000      0.000
REMARK  6 active torsions:
REMARK  status: ('A' for Active; 'I' for Inactive)
REMARK    1  A    between atoms: C5_7  and  C6_8 
REMARK    2  A    between atoms: C6_8  and  C7_9 
REMARK    3  A    between atoms: C8_10  and  C9_11 
REMARK       I    between atoms: C9_11  and  N2_13 
REMARK    4  A    between atoms: N2_13  and  C10_14 
REMARK    5  A    between atoms: C15_21  and  N5_22 
REMARK    6  A    between atoms: N5_22  and  C16_23 
ROOT
HETATM    1  C10 UNL     1      26.830   2.066  52.351  1.00  0.00     0.020 C 
HETATM    2  C11 UNL     1      27.747   2.312  53.245  1.00  0.00     0.027 C 
HETATM    3  C12 UNL     1      28.895   1.771  53.917  1.00  0.00     0.021 C 
HETATM    4  C13 UNL     1      29.485   0.600  53.759  1.00  0.00     0.118 C 
HETATM    5  N3  UNL     1      29.838  -0.688  53.334  1.00  0.00    -0.254 NA
HETATM    6  C14 UNL     1      29.042  -1.686  53.314  1.00  0.00     0.234 C 
HETATM    7  N4  UNL     1      27.921  -1.026  53.808  1.00  0.00    -0.228 NA
HETATM    8  C15 UNL     1      27.232  -0.191  53.125  1.00  0.00     0.111 C 
HETATM    9  C22 UNL     1      26.844   0.637  51.917  1.00  0.00     0.135 C 
ENDROOT
BRANCH   1  10
HETATM   10  N2  UNL     1      25.707   2.759  51.760  1.00  0.00    -0.320 N 
HETATM   11  C9  UNL     1      26.122   3.397  50.544  1.00  0.00     0.300 C 
HETATM   12  O2  UNL     1      27.301   3.316  50.127  1.00  0.00    -0.258 OA
HETATM   13  H13 UNL     1      24.713   2.815  52.129  1.00  0.00     0.169 HD
BRANCH  11  14
HETATM   14  C8  UNL     1      25.149   4.154  49.780  1.00  0.00    -0.005 C 
HETATM   15  C7  UNL     1      24.342   4.797  49.155  1.00  0.00    -0.094 C 
BRANCH  15  16
HETATM   16  C6  UNL     1      23.375   5.595  48.385  1.00  0.00     0.130 C 
BRANCH  16  17
HETATM   17  C5  UNL     1      22.080   5.561  49.165  1.00  0.00     0.239 C 
HETATM   18  C2  UNL     1      22.306   6.318  50.449  1.00  0.00     0.039 C 
HETATM   19  C1  UNL     1      21.394   7.514  50.551  1.00  0.00     0.014 C 
HETATM   20  C3  UNL     1      22.116   5.362  51.589  1.00  0.00     0.176 C 
HETATM   21  O1  UNL     1      20.926   4.675  51.561  1.00  0.00    -0.362 OA
HETATM   22  C4  UNL     1      20.633   4.140  50.311  1.00  0.00     0.438 C 
HETATM   23  N1  UNL     1      21.771   4.173  49.422  1.00  0.00     0.112 N 
HETATM   24  H9  UNL     1      22.591   3.731  49.872  1.00  0.00     0.319 HD
ENDBRANCH  16  17
ENDBRANCH  15  16
ENDBRANCH  11  14
ENDBRANCH   1  10
BRANCH   8  25
HETATM   25  N5  UNL     1      26.245   0.137  54.147  1.00  0.00    -0.344 N 
HETATM   26  H18 UNL     1      26.464   0.845  54.938  1.00  0.00     0.167 HD
BRANCH  25  27
HETATM   27  C16 UNL     1      24.884  -0.359  54.295  1.00  0.00     0.035 A 
HETATM   28  C17 UNL     1      24.475  -1.095  55.387  1.00  0.00     0.032 A 
HETATM   29  C18 UNL     1      23.189  -1.554  55.546  1.00  0.00     0.046 A 
HETATM   30  C19 UNL     1      22.242  -1.287  54.591  1.00  0.00     0.138 A 
HETATM   31  F1  UNL     1      20.961  -1.706  54.681  1.00  0.00    -0.204 F 
HETATM   32  C20 UNL     1      22.643  -0.560  53.509  1.00  0.00     0.074 A 
HETATM   33 CL1  UNL     1      21.482  -0.193  52.267  1.00  0.00    -0.081 Cl
HETATM   34  C21 UNL     1      23.911  -0.111  53.361  1.00  0.00     0.056 A 
ENDBRANCH  25  27
ENDBRANCH   8  25
TORSDOF 6
ENDMDL
MODEL 2
REMARK VINA RESULT:      -9.6      1.528      2.028
REMARK  6 active torsions:
REMARK  status: ('A' for Active; 'I' for Inactive)
REMARK    1  A    between atoms: C5_7  and  C6_8 
REMARK    2  A    between atoms: C6_8  and  C7_9 
REMARK    3  A    between atoms: C8_10  and  C9_11 
REMARK       I    between atoms: C9_11  and  N2_13 
REMARK    4  A    between atoms: N2_13  and  C10_14 
REMARK    5  A    between atoms: C15_21  and  N5_22 
REMARK    6  A    between atoms: N5_22  and  C16_23 
ROOT
HETATM    1  C10 UNL     1      26.790   2.055  52.417  1.00  0.00     0.020 C 
HETATM    2  C11 UNL     1      27.711   2.312  53.303  1.00  0.00     0.027 C 
HETATM    3  C12 UNL     1      28.876   1.788  53.959  1.00  0.00     0.021 C 
HETATM    4  C13 UNL     1      29.486   0.629  53.787  1.00  0.00     0.118 C 
HETATM    5  N3  UNL     1      29.859  -0.649  53.349  1.00  0.00    -0.254 NA
HETATM    6  C14 UNL     1      29.081  -1.662  53.330  1.00  0.00     0.234 C 
HETATM    7  N4  UNL     1      27.954  -1.025  53.841  1.00  0.00    -0.228 NA
HETATM    8  C15 UNL     1      27.242  -0.199  53.171  1.00  0.00     0.111 C 
HETATM    9  C22 UNL     1      26.826   0.630  51.973  1.00  0.00     0.135 C 
ENDROOT
BRANCH   1  10
HETATM   10  N2  UNL     1      25.647   2.731  51.843  1.00  0.00    -0.320 N 
HETATM   11  C9  UNL     1      26.027   3.348  50.604  1.00  0.00     0.300 C 
HETATM   12  O2  UNL     1      27.196   3.266  50.159  1.00  0.00    -0.258 OA
HETATM   13  H13 UNL     1      24.663   2.788  52.237  1.00  0.00     0.169 HD
BRANCH  11  14
HETATM   14  C8  UNL     1      25.030   4.086  49.852  1.00  0.00    -0.005 C 
HETATM   15  C7  UNL     1      24.193   4.684  49.224  1.00  0.00    -0.094 C 
BRANCH  15  16
HETATM   16  C6  UNL     1      23.156   5.412  48.475  1.00  0.00     0.130 C 
BRANCH  16  17
HETATM   17  C5  UNL     1      21.967   4.483  48.384  1.00  0.00     0.239 C 
HETATM   18  C2  UNL     1      22.256   3.484  47.293  1.00  0.00     0.039 C 
HETATM   19  C1  UNL     1      22.289   2.075  47.829  1.00  0.00     0.014 C 
HETATM   20  C3  UNL     1      21.220   3.658  46.222  1.00  0.00     0.176 C 
HETATM   21  O1  UNL     1      19.922   3.614  46.675  1.00  0.00    -0.362 OA
HETATM   22  C4  UNL     1      19.712   4.395  47.806  1.00  0.00     0.438 C 
HETATM   23  N1  UNL     1      20.815   5.292  48.063  1.00  0.00     0.112 N 
HETATM   24  H9  UNL     1      21.029   5.850  47.218  1.00  0.00     0.319 HD
ENDBRANCH  16  17
ENDBRANCH  15  16
ENDBRANCH  11  14
ENDBRANCH   1  10
BRANCH   8  25
HETATM   25  N5  UNL     1      26.260   0.103  54.206  1.00  0.00    -0.344 N 
HETATM   26  H18 UNL     1      26.485   0.786  55.017  1.00  0.00     0.167 HD
BRANCH  25  27
HETATM   27  C16 UNL     1      24.896  -0.390  54.343  1.00  0.00     0.035 A 
HETATM   28  C17 UNL     1      24.477  -1.122  55.433  1.00  0.00     0.032 A 
HETATM   29  C18 UNL     1      23.189  -1.578  55.582  1.00  0.00     0.046 A 
HETATM   30  C19 UNL     1      22.250  -1.312  54.619  1.00  0.00     0.138 A 
HETATM   31  F1  UNL     1      20.968  -1.727  54.698  1.00  0.00    -0.204 F 
HETATM   32  C20 UNL     1      22.662  -0.587  53.539  1.00  0.00     0.074 A 
HETATM   33 CL1  UNL     1      21.512  -0.220  52.287  1.00  0.00    -0.081 Cl
HETATM   34  C21 UNL     1      23.931  -0.142  53.401  1.00  0.00     0.056 A 
ENDBRANCH  25  27
ENDBRANCH   8  25
TORSDOF 6
ENDMDL
MODEL 3
REMARK VINA RESULT:      -9.5      1.598      1.946
REMARK  6 active torsions:
REMARK  status: ('A' for Active; 'I' for Inactive)
REMARK    1  A    between atoms: C5_7  and  C6_8 
REMARK    2  A    between atoms: C6_8  and  C7_9 
REMARK    3  A    between atoms: C8_10  and  C9_11 
REMARK       I    between atoms: C9_11  and  N2_13 
REMARK    4  A    between atoms: N2_13  and  C10_14 
REMARK    5  A    between atoms: C15_21  and  N5_22 
REMARK    6  A    between atoms: N5_22  and  C16_23 
ROOT
HETATM    1  C10 UNL     1      26.818   2.052  52.336  1.00  0.00     0.020 C 
HETATM    2  C11 UNL     1      27.735   2.309  53.227  1.00  0.00     0.027 C 
HETATM    3  C12 UNL     1      28.885   1.777  53.903  1.00  0.00     0.021 C 
HETATM    4  C13 UNL     1      29.480   0.608  53.754  1.00  0.00     0.118 C 
HETATM    5  N3  UNL     1      29.839  -0.682  53.338  1.00  0.00    -0.254 NA
HETATM    6  C14 UNL     1      29.047  -1.683  53.325  1.00  0.00     0.234 C 
HETATM    7  N4  UNL     1      27.924  -1.024  53.816  1.00  0.00    -0.228 NA
HETATM    8  C15 UNL     1      27.231  -0.197  53.126  1.00  0.00     0.111 C 
HETATM    9  C22 UNL     1      26.838   0.620  51.913  1.00  0.00     0.135 C 
ENDROOT
BRANCH   1  10
HETATM   10  N2  UNL     1      25.691   2.736  51.741  1.00  0.00    -0.320 N 
HETATM   11  C9  UNL     1      26.111   3.396  50.538  1.00  0.00     0.300 C 
HETATM   12  O2  UNL     1      27.297   3.340  50.135  1.00  0.00    -0.258 OA
HETATM   13  H13 UNL     1      24.692   2.772  52.098  1.00  0.00     0.169 HD
BRANCH  11  14
HETATM   14  C8  UNL     1      25.136   4.149  49.772  1.00  0.00    -0.005 C 
HETATM   15  C7  UNL     1      24.324   4.762  49.124  1.00  0.00    -0.094 C 
BRANCH  15  16
HETATM   16  C6  UNL     1      23.316   5.494  48.342  1.00  0.00     0.130 C 
BRANCH  16  17
HETATM   17  C5  UNL     1      23.615   6.963  48.535  1.00  0.00     0.239 C 
HETATM   18  C2  UNL     1      22.926   7.402  49.802  1.00  0.00     0.039 C 
HETATM   19  C1  UNL     1      23.917   7.897  50.825  1.00  0.00     0.014 C 
HETATM   20  C3  UNL     1      21.915   8.449  49.439  1.00  0.00     0.176 C 
HETATM   21  O1  UNL     1      22.419   9.493  48.700  1.00  0.00    -0.362 OA
HETATM   22  C4  UNL     1      23.217   9.077  47.640  1.00  0.00     0.438 C 
HETATM   23  N1  UNL     1      23.090   7.661  47.384  1.00  0.00     0.112 N 
HETATM   24  H9  UNL     1      22.094   7.405  47.268  1.00  0.00     0.319 HD
ENDBRANCH  16  17
ENDBRANCH  15  16
ENDBRANCH  11  14
ENDBRANCH   1  10
BRANCH   8  25
HETATM   25  N5  UNL     1      26.242   0.134  54.147  1.00  0.00    -0.344 N 
HETATM   26  H18 UNL     1      26.461   0.844  54.936  1.00  0.00     0.167 HD
BRANCH  25  27
HETATM   27  C16 UNL     1      24.881  -0.361  54.294  1.00  0.00     0.035 A 
HETATM   28  C17 UNL     1      24.474  -1.107  55.380  1.00  0.00     0.032 A 
HETATM   29  C18 UNL     1      23.188  -1.565  55.539  1.00  0.00     0.046 A 
HETATM   30  C19 UNL     1      22.238  -1.286  54.590  1.00  0.00     0.138 A 
HETATM   31  F1  UNL     1      20.957  -1.703  54.680  1.00  0.00    -0.204 F 
HETATM   32  C20 UNL     1      22.637  -0.548  53.514  1.00  0.00     0.074 A 
HETATM   33 CL1  UNL     1      21.472  -0.165  52.281  1.00  0.00    -0.081 Cl
HETATM   34  C21 UNL     1      23.905  -0.101  53.367  1.00  0.00     0.056 A 
ENDBRANCH  25  27
ENDBRANCH   8  25
TORSDOF 6
ENDMDL
MODEL 4
REMARK VINA RESULT:      -9.5      4.084      5.993
REMARK  6 active torsions:
REMARK  status: ('A' for Active; 'I' for Inactive)
REMARK    1  A    between atoms: C5_7  and  C6_8 
REMARK    2  A    between atoms: C6_8  and  C7_9 
REMARK    3  A    between atoms: C8_10  and  C9_11 
REMARK       I    between atoms: C9_11  and  N2_13 
REMARK    4  A    between atoms: N2_13  and  C10_14 
REMARK    5  A    between atoms: C15_21  and  N5_22 
REMARK    6  A    between atoms: N5_22  and  C16_23 
ROOT
HETATM    1  C10 UNL     1      23.264   3.082  50.781  1.00  0.00     0.020 C 
HETATM    2  C11 UNL     1      22.606   2.104  50.222  1.00  0.00     0.027 C 
HETATM    3  C12 UNL     1      21.765   0.968  50.479  1.00  0.00     0.021 C 
HETATM    4  C13 UNL     1      21.306   0.507  51.628  1.00  0.00     0.118 C 
HETATM    5  N3  UNL     1      21.014   0.310  52.985  1.00  0.00    -0.254 NA
HETATM    6  C14 UNL     1      21.893   0.209  53.906  1.00  0.00     0.234 C 
HETATM    7  N4  UNL     1      23.014   0.350  53.094  1.00  0.00    -0.228 NA
HETATM    8  C15 UNL     1      23.377   1.463  52.576  1.00  0.00     0.111 C 
HETATM    9  C22 UNL     1      23.311   2.945  52.267  1.00  0.00     0.135 C 
ENDROOT
BRANCH   1  10
HETATM   10  N2  UNL     1      24.085   4.193  50.353  1.00  0.00    -0.320 N 
HETATM   11  C9  UNL     1      25.270   3.696  49.714  1.00  0.00     0.300 C 
HETATM   12  O2  UNL     1      25.484   2.467  49.588  1.00  0.00    -0.258 OA
HETATM   13  H13 UNL     1      23.885   5.229  50.470  1.00  0.00     0.169 HD
BRANCH  11  14
HETATM   14  C8  UNL     1      26.243   4.642  49.204  1.00  0.00    -0.005 C 
HETATM   15  C7  UNL     1      27.065   5.419  48.784  1.00  0.00    -0.094 C 
BRANCH  15  16
HETATM   16  C6  UNL     1      28.072   6.352  48.254  1.00  0.00     0.130 C 
BRANCH  16  17
HETATM   17  C5  UNL     1      27.519   7.742  48.472  1.00  0.00     0.239 C 
HETATM   18  C2  UNL     1      28.607   8.722  48.113  1.00  0.00     0.039 C 
HETATM   19  C1  UNL     1      28.191   9.613  46.971  1.00  0.00     0.014 C 
HETATM   20  C3  UNL     1      28.949   9.504  49.347  1.00  0.00     0.176 C 
HETATM   21  O1  UNL     1      27.869  10.087  49.967  1.00  0.00    -0.362 OA
HETATM   22  C4  UNL     1      26.793   9.220  50.120  1.00  0.00     0.438 C 
HETATM   23  N1  UNL     1      27.159   7.845  49.867  1.00  0.00     0.112 N 
HETATM   24  H9  UNL     1      27.979   7.581  50.440  1.00  0.00     0.319 HD
ENDBRANCH  16  17
ENDBRANCH  15  16
ENDBRANCH  11  14
ENDBRANCH   1  10
BRANCH   8  25
HETATM   25  N5  UNL     1      24.559   0.978  51.872  1.00  0.00    -0.344 N 
HETATM   26  H18 UNL     1      24.557   0.833  50.797  1.00  0.00     0.167 HD
BRANCH  25  27
HETATM   27  C16 UNL     1      25.868   0.637  52.411  1.00  0.00     0.035 A 
HETATM   28  C17 UNL     1      26.311  -0.664  52.518  1.00  0.00     0.032 A 
HETATM   29  C18 UNL     1      27.551  -0.998  53.010  1.00  0.00     0.046 A 
HETATM   30  C19 UNL     1      28.413  -0.015  53.424  1.00  0.00     0.138 A 
HETATM   31  F1  UNL     1      29.644  -0.269  53.917  1.00  0.00    -0.204 F 
HETATM   32  C20 UNL     1      27.977   1.273  53.319  1.00  0.00     0.074 A 
HETATM   33 CL1  UNL     1      29.031   2.559  53.830  1.00  0.00    -0.081 Cl
HETATM   34  C21 UNL     1      26.756   1.592  52.833  1.00  0.00     0.056 A 
ENDBRANCH  25  27
ENDBRANCH   8  25
TORSDOF 6
ENDMDL
MODEL 5
REMARK VINA RESULT:      -9.3      3.955      6.179
REMARK  6 active torsions:
REMARK  status: ('A' for Active; 'I' for Inactive)
REMARK    1  A    between atoms: C5_7  and  C6_8 
REMARK    2  A    between atoms: C6_8  and  C7_9 
REMARK    3  A    between atoms: C8_10  and  C9_11 
REMARK       I    between atoms: C9_11  and  N2_13 
REMARK    4  A    between atoms: N2_13  and  C10_14 
REMARK    5  A    between atoms: C15_21  and  N5_22 
REMARK    6  A    between atoms: N5_22  and  C16_23 
ROOT
HETATM    1  C10 UNL     1      25.124   0.322  52.873  1.00  0.00     0.020 C 
HETATM    2  C11 UNL     1      26.126  -0.480  52.645  1.00  0.00     0.027 C 
HETATM    3  C12 UNL     1      27.536  -0.669  52.841  1.00  0.00     0.021 C 
HETATM    4  C13 UNL     1      28.405   0.097  53.474  1.00  0.00     0.118 C 
HETATM    5  N3  UNL     1      29.021   1.124  54.203  1.00  0.00    -0.254 NA
HETATM    6  C14 UNL     1      28.954   2.363  53.904  1.00  0.00     0.234 C 
HETATM    7  N4  UNL     1      28.163   2.226  52.767  1.00  0.00    -0.228 NA
HETATM    8  C15 UNL     1      26.914   1.948  52.802  1.00  0.00     0.111 C 
HETATM    9  C22 UNL     1      25.574   1.631  53.434  1.00  0.00     0.135 C 
ENDROOT
BRANCH   1  10
HETATM   10  N2  UNL     1      23.703   0.354  52.605  1.00  0.00    -0.320 N 
HETATM   11  C9  UNL     1      23.008  -0.401  53.607  1.00  0.00     0.300 C 
HETATM   12  O2  UNL     1      23.617  -0.973  54.542  1.00  0.00    -0.258 OA
HETATM   13  H13 UNL     1      23.205   0.845  51.806  1.00  0.00     0.169 HD
BRANCH  11  14
HETATM   14  C8  UNL     1      21.563  -0.505  53.534  1.00  0.00    -0.005 C 
HETATM   15  C7  UNL     1      20.363  -0.597  53.457  1.00  0.00    -0.094 C 
BRANCH  15  16
HETATM   16  C6  UNL     1      18.901  -0.732  53.363  1.00  0.00     0.130 C 
BRANCH  16  17
HETATM   17  C5  UNL     1      18.542  -0.470  51.919  1.00  0.00     0.239 C 
HETATM   18  C2  UNL     1      18.864   0.973  51.627  1.00  0.00     0.039 C 
HETATM   19  C1  UNL     1      19.907   1.097  50.546  1.00  0.00     0.014 C 
HETATM   20  C3  UNL     1      17.585   1.667  51.263  1.00  0.00     0.176 C 
HETATM   21  O1  UNL     1      16.870   1.053  50.262  1.00  0.00    -0.362 OA
HETATM   22  C4  UNL     1      16.744  -0.320  50.444  1.00  0.00     0.438 C 
HETATM   23  N1  UNL     1      17.128  -0.731  51.775  1.00  0.00     0.112 N 
HETATM   24  H9  UNL     1      16.617  -0.178  52.484  1.00  0.00     0.319 HD
ENDBRANCH  16  17
ENDBRANCH  15  16
ENDBRANCH  11  14
ENDBRANCH   1  10
BRANCH   8  25
HETATM   25  N5  UNL     1      26.670   1.942  51.365  1.00  0.00    -0.344 N 
HETATM   26  H18 UNL     1      26.930   1.087  50.751  1.00  0.00     0.167 HD
BRANCH  25  27
HETATM   27  C16 UNL     1      26.069   2.977  50.535  1.00  0.00     0.035 A 
HETATM   28  C17 UNL     1      24.707   3.089  50.356  1.00  0.00     0.032 A 
HETATM   29  C18 UNL     1      24.127   4.071  49.589  1.00  0.00     0.046 A 
HETATM   30  C19 UNL     1      24.912   5.000  48.956  1.00  0.00     0.138 A 
HETATM   31  F1  UNL     1      24.412   5.992  48.187  1.00  0.00    -0.204 F 
HETATM   32  C20 UNL     1      26.260   4.892  49.130  1.00  0.00     0.074 A 
HETATM   33 CL1  UNL     1      27.303   6.044  48.348  1.00  0.00    -0.081 Cl
HETATM   34  C21 UNL     1      26.822   3.922  49.887  1.00  0.00     0.056 A 
ENDBRANCH  25  27
ENDBRANCH   8  25
TORSDOF 6
ENDMDL
MODEL 6
REMARK VINA RESULT:      -9.3      1.929      2.523
REMARK  6 active torsions:
REMARK  status: ('A' for Active; 'I' for Inactive)
REMARK    1  A    between atoms: C5_7  and  C6_8 
REMARK    2  A    between atoms: C6_8  and  C7_9 
REMARK    3  A    between atoms: C8_10  and  C9_11 
REMARK       I    between atoms: C9_11  and  N2_13 
REMARK    4  A    between atoms: N2_13  and  C10_14 
REMARK    5  A    between atoms: C15_21  and  N5_22 
REMARK    6  A    between atoms: N5_22  and  C16_23 
ROOT
HETATM    1  C10 UNL     1      26.537   1.985  52.282  1.00  0.00     0.020 C 
HETATM    2  C11 UNL     1      27.309   1.918  53.331  1.00  0.00     0.027 C 
HETATM    3  C12 UNL     1      28.170   1.056  54.090  1.00  0.00     0.021 C 
HETATM    4  C13 UNL     1      28.508  -0.201  53.868  1.00  0.00     0.118 C 
HETATM    5  N3  UNL     1      28.641  -1.489  53.331  1.00  0.00    -0.254 NA
HETATM    6  C14 UNL     1      27.662  -2.261  53.055  1.00  0.00     0.234 C 
HETATM    7  N4  UNL     1      26.644  -1.403  53.457  1.00  0.00    -0.228 NA
HETATM    8  C15 UNL     1      26.289  -0.366  52.796  1.00  0.00     0.111 C 
HETATM    9  C22 UNL     1      26.315   0.643  51.667  1.00  0.00     0.135 C 
ENDROOT
BRANCH   1  10
HETATM   10  N2  UNL     1      25.717   2.980  51.626  1.00  0.00    -0.320 N 
HETATM   11  C9  UNL     1      24.677   3.408  52.517  1.00  0.00     0.300 C 
HETATM   12  O2  UNL     1      24.566   2.939  53.675  1.00  0.00    -0.258 OA
HETATM   13  H13 UNL     1      25.827   3.365  50.643  1.00  0.00     0.169 HD
BRANCH  11  14
HETATM   14  C8  UNL     1      23.731   4.409  52.064  1.00  0.00    -0.005 C 
HETATM   15  C7  UNL     1      22.940   5.246  51.703  1.00  0.00    -0.094 C 
BRANCH  15  16
HETATM   16  C6  UNL     1      21.990   6.282  51.271  1.00  0.00     0.130 C 
BRANCH  16  17
HETATM   17  C5  UNL     1      22.782   7.262  50.435  1.00  0.00     0.239 C 
HETATM   18  C2  UNL     1      23.180   6.555  49.165  1.00  0.00     0.039 C 
HETATM   19  C1  UNL     1      22.599   7.233  47.951  1.00  0.00     0.014 C 
HETATM   20  C3  UNL     1      24.678   6.496  49.119  1.00  0.00     0.176 C 
HETATM   21  O1  UNL     1      25.299   7.711  49.287  1.00  0.00    -0.362 OA
HETATM   22  C4  UNL     1      24.788   8.444  50.352  1.00  0.00     0.438 C 
HETATM   23  N1  UNL     1      23.941   7.645  51.208  1.00  0.00     0.112 N 
HETATM   24  H9  UNL     1      24.437   6.787  51.505  1.00  0.00     0.319 HD
ENDBRANCH  16  17
ENDBRANCH  15  16
ENDBRANCH  11  14
ENDBRANCH   1  10
BRANCH   8  25
HETATM   25  N5  UNL     1      25.230   0.088  53.690  1.00  0.00    -0.344 N 
HETATM   26  H18 UNL     1      25.414   0.841  54.448  1.00  0.00     0.167 HD
BRANCH  25  27
HETATM   27  C16 UNL     1      23.834  -0.324  53.737  1.00  0.00     0.035 A 
HETATM   28  C17 UNL     1      23.320  -1.094  54.758  1.00  0.00     0.032 A 
HETATM   29  C18 UNL     1      22.000  -1.475  54.822  1.00  0.00     0.046 A 
HETATM   30  C19 UNL     1      21.126  -1.091  53.838  1.00  0.00     0.138 A 
HETATM   31  F1  UNL     1      19.819  -1.428  53.835  1.00  0.00    -0.204 F 
HETATM   32  C20 UNL     1      21.632  -0.329  52.825  1.00  0.00     0.074 A 
HETATM   33 CL1  UNL     1      20.567   0.187  51.551  1.00  0.00    -0.081 Cl
HETATM   34  C21 UNL     1      22.931   0.042  52.771  1.00  0.00     0.056 A 
ENDBRANCH  25  27
ENDBRANCH   8  25
TORSDOF 6
ENDMDL
MODEL 7
REMARK VINA RESULT:      -9.1      4.633      7.291
REMARK  6 active torsions:
REMARK  status: ('A' for Active; 'I' for Inactive)
REMARK    1  A    between atoms: C5_7  and  C6_8 
REMARK    2  A    between atoms: C6_8  and  C7_9 
REMARK    3  A    between atoms: C8_10  and  C9_11 
REMARK       I    between atoms: C9_11  and  N2_13 
REMARK    4  A    between atoms: N2_13  and  C10_14 
REMARK    5  A    between atoms: C15_21  and  N5_22 
REMARK    6  A    between atoms: N5_22  and  C16_23 
ROOT
HETATM    1  C10 UNL     1      24.556   4.067  49.821  1.00  0.00     0.020 C 
HETATM    2  C11 UNL     1      23.895   3.072  49.299  1.00  0.00     0.027 C 
HETATM    3  C12 UNL     1      22.934   2.039  49.572  1.00  0.00     0.021 C 
HETATM    4  C13 UNL     1      22.293   1.765  50.693  1.00  0.00     0.118 C 
HETATM    5  N3  UNL     1      21.812   1.769  52.010  1.00  0.00    -0.254 NA
HETATM    6  C14 UNL     1      22.553   1.731  53.050  1.00  0.00     0.234 C 
HETATM    7  N4  UNL     1      23.778   1.687  52.391  1.00  0.00    -0.228 NA
HETATM    8  C15 UNL     1      24.298   2.695  51.797  1.00  0.00     0.111 C 
HETATM    9  C22 UNL     1      24.398   4.124  51.305  1.00  0.00     0.135 C 
ENDROOT
BRANCH   1  10
HETATM   10  N2  UNL     1      25.516   5.054  49.381  1.00  0.00    -0.320 N 
HETATM   11  C9  UNL     1      26.756   4.407  49.057  1.00  0.00     0.300 C 
HETATM   12  O2  UNL     1      26.900   3.167  49.169  1.00  0.00    -0.258 OA
HETATM   13  H13 UNL     1      25.375   6.103  49.293  1.00  0.00     0.169 HD
BRANCH  11  14
HETATM   14  C8  UNL     1      27.868   5.212  48.590  1.00  0.00    -0.005 C 
HETATM   15  C7  UNL     1      28.787   5.894  48.211  1.00  0.00    -0.094 C 
BRANCH  15  16
HETATM   16  C6  UNL     1      29.917   6.726  47.769  1.00  0.00     0.130 C 
BRANCH  16  17
HETATM   17  C5  UNL     1      31.172   5.982  48.163  1.00  0.00     0.239 C 
HETATM   18  C2  UNL     1      32.349   6.795  47.686  1.00  0.00     0.039 C 
HETATM   19  C1  UNL     1      33.219   7.231  48.837  1.00  0.00     0.014 C 
HETATM   20  C3  UNL     1      33.104   5.972  46.685  1.00  0.00     0.176 C 
HETATM   21  O1  UNL     1      33.449   4.716  47.127  1.00  0.00    -0.362 OA
HETATM   22  C4  UNL     1      32.398   4.045  47.742  1.00  0.00     0.438 C 
HETATM   23  N1  UNL     1      31.127   4.693  47.511  1.00  0.00     0.112 N 
HETATM   24  H9  UNL     1      30.978   4.841  46.498  1.00  0.00     0.319 HD
ENDBRANCH  16  17
ENDBRANCH  15  16
ENDBRANCH  11  14
ENDBRANCH   1  10
BRANCH   8  25
HETATM   25  N5  UNL     1      25.516   2.043  51.328  1.00  0.00    -0.344 N 
HETATM   26  H18 UNL     1      25.801   2.063  50.283  1.00  0.00     0.167 HD
BRANCH  25  27
HETATM   27  C16 UNL     1      26.515   1.313  52.096  1.00  0.00     0.035 A 
HETATM   28  C17 UNL     1      26.592  -0.064  52.097  1.00  0.00     0.032 A 
HETATM   29  C18 UNL     1      27.541  -0.763  52.804  1.00  0.00     0.046 A 
HETATM   30  C19 UNL     1      28.470  -0.091  53.556  1.00  0.00     0.138 A 
HETATM   31  F1  UNL     1      29.430  -0.712  54.275  1.00  0.00    -0.204 F 
HETATM   32  C20 UNL     1      28.397   1.271  53.557  1.00  0.00     0.074 A 
HETATM   33 CL1  UNL     1      29.552   2.173  54.493  1.00  0.00    -0.081 Cl
HETATM   34  C21 UNL     1      27.460   1.951  52.857  1.00  0.00     0.056 A 
ENDBRANCH  25  27
ENDBRANCH   8  25
TORSDOF 6
ENDMDL
MODEL 8
REMARK VINA RESULT:      -8.9      4.298      6.291
REMARK  6 active torsions:
REMARK  status: ('A' for Active; 'I' for Inactive)
REMARK    1  A    between atoms: C5_7  and  C6_8 
REMARK    2  A    between atoms: C6_8  and  C7_9 
REMARK    3  A    between atoms: C8_10  and  C9_11 
REMARK       I    between atoms: C9_11  and  N2_13 
REMARK    4  A    between atoms: N2_13  and  C10_14 
REMARK    5  A    between atoms: C15_21  and  N5_22 
REMARK    6  A    between atoms: N5_22  and  C16_23 
ROOT
HETATM    1  C10 UNL     1      24.203   3.311  51.132  1.00  0.00     0.020 C 
HETATM    2  C11 UNL     1      23.463   2.522  50.403  1.00  0.00     0.027 C 
HETATM    3  C12 UNL     1      22.467   1.489  50.447  1.00  0.00     0.021 C 
HETATM    4  C13 UNL     1      21.874   0.938  51.491  1.00  0.00     0.118 C 
HETATM    5  N3  UNL     1      21.467   0.596  52.788  1.00  0.00    -0.254 NA
HETATM    6  C14 UNL     1      22.260   0.246  53.725  1.00  0.00     0.234 C 
HETATM    7  N4  UNL     1      23.443   0.343  52.999  1.00  0.00    -0.228 NA
HETATM    8  C15 UNL     1      23.982   1.456  52.670  1.00  0.00     0.111 C 
HETATM    9  C22 UNL     1      24.130   2.961  52.581  1.00  0.00     0.135 C 
ENDROOT
BRANCH   1  10
HETATM   10  N2  UNL     1      25.189   4.347  50.915  1.00  0.00    -0.320 N 
HETATM   11  C9  UNL     1      24.526   5.594  50.659  1.00  0.00     0.300 C 
HETATM   12  O2  UNL     1      23.276   5.685  50.644  1.00  0.00    -0.258 OA
HETATM   13  H13 UNL     1      26.246   4.250  50.932  1.00  0.00     0.169 HD
BRANCH  11  14
HETATM   14  C8  UNL     1      25.327   6.778  50.413  1.00  0.00    -0.005 C 
HETATM   15  C7  UNL     1      25.993   7.766  50.224  1.00  0.00    -0.094 C 
BRANCH  15  16
HETATM   16  C6  UNL     1      26.824   8.959  50.004  1.00  0.00     0.130 C 
BRANCH  16  17
HETATM   17  C5  UNL     1      27.365   8.846  48.597  1.00  0.00     0.239 C 
HETATM   18  C2  UNL     1      28.608   7.994  48.658  1.00  0.00     0.039 C 
HETATM   19  C1  UNL     1      28.457   6.741  47.834  1.00  0.00     0.014 C 
HETATM   20  C3  UNL     1      29.766   8.833  48.207  1.00  0.00     0.176 C 
HETATM   21  O1  UNL     1      29.582   9.447  46.990  1.00  0.00    -0.362 OA
HETATM   22  C4  UNL     1      28.345  10.071  46.874  1.00  0.00     0.438 C 
HETATM   23  N1  UNL     1      27.669  10.184  48.146  1.00  0.00     0.112 N 
HETATM   24  H9  UNL     1      28.288  10.635  48.843  1.00  0.00     0.319 HD
ENDBRANCH  16  17
ENDBRANCH  15  16
ENDBRANCH  11  14
ENDBRANCH   1  10
BRANCH   8  25
HETATM   25  N5  UNL     1      25.137   0.917  51.960  1.00  0.00    -0.344 N 
HETATM   26  H18 UNL     1      25.118   0.759  50.888  1.00  0.00     0.167 HD
BRANCH  25  27
HETATM   27  C16 UNL     1      26.436   0.530  52.491  1.00  0.00     0.035 A 
HETATM   28  C17 UNL     1      27.323   1.441  53.025  1.00  0.00     0.032 A 
HETATM   29  C18 UNL     1      28.545   1.085  53.544  1.00  0.00     0.046 A 
HETATM   30  C19 UNL     1      28.934  -0.230  53.545  1.00  0.00     0.138 A 
HETATM   31  F1  UNL     1      30.119  -0.651  54.037  1.00  0.00    -0.204 F 
HETATM   32  C20 UNL     1      28.060  -1.134  53.017  1.00  0.00     0.074 A 
HETATM   33 CL1  UNL     1      28.503  -2.815  52.993  1.00  0.00    -0.081 Cl
HETATM   34  C21 UNL     1      26.859  -0.775  52.509  1.00  0.00     0.056 A 
ENDBRANCH  25  27
ENDBRANCH   8  25
TORSDOF 6
ENDMDL
MODEL 9
REMARK VINA RESULT:      -8.6      4.420      7.009
REMARK  6 active torsions:
REMARK  status: ('A' for Active; 'I' for Inactive)
REMARK    1  A    between atoms: C5_7  and  C6_8 
REMARK    2  A    between atoms: C6_8  and  C7_9 
REMARK    3  A    between atoms: C8_10  and  C9_11 
REMARK       I    between atoms: C9_11  and  N2_13 
REMARK    4  A    between atoms: N2_13  and  C10_14 
REMARK    5  A    between atoms: C15_21  and  N5_22 
REMARK    6  A    between atoms: N5_22  and  C16_23 
ROOT
HETATM    1  C10 UNL     1      24.429   3.468  49.727  1.00  0.00     0.020 C 
HETATM    2  C11 UNL     1      23.438   2.951  49.056  1.00  0.00     0.027 C 
HETATM    3  C12 UNL     1      22.026   2.687  49.080  1.00  0.00     0.021 C 
HETATM    4  C13 UNL     1      21.132   2.986  50.004  1.00  0.00     0.118 C 
HETATM    5  N3  UNL     1      20.486   3.450  51.159  1.00  0.00    -0.254 NA
HETATM    6  C14 UNL     1      20.835   3.154  52.351  1.00  0.00     0.234 C 
HETATM    7  N4  UNL     1      21.912   2.337  52.020  1.00  0.00    -0.228 NA
HETATM    8  C15 UNL     1      23.027   2.781  51.575  1.00  0.00     0.111 C 
HETATM    9  C22 UNL     1      24.034   3.818  51.123  1.00  0.00     0.135 C 
ENDROOT
BRANCH   1  10
HETATM   10  N2  UNL     1      25.849   3.671  49.541  1.00  0.00    -0.320 N 
HETATM   11  C9  UNL     1      26.075   4.943  48.918  1.00  0.00     0.300 C 
HETATM   12  O2  UNL     1      25.127   5.704  48.612  1.00  0.00    -0.258 OA
HETATM   13  H13 UNL     1      26.638   3.012  49.808  1.00  0.00     0.169 HD
BRANCH  11  14
HETATM   14  C8  UNL     1      27.436   5.356  48.635  1.00  0.00    -0.005 C 
HETATM   15  C7  UNL     1      28.563   5.708  48.387  1.00  0.00    -0.094 C 
BRANCH  15  16
HETATM   16  C6  UNL     1      29.932   6.160  48.093  1.00  0.00     0.130 C 
BRANCH  16  17
HETATM   17  C5  UNL     1      29.894   7.671  48.112  1.00  0.00     0.239 C 
HETATM   18  C2  UNL     1      30.787   8.159  47.000  1.00  0.00     0.039 C 
HETATM   19  C1  UNL     1      30.013   8.960  45.983  1.00  0.00     0.014 C 
HETATM   20  C3  UNL     1      31.901   8.952  47.617  1.00  0.00     0.176 C 
HETATM   21  O1  UNL     1      31.484   9.952  48.464  1.00  0.00    -0.362 OA
HETATM   22  C4  UNL     1      30.513   9.534  49.366  1.00  0.00     0.438 C 
HETATM   23  N1  UNL     1      30.384   8.095  49.403  1.00  0.00     0.112 N 
HETATM   24  H9  UNL     1      31.307   7.656  49.566  1.00  0.00     0.319 HD
ENDBRANCH  16  17
ENDBRANCH  15  16
ENDBRANCH  11  14
ENDBRANCH   1  10
BRANCH   8  25
HETATM   25  N5  UNL     1      23.707   1.499  51.427  1.00  0.00    -0.344 N 
HETATM   26  H18 UNL     1      23.451   0.812  50.627  1.00  0.00     0.167 HD
BRANCH  25  27
HETATM   27  C16 UNL     1      24.779   0.933  52.234  1.00  0.00     0.035 A 
HETATM   28  C17 UNL     1      26.103   0.985  51.853  1.00  0.00     0.032 A 
HETATM   29  C18 UNL     1      27.125   0.470  52.614  1.00  0.00     0.046 A 
HETATM   30  C19 UNL     1      26.851  -0.132  53.815  1.00  0.00     0.138 A 
HETATM   31  F1  UNL     1      27.803  -0.659  54.614  1.00  0.00    -0.204 F 
HETATM   32  C20 UNL     1      25.542  -0.185  54.195  1.00  0.00     0.074 A 
HETATM   33 CL1  UNL     1      25.137  -0.938  55.709  1.00  0.00    -0.081 Cl
HETATM   34  C21 UNL     1      24.542   0.325  53.440  1.00  0.00     0.056 A 
ENDBRANCH  25  27
ENDBRANCH   8  25
TORSDOF 6
ENDMDL
