MODEL 1
REMARK VINA RESULT:      -9.0      0.000      0.000
REMARK  4 active torsions:
REMARK  status: ('A' for Active; 'I' for Inactive)
REMARK    1  A    between atoms: C2_3  and  C3_4 
REMARK    2  A    between atoms: C11_15  and  C12_16 
REMARK    3  A    between atoms: C12_16  and  O2_17 
REMARK    4  A    between atoms: O2_17  and  C13_18 
ROOT
HETATM    1  F1  UNL     1      26.616   1.550  50.914  1.00  0.00    -0.202 F 
HETATM    2  C1  UNL     1      25.761   1.011  51.780  1.00  0.00     0.167 A 
HETATM    3  C2  UNL     1      26.031   0.033  52.681  1.00  0.00     0.127 A 
HETATM    4  O1  UNL     1      24.930  -0.209  53.333  1.00  0.00    -0.287 OA
HETATM    5  C9  UNL     1      23.936   0.531  52.940  1.00  0.00     0.186 A 
HETATM    6  N1  UNL     1      22.635   0.643  53.304  1.00  0.00    -0.217 NA
HETATM    7  C10 UNL     1      21.870   1.549  52.659  1.00  0.00     0.236 A 
HETATM    8  N2  UNL     1      22.334   2.342  51.677  1.00  0.00    -0.243 NA
HETATM    9  C11 UNL     1      23.628   2.247  51.299  1.00  0.00     0.077 A 
HETATM   10  C19 UNL     1      24.439   1.328  51.940  1.00  0.00     0.086 A 
ENDROOT
BRANCH   9  11
HETATM   11  C12 UNL     1      24.114   3.137  50.207  1.00  0.00     0.236 C 
BRANCH  11  12
HETATM   12  O2  UNL     1      24.811   4.250  50.713  1.00  0.00    -0.345 OA
BRANCH  12  13
HETATM   13  C13 UNL     1      25.789   4.824  49.923  1.00  0.00     0.069 A 
HETATM   14  C14 UNL     1      26.829   4.138  49.316  1.00  0.00     0.037 A 
HETATM   15  C15 UNL     1      27.715   4.892  48.557  1.00  0.00     0.003 A 
HETATM   16  C16 UNL     1      27.620   6.254  48.378  1.00  0.00     0.000 A 
HETATM   17  C17 UNL     1      26.567   6.883  49.004  1.00  0.00     0.003 A 
HETATM   18  C18 UNL     1      25.634   6.204  49.783  1.00  0.00     0.037 A 
ENDBRANCH  12  13
ENDBRANCH  11  12
ENDBRANCH   9  11
BRANCH   3  19
HETATM   19  C3  UNL     1      27.292  -0.686  52.952  1.00  0.00     0.001 A 
HETATM   20  C4  UNL     1      28.355   0.042  53.447  1.00  0.00     0.014 A 
HETATM   21  C5  UNL     1      29.596  -0.528  53.738  1.00  0.00     0.001 A 
HETATM   22  C6  UNL     1      29.700  -1.891  53.499  1.00  0.00     0.000 A 
HETATM   23  C7  UNL     1      28.648  -2.629  53.007  1.00  0.00     0.001 A 
HETATM   24  C8  UNL     1      27.418  -2.023  52.726  1.00  0.00     0.014 A 
ENDBRANCH   3  19
TORSDOF 4
ENDMDL
MODEL 2
REMARK VINA RESULT:      -9.0      1.043      6.195
REMARK  4 active torsions:
REMARK  status: ('A' for Active; 'I' for Inactive)
REMARK    1  A    between atoms: C2_3  and  C3_4 
REMARK    2  A    between atoms: C11_15  and  C12_16 
REMARK    3  A    between atoms: C12_16  and  O2_17 
REMARK    4  A    between atoms: O2_17  and  C13_18 
ROOT
HETATM    1  F1  UNL     1      26.220   2.341  52.169  1.00  0.00    -0.202 F 
HETATM    2  C1  UNL     1      25.085   2.334  51.474  1.00  0.00     0.167 A 
HETATM    3  C2  UNL     1      24.781   3.121  50.412  1.00  0.00     0.127 A 
HETATM    4  O1  UNL     1      23.580   2.801  50.024  1.00  0.00    -0.287 OA
HETATM    5  C9  UNL     1      23.049   1.857  50.743  1.00  0.00     0.186 A 
HETATM    6  N1  UNL     1      21.859   1.207  50.727  1.00  0.00    -0.217 NA
HETATM    7  C10 UNL     1      21.644   0.251  51.654  1.00  0.00     0.236 A 
HETATM    8  N2  UNL     1      22.550  -0.087  52.590  1.00  0.00    -0.243 NA
HETATM    9  C11 UNL     1      23.742   0.549  52.623  1.00  0.00     0.077 A 
HETATM   10  C19 UNL     1      23.994   1.534  51.686  1.00  0.00     0.086 A 
ENDROOT
BRANCH   9  11
HETATM   11  C12 UNL     1      24.725   0.155  53.673  1.00  0.00     0.236 C 
BRANCH  11  12
HETATM   12  O2  UNL     1      25.619  -0.828  53.207  1.00  0.00    -0.345 OA
BRANCH  12  13
HETATM   13  C13 UNL     1      26.960  -0.688  53.509  1.00  0.00     0.069 A 
HETATM   14  C14 UNL     1      27.495   0.292  54.331  1.00  0.00     0.037 A 
HETATM   15  C15 UNL     1      28.873   0.268  54.514  1.00  0.00     0.003 A 
HETATM   16  C16 UNL     1      29.717  -0.654  53.937  1.00  0.00     0.000 A 
HETATM   17  C17 UNL     1      29.130  -1.603  53.130  1.00  0.00     0.003 A 
HETATM   18  C18 UNL     1      27.759  -1.652  52.893  1.00  0.00     0.037 A 
ENDBRANCH  12  13
ENDBRANCH  11  12
ENDBRANCH   9  11
BRANCH   3  19
HETATM   19  C3  UNL     1      25.582   4.168  49.747  1.00  0.00     0.001 A 
HETATM   20  C4  UNL     1      26.845   3.831  49.308  1.00  0.00     0.014 A 
HETATM   21  C5  UNL     1      27.694   4.737  48.668  1.00  0.00     0.001 A 
HETATM   22  C6  UNL     1      27.185   6.016  48.496  1.00  0.00     0.000 A 
HETATM   23  C7  UNL     1      25.926   6.366  48.930  1.00  0.00     0.001 A 
HETATM   24  C8  UNL     1      25.102   5.431  49.567  1.00  0.00     0.014 A 
ENDBRANCH   3  19
TORSDOF 4
ENDMDL
MODEL 3
REMARK VINA RESULT:      -9.0      2.091      3.076
REMARK  4 active torsions:
REMARK  status: ('A' for Active; 'I' for Inactive)
REMARK    1  A    between atoms: C2_3  and  C3_4 
REMARK    2  A    between atoms: C11_15  and  C12_16 
REMARK    3  A    between atoms: C12_16  and  O2_17 
REMARK    4  A    between atoms: O2_17  and  C13_18 
ROOT
HETATM    1  F1  UNL     1      25.103   0.795  51.858  1.00  0.00    -0.202 F 
HETATM    2  C1  UNL     1      24.875   0.096  52.967  1.00  0.00     0.167 A 
HETATM    3  C2  UNL     1      25.808  -0.402  53.817  1.00  0.00     0.127 A 
HETATM    4  O1  UNL     1      25.174  -1.020  54.771  1.00  0.00    -0.287 OA
HETATM    5  C9  UNL     1      23.882  -0.978  54.631  1.00  0.00     0.186 A 
HETATM    6  N1  UNL     1      22.834  -1.459  55.344  1.00  0.00    -0.217 NA
HETATM    7  C10 UNL     1      21.588  -1.217  54.886  1.00  0.00     0.236 A 
HETATM    8  N2  UNL     1      21.336  -0.523  53.761  1.00  0.00    -0.243 NA
HETATM    9  C11 UNL     1      22.367  -0.035  53.036  1.00  0.00     0.077 A 
HETATM   10  C19 UNL     1      23.657  -0.266  53.478  1.00  0.00     0.086 A 
ENDROOT
BRANCH   9  11
HETATM   11  C12 UNL     1      22.059   0.727  51.793  1.00  0.00     0.236 C 
BRANCH  11  12
HETATM   12  O2  UNL     1      22.048   2.117  52.021  1.00  0.00    -0.345 OA
BRANCH  12  13
HETATM   13  C13 UNL     1      22.877   2.912  51.254  1.00  0.00     0.069 A 
HETATM   14  C14 UNL     1      23.560   4.029  51.712  1.00  0.00     0.037 A 
HETATM   15  C15 UNL     1      24.348   4.701  50.786  1.00  0.00     0.003 A 
HETATM   16  C16 UNL     1      24.486   4.329  49.468  1.00  0.00     0.000 A 
HETATM   17  C17 UNL     1      23.785   3.212  49.069  1.00  0.00     0.003 A 
HETATM   18  C18 UNL     1      22.972   2.480  49.931  1.00  0.00     0.037 A 
ENDBRANCH  12  13
ENDBRANCH  11  12
ENDBRANCH   9  11
BRANCH   3  19
HETATM   19  C3  UNL     1      27.281  -0.317  53.763  1.00  0.00     0.001 A 
HETATM   20  C4  UNL     1      27.972  -1.415  53.292  1.00  0.00     0.014 A 
HETATM   21  C5  UNL     1      29.365  -1.452  53.197  1.00  0.00     0.001 A 
HETATM   22  C6  UNL     1      30.025  -0.303  53.609  1.00  0.00     0.000 A 
HETATM   23  C7  UNL     1      29.348   0.799  54.081  1.00  0.00     0.001 A 
HETATM   24  C8  UNL     1      27.951   0.800  54.162  1.00  0.00     0.014 A 
ENDBRANCH   3  19
TORSDOF 4
ENDMDL
MODEL 4
REMARK VINA RESULT:      -8.7      2.525      4.634
REMARK  4 active torsions:
REMARK  status: ('A' for Active; 'I' for Inactive)
REMARK    1  A    between atoms: C2_3  and  C3_4 
REMARK    2  A    between atoms: C11_15  and  C12_16 
REMARK    3  A    between atoms: C12_16  and  O2_17 
REMARK    4  A    between atoms: O2_17  and  C13_18 
ROOT
HETATM    1  F1  UNL     1      23.385   1.735  50.810  1.00  0.00    -0.202 F 
HETATM    2  C1  UNL     1      24.100   1.365  51.870  1.00  0.00     0.167 A 
HETATM    3  C2  UNL     1      23.672   0.612  52.913  1.00  0.00     0.127 A 
HETATM    4  O1  UNL     1      24.673   0.481  53.734  1.00  0.00    -0.287 OA
HETATM    5  C9  UNL     1      25.747   1.089  53.324  1.00  0.00     0.186 A 
HETATM    6  N1  UNL     1      27.002   1.234  53.818  1.00  0.00    -0.217 NA
HETATM    7  C10 UNL     1      27.888   1.955  53.100  1.00  0.00     0.236 A 
HETATM    8  N2  UNL     1      27.588   2.535  51.923  1.00  0.00    -0.243 NA
HETATM    9  C11 UNL     1      26.342   2.402  51.414  1.00  0.00     0.077 A 
HETATM   10  C19 UNL     1      25.411   1.669  52.125  1.00  0.00     0.086 A 
ENDROOT
BRANCH   9  11
HETATM   11  C12 UNL     1      26.038   3.057  50.111  1.00  0.00     0.236 C 
BRANCH  11  12
HETATM   12  O2  UNL     1      27.200   3.562  49.497  1.00  0.00    -0.345 OA
BRANCH  12  13
HETATM   13  C13 UNL     1      27.152   4.828  48.945  1.00  0.00     0.069 A 
HETATM   14  C14 UNL     1      26.021   5.627  48.880  1.00  0.00     0.037 A 
HETATM   15  C15 UNL     1      26.172   6.875  48.287  1.00  0.00     0.003 A 
HETATM   16  C16 UNL     1      27.357   7.351  47.771  1.00  0.00     0.000 A 
HETATM   17  C17 UNL     1      28.447   6.514  47.864  1.00  0.00     0.003 A 
HETATM   18  C18 UNL     1      28.383   5.249  48.443  1.00  0.00     0.037 A 
ENDBRANCH  12  13
ENDBRANCH  11  12
ENDBRANCH   9  11
BRANCH   3  19
HETATM   19  C3  UNL     1      22.348   0.009  53.168  1.00  0.00     0.001 A 
HETATM   20  C4  UNL     1      22.282  -1.056  54.042  1.00  0.00     0.014 A 
HETATM   21  C5  UNL     1      21.088  -1.707  54.358  1.00  0.00     0.001 A 
HETATM   22  C6  UNL     1      19.952  -1.212  53.733  1.00  0.00     0.000 A 
HETATM   23  C7  UNL     1      20.003  -0.150  52.860  1.00  0.00     0.001 A 
HETATM   24  C8  UNL     1      21.219   0.479  52.566  1.00  0.00     0.014 A 
ENDBRANCH   3  19
TORSDOF 4
ENDMDL
MODEL 5
REMARK VINA RESULT:      -8.5      2.440      5.298
REMARK  4 active torsions:
REMARK  status: ('A' for Active; 'I' for Inactive)
REMARK    1  A    between atoms: C2_3  and  C3_4 
REMARK    2  A    between atoms: C11_15  and  C12_16 
REMARK    3  A    between atoms: C12_16  and  O2_17 
REMARK    4  A    between atoms: O2_17  and  C13_18 
ROOT
HETATM    1  F1  UNL     1      24.423   1.900  53.482  1.00  0.00    -0.202 F 
HETATM    2  C1  UNL     1      25.039   2.346  52.390  1.00  0.00     0.167 A 
HETATM    3  C2  UNL     1      26.345   2.169  52.069  1.00  0.00     0.127 A 
HETATM    4  O1  UNL     1      26.546   2.759  50.925  1.00  0.00    -0.287 OA
HETATM    5  C9  UNL     1      25.475   3.321  50.450  1.00  0.00     0.186 A 
HETATM    6  N1  UNL     1      25.193   4.030  49.329  1.00  0.00    -0.217 NA
HETATM    7  C10 UNL     1      23.930   4.472  49.157  1.00  0.00     0.236 A 
HETATM    8  N2  UNL     1      22.941   4.245  50.040  1.00  0.00    -0.243 NA
HETATM    9  C11 UNL     1      23.201   3.540  51.164  1.00  0.00     0.077 A 
HETATM   10  C19 UNL     1      24.486   3.073  51.371  1.00  0.00     0.086 A 
ENDROOT
BRANCH   9  11
HETATM   11  C12 UNL     1      22.087   3.307  52.126  1.00  0.00     0.236 C 
BRANCH  11  12
HETATM   12  O2  UNL     1      21.346   2.156  51.796  1.00  0.00    -0.345 OA
BRANCH  12  13
HETATM   13  C13 UNL     1      21.502   1.029  52.581  1.00  0.00     0.069 A 
HETATM   14  C14 UNL     1      22.232  -0.095  52.227  1.00  0.00     0.037 A 
HETATM   15  C15 UNL     1      22.272  -1.129  53.155  1.00  0.00     0.003 A 
HETATM   16  C16 UNL     1      21.641  -1.101  54.378  1.00  0.00     0.000 A 
HETATM   17  C17 UNL     1      20.931   0.041  54.676  1.00  0.00     0.003 A 
HETATM   18  C18 UNL     1      20.839   1.125  53.805  1.00  0.00     0.037 A 
ENDBRANCH  12  13
ENDBRANCH  11  12
ENDBRANCH   9  11
BRANCH   3  19
HETATM   19  C3  UNL     1      27.416   1.464  52.801  1.00  0.00     0.001 A 
HETATM   20  C4  UNL     1      27.459   0.088  52.712  1.00  0.00     0.014 A 
HETATM   21  C5  UNL     1      28.423  -0.686  53.361  1.00  0.00     0.001 A 
HETATM   22  C6  UNL     1      29.350   0.020  54.114  1.00  0.00     0.000 A 
HETATM   23  C7  UNL     1      29.319   1.393  54.211  1.00  0.00     0.001 A 
HETATM   24  C8  UNL     1      28.338   2.136  53.546  1.00  0.00     0.014 A 
ENDBRANCH   3  19
TORSDOF 4
ENDMDL
MODEL 6
REMARK VINA RESULT:      -8.3      2.798      4.905
REMARK  4 active torsions:
REMARK  status: ('A' for Active; 'I' for Inactive)
REMARK    1  A    between atoms: C2_3  and  C3_4 
REMARK    2  A    between atoms: C11_15  and  C12_16 
REMARK    3  A    between atoms: C12_16  and  O2_17 
REMARK    4  A    between atoms: O2_17  and  C13_18 
ROOT
HETATM    1  F1  UNL     1      23.809   1.522  51.008  1.00  0.00    -0.202 F 
HETATM    2  C1  UNL     1      24.474   1.258  52.130  1.00  0.00     0.167 A 
HETATM    3  C2  UNL     1      24.007   0.581  53.208  1.00  0.00     0.127 A 
HETATM    4  O1  UNL     1      24.966   0.542  54.088  1.00  0.00    -0.287 OA
HETATM    5  C9  UNL     1      26.047   1.141  53.685  1.00  0.00     0.186 A 
HETATM    6  N1  UNL     1      27.271   1.357  54.228  1.00  0.00    -0.217 NA
HETATM    7  C10 UNL     1      28.179   2.039  53.499  1.00  0.00     0.236 A 
HETATM    8  N2  UNL     1      27.930   2.513  52.265  1.00  0.00    -0.243 NA
HETATM    9  C11 UNL     1      26.716   2.309  51.705  1.00  0.00     0.077 A 
HETATM   10  C19 UNL     1      25.763   1.613  52.426  1.00  0.00     0.086 A 
ENDROOT
BRANCH   9  11
HETATM   11  C12 UNL     1      26.468   2.848  50.338  1.00  0.00     0.236 C 
BRANCH  11  12
HETATM   12  O2  UNL     1      26.054   4.193  50.375  1.00  0.00    -0.345 OA
BRANCH  12  13
HETATM   13  C13 UNL     1      24.701   4.464  50.303  1.00  0.00     0.069 A 
HETATM   14  C14 UNL     1      23.924   4.931  51.351  1.00  0.00     0.037 A 
HETATM   15  C15 UNL     1      22.578   5.145  51.081  1.00  0.00     0.003 A 
HETATM   16  C16 UNL     1      21.986   4.925  49.858  1.00  0.00     0.000 A 
HETATM   17  C17 UNL     1      22.807   4.462  48.854  1.00  0.00     0.003 A 
HETATM   18  C18 UNL     1      24.166   4.220  49.038  1.00  0.00     0.037 A 
ENDBRANCH  12  13
ENDBRANCH  11  12
ENDBRANCH   9  11
BRANCH   3  19
HETATM   19  C3  UNL     1      22.684  -0.031  53.444  1.00  0.00     0.001 A 
HETATM   20  C4  UNL     1      21.586   0.560  52.853  1.00  0.00     0.014 A 
HETATM   21  C5  UNL     1      20.287   0.073  53.006  1.00  0.00     0.001 A 
HETATM   22  C6  UNL     1      20.161  -1.060  53.798  1.00  0.00     0.000 A 
HETATM   23  C7  UNL     1      21.247  -1.660  54.393  1.00  0.00     0.001 A 
HETATM   24  C8  UNL     1      22.536  -1.143  54.218  1.00  0.00     0.014 A 
ENDBRANCH   3  19
TORSDOF 4
ENDMDL
MODEL 7
REMARK VINA RESULT:      -8.1      2.580      6.926
REMARK  4 active torsions:
REMARK  status: ('A' for Active; 'I' for Inactive)
REMARK    1  A    between atoms: C2_3  and  C3_4 
REMARK    2  A    between atoms: C11_15  and  C12_16 
REMARK    3  A    between atoms: C12_16  and  O2_17 
REMARK    4  A    between atoms: O2_17  and  C13_18 
ROOT
HETATM    1  F1  UNL     1      22.642   0.072  53.756  1.00  0.00    -0.202 F 
HETATM    2  C1  UNL     1      22.518   0.744  52.614  1.00  0.00     0.167 A 
HETATM    3  C2  UNL     1      21.406   0.828  51.841  1.00  0.00     0.127 A 
HETATM    4  O1  UNL     1      21.702   1.575  50.816  1.00  0.00    -0.287 OA
HETATM    5  C9  UNL     1      22.929   2.003  50.839  1.00  0.00     0.186 A 
HETATM    6  N1  UNL     1      23.677   2.785  50.021  1.00  0.00    -0.217 NA
HETATM    7  C10 UNL     1      24.957   3.029  50.370  1.00  0.00     0.236 A 
HETATM    8  N2  UNL     1      25.526   2.535  51.485  1.00  0.00    -0.243 NA
HETATM    9  C11 UNL     1      24.798   1.754  52.314  1.00  0.00     0.077 A 
HETATM   10  C19 UNL     1      23.482   1.485  51.985  1.00  0.00     0.086 A 
ENDROOT
BRANCH   9  11
HETATM   11  C12 UNL     1      25.455   1.219  53.540  1.00  0.00     0.236 C 
BRANCH  11  12
HETATM   12  O2  UNL     1      25.843  -0.125  53.380  1.00  0.00    -0.345 OA
BRANCH  12  13
HETATM   13  C13 UNL     1      27.191  -0.425  53.409  1.00  0.00     0.069 A 
HETATM   14  C14 UNL     1      27.744  -1.649  53.067  1.00  0.00     0.037 A 
HETATM   15  C15 UNL     1      29.126  -1.757  53.160  1.00  0.00     0.003 A 
HETATM   16  C16 UNL     1      29.959  -0.739  53.565  1.00  0.00     0.000 A 
HETATM   17  C17 UNL     1      29.355   0.455  53.893  1.00  0.00     0.003 A 
HETATM   18  C18 UNL     1      27.977   0.649  53.828  1.00  0.00     0.037 A 
ENDBRANCH  12  13
ENDBRANCH  11  12
ENDBRANCH   9  11
BRANCH   3  19
HETATM   19  C3  UNL     1      20.071   0.226  52.030  1.00  0.00     0.001 A 
HETATM   20  C4  UNL     1      19.130   0.423  51.041  1.00  0.00     0.014 A 
HETATM   21  C5  UNL     1      17.835  -0.095  51.110  1.00  0.00     0.001 A 
HETATM   22  C6  UNL     1      17.545  -0.831  52.250  1.00  0.00     0.000 A 
HETATM   23  C7  UNL     1      18.474  -1.035  53.244  1.00  0.00     0.001 A 
HETATM   24  C8  UNL     1      19.763  -0.501  53.140  1.00  0.00     0.014 A 
ENDBRANCH   3  19
TORSDOF 4
ENDMDL
MODEL 8
REMARK VINA RESULT:      -8.1      1.324      6.343
REMARK  4 active torsions:
REMARK  status: ('A' for Active; 'I' for Inactive)
REMARK    1  A    between atoms: C2_3  and  C3_4 
REMARK    2  A    between atoms: C11_15  and  C12_16 
REMARK    3  A    between atoms: C12_16  and  O2_17 
REMARK    4  A    between atoms: O2_17  and  C13_18 
ROOT
HETATM    1  F1  UNL     1      26.778   2.763  50.228  1.00  0.00    -0.202 F 
HETATM    2  C1  UNL     1      25.752   3.608  50.292  1.00  0.00     0.167 A 
HETATM    3  C2  UNL     1      25.688   4.848  49.746  1.00  0.00     0.127 A 
HETATM    4  O1  UNL     1      24.519   5.341  50.038  1.00  0.00    -0.287 OA
HETATM    5  C9  UNL     1      23.787   4.528  50.740  1.00  0.00     0.186 A 
HETATM    6  N1  UNL     1      22.539   4.588  51.266  1.00  0.00    -0.217 NA
HETATM    7  C10 UNL     1      22.088   3.523  51.960  1.00  0.00     0.236 A 
HETATM    8  N2  UNL     1      22.815   2.407  52.154  1.00  0.00    -0.243 NA
HETATM    9  C11 UNL     1      24.062   2.326  51.637  1.00  0.00     0.077 A 
HETATM   10  C19 UNL     1      24.553   3.402  50.921  1.00  0.00     0.086 A 
ENDROOT
BRANCH   9  11
HETATM   11  C12 UNL     1      24.844   1.079  51.870  1.00  0.00     0.236 C 
BRANCH  11  12
HETATM   12  O2  UNL     1      25.316   0.999  53.195  1.00  0.00    -0.345 OA
BRANCH  12  13
HETATM   13  C13 UNL     1      26.682   0.980  53.403  1.00  0.00     0.069 A 
HETATM   14  C14 UNL     1      27.492   2.101  53.485  1.00  0.00     0.037 A 
HETATM   15  C15 UNL     1      28.846   1.877  53.700  1.00  0.00     0.003 A 
HETATM   16  C16 UNL     1      29.416   0.631  53.832  1.00  0.00     0.000 A 
HETATM   17  C17 UNL     1      28.563  -0.446  53.741  1.00  0.00     0.003 A 
HETATM   18  C18 UNL     1      27.193  -0.312  53.528  1.00  0.00     0.037 A 
ENDBRANCH  12  13
ENDBRANCH  11  12
ENDBRANCH   9  11
BRANCH   3  19
HETATM   19  C3  UNL     1      26.692   5.589  48.957  1.00  0.00     0.001 A 
HETATM   20  C4  UNL     1      27.928   5.004  48.773  1.00  0.00     0.014 A 
HETATM   21  C5  UNL     1      28.955   5.610  48.048  1.00  0.00     0.001 A 
HETATM   22  C6  UNL     1      28.658   6.856  47.514  1.00  0.00     0.000 A 
HETATM   23  C7  UNL     1      27.429   7.452  47.690  1.00  0.00     0.001 A 
HETATM   24  C8  UNL     1      26.422   6.813  48.423  1.00  0.00     0.014 A 
ENDBRANCH   3  19
TORSDOF 4
ENDMDL
MODEL 9
REMARK VINA RESULT:      -8.1      2.267      6.447
REMARK  4 active torsions:
REMARK  status: ('A' for Active; 'I' for Inactive)
REMARK    1  A    between atoms: C2_3  and  C3_4 
REMARK    2  A    between atoms: C11_15  and  C12_16 
REMARK    3  A    between atoms: C12_16  and  O2_17 
REMARK    4  A    between atoms: O2_17  and  C13_18 
ROOT
HETATM    1  F1  UNL     1      23.529   3.030  51.490  1.00  0.00    -0.202 F 
HETATM    2  C1  UNL     1      24.722   2.441  51.487  1.00  0.00     0.167 A 
HETATM    3  C2  UNL     1      25.844   2.886  50.868  1.00  0.00     0.127 A 
HETATM    4  O1  UNL     1      26.789   2.023  51.108  1.00  0.00    -0.287 OA
HETATM    5  C9  UNL     1      26.390   1.028  51.843  1.00  0.00     0.186 A 
HETATM    6  N1  UNL     1      26.988  -0.082  52.343  1.00  0.00    -0.217 NA
HETATM    7  C10 UNL     1      26.244  -0.924  53.090  1.00  0.00     0.236 A 
HETATM    8  N2  UNL     1      24.943  -0.716  53.363  1.00  0.00    -0.243 NA
HETATM    9  C11 UNL     1      24.328   0.384  52.874  1.00  0.00     0.077 A 
HETATM   10  C19 UNL     1      25.063   1.267  52.104  1.00  0.00     0.086 A 
ENDROOT
BRANCH   9  11
HETATM   11  C12 UNL     1      22.886   0.587  53.190  1.00  0.00     0.236 C 
BRANCH  11  12
HETATM   12  O2  UNL     1      22.064  -0.300  52.468  1.00  0.00    -0.345 OA
BRANCH  12  13
HETATM   13  C13 UNL     1      21.198   0.227  51.529  1.00  0.00     0.069 A 
HETATM   14  C14 UNL     1      21.571   0.735  50.295  1.00  0.00     0.037 A 
HETATM   15  C15 UNL     1      20.551   1.222  49.487  1.00  0.00     0.003 A 
HETATM   16  C16 UNL     1      19.219   1.229  49.837  1.00  0.00     0.000 A 
HETATM   17  C17 UNL     1      18.907   0.712  51.074  1.00  0.00     0.003 A 
HETATM   18  C18 UNL     1      19.866   0.204  51.947  1.00  0.00     0.037 A 
ENDBRANCH  12  13
ENDBRANCH  11  12
ENDBRANCH   9  11
BRANCH   3  19
HETATM   19  C3  UNL     1      26.060   4.099  50.054  1.00  0.00     0.001 A 
HETATM   20  C4  UNL     1      25.144   5.124  50.169  1.00  0.00     0.014 A 
HETATM   21  C5  UNL     1      25.244   6.316  49.449  1.00  0.00     0.001 A 
HETATM   22  C6  UNL     1      26.335   6.412  48.597  1.00  0.00     0.000 A 
HETATM   23  C7  UNL     1      27.256   5.398  48.473  1.00  0.00     0.001 A 
HETATM   24  C8  UNL     1      27.125   4.216  49.211  1.00  0.00     0.014 A 
ENDBRANCH   3  19
TORSDOF 4
ENDMDL
