MODEL 1
REMARK VINA RESULT:      -7.7      0.000      0.000
REMARK  8 active torsions:
REMARK  status: ('A' for Active; 'I' for Inactive)
REMARK    1  A    between atoms: C1_2  and  O2_3 
REMARK    2  A    between atoms: C1_2  and  C2_4 
REMARK    3  A    between atoms: C2_4  and  C3_5 
REMARK    4  A    between atoms: C3_5  and  C4_6 
REMARK    5  A    between atoms: C5_7  and  C6_8 
REMARK    6  A    between atoms: C7_9  and  C8_10 
REMARK       I    between atoms: C8_10  and  N1_12 
REMARK    7  A    between atoms: N1_12  and  C9_13 
REMARK    8  A    between atoms: C9_13  and  C10_14 
ROOT
HETATM    1  C4  UNL     1      24.620   0.210  53.176  1.00  0.00    -0.013 A 
HETATM    2  C5  UNL     1      24.693   1.156  52.265  1.00  0.00     0.105 A 
HETATM    3  O4  UNL     1      23.569   1.870  51.934  1.00  0.00    -0.237 OA
HETATM    4  N2  UNL     1      22.349   1.662  52.503  1.00  0.00    -0.264 N 
HETATM    5  C11 UNL     1      22.253   0.645  53.492  1.00  0.00     0.039 A 
HETATM    6  C12 UNL     1      23.331  -0.081  53.847  1.00  0.00    -0.025 A 
HETATM    7  C13 UNL     1      22.975  -1.031  54.895  1.00  0.00     0.041 C 
HETATM    8  C14 UNL     1      21.827  -1.945  54.489  1.00  0.00     0.005 C 
HETATM    9  C15 UNL     1      20.701  -1.131  53.944  1.00  0.00     0.006 C 
HETATM   10  C16 UNL     1      20.936   0.356  54.159  1.00  0.00     0.059 C 
HETATM   11  H11 UNL     1      21.513   2.248  52.205  1.00  0.00     0.194 HD
ENDROOT
BRANCH   2  12
HETATM   12  C6  UNL     1      26.019   1.331  51.699  1.00  0.00     0.045 C 
HETATM   13  C7  UNL     1      26.397   2.247  50.857  1.00  0.00     0.077 C 
BRANCH  13  14
HETATM   14  C8  UNL     1      26.187   3.403  50.017  1.00  0.00     0.244 C 
HETATM   15  O3  UNL     1      25.225   3.893  49.327  1.00  0.00    -0.268 OA
HETATM   16  N1  UNL     1      27.153   4.399  49.735  1.00  0.00    -0.334 N 
HETATM   17  H8  UNL     1      28.133   4.451  50.075  1.00  0.00     0.168 HD
BRANCH  16  18
HETATM   18  C9  UNL     1      26.802   5.466  48.899  1.00  0.00     0.103 C 
BRANCH  18  19
HETATM   19  C10 UNL     1      26.741   6.597  48.219  1.00  0.00     0.459 C 
HETATM   20  F1  UNL     1      25.730   7.154  47.516  1.00  0.00    -0.451 F 
ENDBRANCH  18  19
ENDBRANCH  16  18
ENDBRANCH  13  14
ENDBRANCH   2  12
BRANCH   1  21
HETATM   21  C3  UNL     1      25.701  -0.634  53.649  1.00  0.00     0.052 C 
BRANCH  21  22
HETATM   22  C2  UNL     1      26.341   0.075  54.852  1.00  0.00     0.115 C 
BRANCH  22  23
HETATM   23  C1  UNL     1      27.800   0.163  54.750  1.00  0.00     0.139 C 
HETATM   24  O1  UNL     1      28.588   1.093  55.113  1.00  0.00    -0.650 OA
BRANCH  23  25
HETATM   25  O2  UNL     1      28.406  -0.938  54.165  1.00  0.00    -0.776 OA
HETATM   26  H1  UNL     1      28.009  -1.461  53.387  1.00  0.00     0.167 HD
ENDBRANCH  23  25
ENDBRANCH  22  23
ENDBRANCH  21  22
ENDBRANCH   1  21
TORSDOF 8
ENDMDL
MODEL 2
REMARK VINA RESULT:      -7.3      3.461      6.784
REMARK  8 active torsions:
REMARK  status: ('A' for Active; 'I' for Inactive)
REMARK    1  A    between atoms: C1_2  and  O2_3 
REMARK    2  A    between atoms: C1_2  and  C2_4 
REMARK    3  A    between atoms: C2_4  and  C3_5 
REMARK    4  A    between atoms: C3_5  and  C4_6 
REMARK    5  A    between atoms: C5_7  and  C6_8 
REMARK    6  A    between atoms: C7_9  and  C8_10 
REMARK       I    between atoms: C8_10  and  N1_12 
REMARK    7  A    between atoms: N1_12  and  C9_13 
REMARK    8  A    between atoms: C9_13  and  C10_14 
ROOT
HETATM    1  C4  UNL     1      25.317   1.660  51.594  1.00  0.00    -0.013 A 
HETATM    2  C5  UNL     1      24.210   1.333  52.225  1.00  0.00     0.105 A 
HETATM    3  O4  UNL     1      23.018   1.896  51.845  1.00  0.00    -0.237 OA
HETATM    4  N2  UNL     1      22.900   2.795  50.829  1.00  0.00    -0.264 N 
HETATM    5  C11 UNL     1      24.086   3.158  50.134  1.00  0.00     0.039 A 
HETATM    6  C12 UNL     1      25.278   2.630  50.474  1.00  0.00    -0.025 A 
HETATM    7  C13 UNL     1      26.324   3.140  49.595  1.00  0.00     0.041 C 
HETATM    8  C14 UNL     1      26.395   4.661  49.594  1.00  0.00     0.005 C 
HETATM    9  C15 UNL     1      25.034   5.231  49.377  1.00  0.00     0.006 C 
HETATM   10  C16 UNL     1      24.031   4.149  49.005  1.00  0.00     0.059 C 
HETATM   11  H11 UNL     1      21.948   3.199  50.580  1.00  0.00     0.194 HD
ENDROOT
BRANCH   2  12
HETATM   12  C6  UNL     1      24.402   0.369  53.295  1.00  0.00     0.045 C 
HETATM   13  C7  UNL     1      23.491  -0.367  53.859  1.00  0.00     0.077 C 
BRANCH  13  14
HETATM   14  C8  UNL     1      22.141  -0.845  54.043  1.00  0.00     0.244 C 
HETATM   15  O3  UNL     1      21.536  -1.652  54.833  1.00  0.00    -0.268 OA
HETATM   16  N1  UNL     1      21.021  -0.461  53.266  1.00  0.00    -0.334 N 
HETATM   17  H8  UNL     1      20.996   0.202  52.467  1.00  0.00     0.168 HD
BRANCH  16  18
HETATM   18  C9  UNL     1      19.769  -1.012  53.564  1.00  0.00     0.103 C 
BRANCH  18  19
HETATM   19  C10 UNL     1      18.518  -1.438  53.551  1.00  0.00     0.459 C 
HETATM   20  F1  UNL     1      17.967  -2.580  54.019  1.00  0.00    -0.451 F 
ENDBRANCH  18  19
ENDBRANCH  16  18
ENDBRANCH  13  14
ENDBRANCH   2  12
BRANCH   1  21
HETATM   21  C3  UNL     1      26.654   1.162  51.857  1.00  0.00     0.052 C 
BRANCH  21  22
HETATM   22  C2  UNL     1      27.344   2.175  52.783  1.00  0.00     0.115 C 
BRANCH  22  23
HETATM   23  C1  UNL     1      28.305   1.549  53.695  1.00  0.00     0.139 C 
HETATM   24  O1  UNL     1      28.130   1.068  54.859  1.00  0.00    -0.650 OA
BRANCH  23  25
HETATM   25  O2  UNL     1      29.601   1.474  53.207  1.00  0.00    -0.776 OA
HETATM   26  H1  UNL     1      30.099   0.601  53.045  1.00  0.00     0.167 HD
ENDBRANCH  23  25
ENDBRANCH  22  23
ENDBRANCH  21  22
ENDBRANCH   1  21
TORSDOF 8
ENDMDL
MODEL 3
REMARK VINA RESULT:      -7.2      5.037      7.610
REMARK  8 active torsions:
REMARK  status: ('A' for Active; 'I' for Inactive)
REMARK    1  A    between atoms: C1_2  and  O2_3 
REMARK    2  A    between atoms: C1_2  and  C2_4 
REMARK    3  A    between atoms: C2_4  and  C3_5 
REMARK    4  A    between atoms: C3_5  and  C4_6 
REMARK    5  A    between atoms: C5_7  and  C6_8 
REMARK    6  A    between atoms: C7_9  and  C8_10 
REMARK       I    between atoms: C8_10  and  N1_12 
REMARK    7  A    between atoms: N1_12  and  C9_13 
REMARK    8  A    between atoms: C9_13  and  C10_14 
ROOT
HETATM    1  C4  UNL     1      26.324   5.959  48.967  1.00  0.00    -0.013 A 
HETATM    2  C5  UNL     1      27.444   5.365  48.618  1.00  0.00     0.105 A 
HETATM    3  O4  UNL     1      27.605   4.023  48.854  1.00  0.00    -0.237 OA
HETATM    4  N2  UNL     1      26.657   3.242  49.440  1.00  0.00    -0.264 N 
HETATM    5  C11 UNL     1      25.438   3.867  49.822  1.00  0.00     0.039 A 
HETATM    6  C12 UNL     1      25.237   5.182  49.610  1.00  0.00    -0.025 A 
HETATM    7  C13 UNL     1      23.905   5.567  50.062  1.00  0.00     0.041 C 
HETATM    8  C14 UNL     1      23.662   5.219  51.525  1.00  0.00     0.005 C 
HETATM    9  C15 UNL     1      24.046   3.800  51.777  1.00  0.00     0.006 C 
HETATM   10  C16 UNL     1      24.348   3.066  50.480  1.00  0.00     0.059 C 
HETATM   11  H11 UNL     1      26.839   2.206  49.598  1.00  0.00     0.194 HD
ENDROOT
BRANCH   2  12
HETATM   12  C6  UNL     1      28.413   6.250  47.996  1.00  0.00     0.045 C 
HETATM   13  C7  UNL     1      29.701   6.083  47.935  1.00  0.00     0.077 C 
BRANCH  13  14
HETATM   14  C8  UNL     1      30.930   5.370  48.192  1.00  0.00     0.244 C 
HETATM   15  O3  UNL     1      31.670   5.123  49.208  1.00  0.00    -0.268 OA
HETATM   16  N1  UNL     1      31.699   4.683  47.222  1.00  0.00    -0.334 N 
HETATM   17  H8  UNL     1      31.506   4.588  46.206  1.00  0.00     0.168 HD
BRANCH  16  18
HETATM   18  C9  UNL     1      32.873   4.034  47.623  1.00  0.00     0.103 C 
BRANCH  18  19
HETATM   19  C10 UNL     1      33.911   3.229  47.760  1.00  0.00     0.459 C 
HETATM   20  F1  UNL     1      35.053   3.127  47.044  1.00  0.00    -0.451 F 
ENDBRANCH  18  19
ENDBRANCH  16  18
ENDBRANCH  13  14
ENDBRANCH   2  12
BRANCH   1  21
HETATM   21  C3  UNL     1      25.982   7.358  48.791  1.00  0.00     0.052 C 
BRANCH  21  22
HETATM   22  C2  UNL     1      26.230   8.061  50.134  1.00  0.00     0.115 C 
BRANCH  22  23
HETATM   23  C1  UNL     1      27.237   9.121  50.043  1.00  0.00     0.139 C 
HETATM   24  O1  UNL     1      27.730   9.693  49.018  1.00  0.00    -0.650 OA
BRANCH  23  25
HETATM   25  O2  UNL     1      27.724   9.563  51.264  1.00  0.00    -0.776 OA
HETATM   26  H1  UNL     1      27.543  10.488  51.648  1.00  0.00     0.167 HD
ENDBRANCH  23  25
ENDBRANCH  22  23
ENDBRANCH  21  22
ENDBRANCH   1  21
TORSDOF 8
ENDMDL
MODEL 4
REMARK VINA RESULT:      -7.2      1.759      2.315
REMARK  8 active torsions:
REMARK  status: ('A' for Active; 'I' for Inactive)
REMARK    1  A    between atoms: C1_2  and  O2_3 
REMARK    2  A    between atoms: C1_2  and  C2_4 
REMARK    3  A    between atoms: C2_4  and  C3_5 
REMARK    4  A    between atoms: C3_5  and  C4_6 
REMARK    5  A    between atoms: C5_7  and  C6_8 
REMARK    6  A    between atoms: C7_9  and  C8_10 
REMARK       I    between atoms: C8_10  and  N1_12 
REMARK    7  A    between atoms: N1_12  and  C9_13 
REMARK    8  A    between atoms: C9_13  and  C10_14 
ROOT
HETATM    1  C4  UNL     1      25.234   1.630  51.693  1.00  0.00    -0.013 A 
HETATM    2  C5  UNL     1      25.129   2.583  50.793  1.00  0.00     0.105 A 
HETATM    3  O4  UNL     1      23.904   3.148  50.541  1.00  0.00    -0.237 OA
HETATM    4  N2  UNL     1      22.758   2.779  51.178  1.00  0.00    -0.264 N 
HETATM    5  C11 UNL     1      22.855   1.751  52.156  1.00  0.00     0.039 A 
HETATM    6  C12 UNL     1      24.036   1.168  52.435  1.00  0.00    -0.025 A 
HETATM    7  C13 UNL     1      23.871   0.172  53.488  1.00  0.00     0.041 C 
HETATM    8  C14 UNL     1      22.827  -0.879  53.137  1.00  0.00     0.005 C 
HETATM    9  C15 UNL     1      21.575  -0.214  52.673  1.00  0.00     0.006 C 
HETATM   10  C16 UNL     1      21.629   1.289  52.895  1.00  0.00     0.059 C 
HETATM   11  H11 UNL     1      21.836   3.253  50.940  1.00  0.00     0.194 HD
ENDROOT
BRANCH   2  12
HETATM   12  C6  UNL     1      26.384   2.933  50.153  1.00  0.00     0.045 C 
HETATM   13  C7  UNL     1      26.682   4.058  49.574  1.00  0.00     0.077 C 
BRANCH  13  14
HETATM   14  C8  UNL     1      26.400   5.405  49.135  1.00  0.00     0.244 C 
HETATM   15  O3  UNL     1      25.439   6.013  48.544  1.00  0.00    -0.268 OA
HETATM   16  N1  UNL     1      27.264   6.516  49.290  1.00  0.00    -0.334 N 
HETATM   17  H8  UNL     1      28.205   6.536  49.729  1.00  0.00     0.168 HD
BRANCH  16  18
HETATM   18  C9  UNL     1      26.852   7.766  48.812  1.00  0.00     0.103 C 
BRANCH  18  19
HETATM   19  C10 UNL     1      26.706   9.050  48.537  1.00  0.00     0.459 C 
HETATM   20  F1  UNL     1      26.854  10.145  49.315  1.00  0.00    -0.451 F 
ENDBRANCH  18  19
ENDBRANCH  16  18
ENDBRANCH  13  14
ENDBRANCH   2  12
BRANCH   1  21
HETATM   21  C3  UNL     1      26.442   0.929  52.089  1.00  0.00     0.052 C 
BRANCH  21  22
HETATM   22  C2  UNL     1      26.998   1.643  53.330  1.00  0.00     0.115 C 
BRANCH  22  23
HETATM   23  C1  UNL     1      28.458   1.756  53.315  1.00  0.00     0.139 C 
HETATM   24  O1  UNL     1      29.347   0.880  53.565  1.00  0.00    -0.650 OA
BRANCH  23  25
HETATM   25  O2  UNL     1      28.938   3.012  52.975  1.00  0.00    -0.776 OA
HETATM   26  H1  UNL     1      29.922   3.270  52.997  1.00  0.00     0.167 HD
ENDBRANCH  23  25
ENDBRANCH  22  23
ENDBRANCH  21  22
ENDBRANCH   1  21
TORSDOF 8
ENDMDL
MODEL 5
REMARK VINA RESULT:      -7.2      4.845      7.759
REMARK  8 active torsions:
REMARK  status: ('A' for Active; 'I' for Inactive)
REMARK    1  A    between atoms: C1_2  and  O2_3 
REMARK    2  A    between atoms: C1_2  and  C2_4 
REMARK    3  A    between atoms: C2_4  and  C3_5 
REMARK    4  A    between atoms: C3_5  and  C4_6 
REMARK    5  A    between atoms: C5_7  and  C6_8 
REMARK    6  A    between atoms: C7_9  and  C8_10 
REMARK       I    between atoms: C8_10  and  N1_12 
REMARK    7  A    between atoms: N1_12  and  C9_13 
REMARK    8  A    between atoms: C9_13  and  C10_14 
ROOT
HETATM    1  C4  UNL     1      23.240   1.331  52.664  1.00  0.00    -0.013 A 
HETATM    2  C5  UNL     1      22.171   0.774  53.190  1.00  0.00     0.105 A 
HETATM    3  O4  UNL     1      22.306  -0.319  54.008  1.00  0.00    -0.237 OA
HETATM    4  N2  UNL     1      23.505  -0.881  54.324  1.00  0.00    -0.264 N 
HETATM    5  C11 UNL     1      24.672  -0.289  53.767  1.00  0.00     0.039 A 
HETATM    6  C12 UNL     1      24.586   0.785  52.958  1.00  0.00    -0.025 A 
HETATM    7  C13 UNL     1      25.919   1.214  52.547  1.00  0.00     0.041 C 
HETATM    8  C14 UNL     1      26.708   0.099  51.873  1.00  0.00     0.005 C 
HETATM    9  C15 UNL     1      26.655  -1.135  52.709  1.00  0.00     0.006 C 
HETATM   10  C16 UNL     1      26.030  -0.860  54.068  1.00  0.00     0.059 C 
HETATM   11  H11 UNL     1      23.547  -1.729  54.965  1.00  0.00     0.194 HD
ENDROOT
BRANCH   2  12
HETATM   12  C6  UNL     1      20.924   1.419  52.818  1.00  0.00     0.045 C 
HETATM   13  C7  UNL     1      19.766   0.852  52.652  1.00  0.00     0.077 C 
BRANCH  13  14
HETATM   14  C8  UNL     1      18.868  -0.279  52.630  1.00  0.00     0.244 C 
HETATM   15  O3  UNL     1      17.976  -0.747  51.838  1.00  0.00    -0.268 OA
HETATM   16  N1  UNL     1      18.766  -1.266  53.640  1.00  0.00    -0.334 N 
HETATM   17  H8  UNL     1      19.303  -1.330  54.526  1.00  0.00     0.168 HD
BRANCH  16  18
HETATM   18  C9  UNL     1      17.844  -2.308  53.478  1.00  0.00     0.103 C 
BRANCH  18  19
HETATM   19  C10 UNL     1      17.159  -3.436  53.538  1.00  0.00     0.459 C 
HETATM   20  F1  UNL     1      17.105  -4.389  54.494  1.00  0.00    -0.451 F 
ENDBRANCH  18  19
ENDBRANCH  16  18
ENDBRANCH  13  14
ENDBRANCH   2  12
BRANCH   1  21
HETATM   21  C3  UNL     1      23.284   2.486  51.788  1.00  0.00     0.052 C 
BRANCH  21  22
HETATM   22  C2  UNL     1      23.791   3.673  52.622  1.00  0.00     0.115 C 
BRANCH  22  23
HETATM   23  C1  UNL     1      23.183   4.946  52.227  1.00  0.00     0.139 C 
HETATM   24  O1  UNL     1      22.016   5.190  51.784  1.00  0.00    -0.650 OA
BRANCH  23  25
HETATM   25  O2  UNL     1      24.014   6.049  52.358  1.00  0.00    -0.776 OA
HETATM   26  H1  UNL     1      25.023   6.022  52.224  1.00  0.00     0.167 HD
ENDBRANCH  23  25
ENDBRANCH  22  23
ENDBRANCH  21  22
ENDBRANCH   1  21
TORSDOF 8
ENDMDL
MODEL 6
REMARK VINA RESULT:      -7.1      4.256      8.679
REMARK  8 active torsions:
REMARK  status: ('A' for Active; 'I' for Inactive)
REMARK    1  A    between atoms: C1_2  and  O2_3 
REMARK    2  A    between atoms: C1_2  and  C2_4 
REMARK    3  A    between atoms: C2_4  and  C3_5 
REMARK    4  A    between atoms: C3_5  and  C4_6 
REMARK    5  A    between atoms: C5_7  and  C6_8 
REMARK    6  A    between atoms: C7_9  and  C8_10 
REMARK       I    between atoms: C8_10  and  N1_12 
REMARK    7  A    between atoms: N1_12  and  C9_13 
REMARK    8  A    between atoms: C9_13  and  C10_14 
ROOT
HETATM    1  C4  UNL     1      26.060   5.681  48.745  1.00  0.00    -0.013 A 
HETATM    2  C5  UNL     1      26.689   4.603  49.162  1.00  0.00     0.105 A 
HETATM    3  O4  UNL     1      28.058   4.549  49.102  1.00  0.00    -0.237 OA
HETATM    4  N2  UNL     1      28.833   5.564  48.628  1.00  0.00    -0.264 N 
HETATM    5  C11 UNL     1      28.170   6.737  48.176  1.00  0.00     0.039 A 
HETATM    6  C12 UNL     1      26.827   6.834  48.216  1.00  0.00    -0.025 A 
HETATM    7  C13 UNL     1      26.401   8.141  47.726  1.00  0.00     0.041 C 
HETATM    8  C14 UNL     1      26.915   8.433  46.323  1.00  0.00     0.005 C 
HETATM    9  C15 UNL     1      28.381   8.163  46.255  1.00  0.00     0.006 C 
HETATM   10  C16 UNL     1      28.962   7.896  47.635  1.00  0.00     0.059 C 
HETATM   11  H11 UNL     1      29.892   5.464  48.606  1.00  0.00     0.194 HD
ENDROOT
BRANCH   2  12
HETATM   12  C6  UNL     1      25.808   3.560  49.657  1.00  0.00     0.045 C 
HETATM   13  C7  UNL     1      26.058   2.711  50.610  1.00  0.00     0.077 C 
BRANCH  13  14
HETATM   14  C8  UNL     1      26.881   2.124  51.641  1.00  0.00     0.244 C 
HETATM   15  O3  UNL     1      27.904   2.472  52.330  1.00  0.00    -0.268 OA
HETATM   16  N1  UNL     1      26.702   0.834  52.198  1.00  0.00    -0.334 N 
HETATM   17  H8  UNL     1      25.976   0.132  51.960  1.00  0.00     0.168 HD
BRANCH  16  18
HETATM   18  C9  UNL     1      27.583   0.400  53.196  1.00  0.00     0.103 C 
BRANCH  18  19
HETATM   19  C10 UNL     1      28.149  -0.032  54.309  1.00  0.00     0.459 C 
HETATM   20  F1  UNL     1      28.864   0.623  55.251  1.00  0.00    -0.451 F 
ENDBRANCH  18  19
ENDBRANCH  16  18
ENDBRANCH  13  14
ENDBRANCH   2  12
BRANCH   1  21
HETATM   21  C3  UNL     1      24.628   5.912  48.739  1.00  0.00     0.052 C 
BRANCH  21  22
HETATM   22  C2  UNL     1      24.322   6.912  49.865  1.00  0.00     0.115 C 
BRANCH  22  23
HETATM   23  C1  UNL     1      23.962   6.257  51.125  1.00  0.00     0.139 C 
HETATM   24  O1  UNL     1      23.212   5.252  51.337  1.00  0.00    -0.650 OA
BRANCH  23  25
HETATM   25  O2  UNL     1      24.529   6.827  52.255  1.00  0.00    -0.776 OA
HETATM   26  H1  UNL     1      25.116   7.658  52.241  1.00  0.00     0.167 HD
ENDBRANCH  23  25
ENDBRANCH  22  23
ENDBRANCH  21  22
ENDBRANCH   1  21
TORSDOF 8
ENDMDL
MODEL 7
REMARK VINA RESULT:      -6.8      3.248      5.041
REMARK  8 active torsions:
REMARK  status: ('A' for Active; 'I' for Inactive)
REMARK    1  A    between atoms: C1_2  and  O2_3 
REMARK    2  A    between atoms: C1_2  and  C2_4 
REMARK    3  A    between atoms: C2_4  and  C3_5 
REMARK    4  A    between atoms: C3_5  and  C4_6 
REMARK    5  A    between atoms: C5_7  and  C6_8 
REMARK    6  A    between atoms: C7_9  and  C8_10 
REMARK       I    between atoms: C8_10  and  N1_12 
REMARK    7  A    between atoms: N1_12  and  C9_13 
REMARK    8  A    between atoms: C9_13  and  C10_14 
ROOT
HETATM    1  C4  UNL     1      23.799   1.049  52.625  1.00  0.00    -0.013 A 
HETATM    2  C5  UNL     1      23.397   2.297  52.514  1.00  0.00     0.105 A 
HETATM    3  O4  UNL     1      24.324   3.305  52.428  1.00  0.00    -0.237 OA
HETATM    4  N2  UNL     1      25.669   3.096  52.448  1.00  0.00    -0.264 N 
HETATM    5  C11 UNL     1      26.121   1.752  52.565  1.00  0.00     0.039 A 
HETATM    6  C12 UNL     1      25.247   0.732  52.653  1.00  0.00    -0.025 A 
HETATM    7  C13 UNL     1      25.961  -0.538  52.733  1.00  0.00     0.041 C 
HETATM    8  C14 UNL     1      26.947  -0.580  53.892  1.00  0.00     0.005 C 
HETATM    9  C15 UNL     1      27.802   0.643  53.873  1.00  0.00     0.006 C 
HETATM   10  C16 UNL     1      27.593   1.447  52.599  1.00  0.00     0.059 C 
HETATM   11  H11 UNL     1      26.340   3.918  52.378  1.00  0.00     0.194 HD
ENDROOT
BRANCH   2  12
HETATM   12  C6  UNL     1      21.953   2.454  52.495  1.00  0.00     0.045 C 
HETATM   13  C7  UNL     1      21.278   3.427  51.961  1.00  0.00     0.077 C 
BRANCH  13  14
HETATM   14  C8  UNL     1      21.146   4.672  51.240  1.00  0.00     0.244 C 
HETATM   15  O3  UNL     1      20.487   5.099  50.228  1.00  0.00    -0.268 OA
HETATM   16  N1  UNL     1      21.826   5.875  51.550  1.00  0.00    -0.334 N 
HETATM   17  H8  UNL     1      22.503   6.046  52.318  1.00  0.00     0.168 HD
BRANCH  16  18
HETATM   18  C9  UNL     1      21.595   7.006  50.757  1.00  0.00     0.103 C 
BRANCH  18  19
HETATM   19  C10 UNL     1      21.561   8.215  50.225  1.00  0.00     0.459 C 
HETATM   20  F1  UNL     1      22.517   8.932  49.595  1.00  0.00    -0.451 F 
ENDBRANCH  18  19
ENDBRANCH  16  18
ENDBRANCH  13  14
ENDBRANCH   2  12
BRANCH   1  21
HETATM   21  C3  UNL     1      22.965  -0.133  52.721  1.00  0.00     0.052 C 
BRANCH  21  22
HETATM   22  C2  UNL     1      22.902  -0.529  54.205  1.00  0.00     0.115 C 
BRANCH  22  23
HETATM   23  C1  UNL     1      21.535  -0.548  54.731  1.00  0.00     0.139 C 
HETATM   24  O1  UNL     1      20.754   0.418  55.009  1.00  0.00    -0.650 OA
BRANCH  23  25
HETATM   25  O2  UNL     1      21.020  -1.815  54.959  1.00  0.00    -0.776 OA
HETATM   26  H1  UNL     1      20.055  -1.998  55.223  1.00  0.00     0.167 HD
ENDBRANCH  23  25
ENDBRANCH  22  23
ENDBRANCH  21  22
ENDBRANCH   1  21
TORSDOF 8
ENDMDL
MODEL 8
REMARK VINA RESULT:      -6.7      4.657     10.457
REMARK  8 active torsions:
REMARK  status: ('A' for Active; 'I' for Inactive)
REMARK    1  A    between atoms: C1_2  and  O2_3 
REMARK    2  A    between atoms: C1_2  and  C2_4 
REMARK    3  A    between atoms: C2_4  and  C3_5 
REMARK    4  A    between atoms: C3_5  and  C4_6 
REMARK    5  A    between atoms: C5_7  and  C6_8 
REMARK    6  A    between atoms: C7_9  and  C8_10 
REMARK       I    between atoms: C8_10  and  N1_12 
REMARK    7  A    between atoms: N1_12  and  C9_13 
REMARK    8  A    between atoms: C9_13  and  C10_14 
ROOT
HETATM    1  C4  UNL     1      29.944   7.438  48.107  1.00  0.00    -0.013 A 
HETATM    2  C5  UNL     1      29.381   6.251  48.171  1.00  0.00     0.105 A 
HETATM    3  O4  UNL     1      30.166   5.128  48.234  1.00  0.00    -0.237 OA
HETATM    4  N2  UNL     1      31.527   5.159  48.236  1.00  0.00    -0.264 N 
HETATM    5  C11 UNL     1      32.153   6.434  48.171  1.00  0.00     0.039 A 
HETATM    6  C12 UNL     1      31.422   7.563  48.108  1.00  0.00    -0.025 A 
HETATM    7  C13 UNL     1      32.297   8.730  48.079  1.00  0.00     0.041 C 
HETATM    8  C14 UNL     1      33.299   8.678  46.934  1.00  0.00     0.005 C 
HETATM    9  C15 UNL     1      33.986   7.354  46.922  1.00  0.00     0.006 C 
HETATM   10  C16 UNL     1      33.653   6.544  48.165  1.00  0.00     0.059 C 
HETATM   11  H11 UNL     1      32.084   4.253  48.286  1.00  0.00     0.194 HD
ENDROOT
BRANCH   2  12
HETATM   12  C6  UNL     1      27.929   6.285  48.167  1.00  0.00     0.045 C 
HETATM   13  C7  UNL     1      27.123   5.405  48.684  1.00  0.00     0.077 C 
BRANCH  13  14
HETATM   14  C8  UNL     1      26.818   4.184  49.392  1.00  0.00     0.244 C 
HETATM   15  O3  UNL     1      27.058   2.934  49.245  1.00  0.00    -0.268 OA
HETATM   16  N1  UNL     1      26.070   4.097  50.592  1.00  0.00    -0.334 N 
HETATM   17  H8  UNL     1      25.638   4.871  51.132  1.00  0.00     0.168 HD
BRANCH  16  18
HETATM   18  C9  UNL     1      25.855   2.837  51.165  1.00  0.00     0.103 C 
BRANCH  18  19
HETATM   19  C10 UNL     1      25.409   1.797  51.846  1.00  0.00     0.459 C 
HETATM   20  F1  UNL     1      24.284   1.061  51.703  1.00  0.00    -0.451 F 
ENDBRANCH  18  19
ENDBRANCH  16  18
ENDBRANCH  13  14
ENDBRANCH   2  12
BRANCH   1  21
HETATM   21  C3  UNL     1      29.274   8.722  48.041  1.00  0.00     0.052 C 
BRANCH  21  22
HETATM   22  C2  UNL     1      29.259   9.303  49.464  1.00  0.00     0.115 C 
BRANCH  22  23
HETATM   23  C1  UNL     1      27.925   9.739  49.885  1.00  0.00     0.139 C 
HETATM   24  O1  UNL     1      27.018  10.343  49.228  1.00  0.00    -0.650 OA
BRANCH  23  25
HETATM   25  O2  UNL     1      27.610   9.446  51.204  1.00  0.00    -0.776 OA
HETATM   26  H1  UNL     1      28.268   9.048  51.871  1.00  0.00     0.167 HD
ENDBRANCH  23  25
ENDBRANCH  22  23
ENDBRANCH  21  22
ENDBRANCH   1  21
TORSDOF 8
ENDMDL
MODEL 9
REMARK VINA RESULT:      -6.6      4.166      7.561
REMARK  8 active torsions:
REMARK  status: ('A' for Active; 'I' for Inactive)
REMARK    1  A    between atoms: C1_2  and  O2_3 
REMARK    2  A    between atoms: C1_2  and  C2_4 
REMARK    3  A    between atoms: C2_4  and  C3_5 
REMARK    4  A    between atoms: C3_5  and  C4_6 
REMARK    5  A    between atoms: C5_7  and  C6_8 
REMARK    6  A    between atoms: C7_9  and  C8_10 
REMARK       I    between atoms: C8_10  and  N1_12 
REMARK    7  A    between atoms: N1_12  and  C9_13 
REMARK    8  A    between atoms: C9_13  and  C10_14 
ROOT
HETATM    1  C4  UNL     1      24.805   1.610  53.200  1.00  0.00    -0.013 A 
HETATM    2  C5  UNL     1      23.865   0.694  53.294  1.00  0.00     0.105 A 
HETATM    3  O4  UNL     1      24.142  -0.504  53.902  1.00  0.00    -0.237 OA
HETATM    4  N2  UNL     1      25.357  -0.819  54.430  1.00  0.00    -0.264 N 
HETATM    5  C11 UNL     1      26.384   0.160  54.339  1.00  0.00     0.039 A 
HETATM    6  C12 UNL     1      26.157   1.351  53.751  1.00  0.00    -0.025 A 
HETATM    7  C13 UNL     1      27.355   2.181  53.814  1.00  0.00     0.041 C 
HETATM    8  C14 UNL     1      28.568   1.501  53.193  1.00  0.00     0.005 C 
HETATM    9  C15 UNL     1      28.708   0.120  53.739  1.00  0.00     0.006 C 
HETATM   10  C16 UNL     1      27.752  -0.121  54.896  1.00  0.00     0.059 C 
HETATM   11  H11 UNL     1      25.512  -1.766  54.889  1.00  0.00     0.194 HD
ENDROOT
BRANCH   2  12
HETATM   12  C6  UNL     1      22.593   1.091  52.716  1.00  0.00     0.045 C 
HETATM   13  C7  UNL     1      21.452   0.482  52.841  1.00  0.00     0.077 C 
BRANCH  13  14
HETATM   14  C8  UNL     1      20.589  -0.567  53.331  1.00  0.00     0.244 C 
HETATM   15  O3  UNL     1      20.713  -1.618  54.054  1.00  0.00    -0.268 OA
HETATM   16  N1  UNL     1      19.200  -0.673  53.074  1.00  0.00    -0.334 N 
HETATM   17  H8  UNL     1      18.604  -0.035  52.513  1.00  0.00     0.168 HD
BRANCH  16  18
HETATM   18  C9  UNL     1      18.491  -1.751  53.619  1.00  0.00     0.103 C 
BRANCH  18  19
HETATM   19  C10 UNL     1      17.830  -2.875  53.835  1.00  0.00     0.459 C 
HETATM   20  F1  UNL     1      17.867  -4.061  53.189  1.00  0.00    -0.451 F 
ENDBRANCH  18  19
ENDBRANCH  16  18
ENDBRANCH  13  14
ENDBRANCH   2  12
BRANCH   1  21
HETATM   21  C3  UNL     1      24.689   2.925  52.599  1.00  0.00     0.052 C 
BRANCH  21  22
HETATM   22  C2  UNL     1      25.034   2.779  51.109  1.00  0.00     0.115 C 
BRANCH  22  23
HETATM   23  C1  UNL     1      24.110   3.508  50.237  1.00  0.00     0.139 C 
HETATM   24  O1  UNL     1      24.147   3.688  48.978  1.00  0.00    -0.650 OA
BRANCH  23  25
HETATM   25  O2  UNL     1      23.033   4.087  50.891  1.00  0.00    -0.776 OA
HETATM   26  H1  UNL     1      22.071   4.031  50.564  1.00  0.00     0.167 HD
ENDBRANCH  23  25
ENDBRANCH  22  23
ENDBRANCH  21  22
ENDBRANCH   1  21
TORSDOF 8
ENDMDL
