MODEL 1
REMARK VINA RESULT:      -7.0      0.000      0.000
REMARK  5 active torsions:
REMARK  status: ('A' for Active; 'I' for Inactive)
REMARK    1  A    between atoms: O1_2  and  C2_3 
REMARK    2  A    between atoms: C2_3  and  C3_4 
REMARK    3  A    between atoms: C5_6  and  N1_7 
REMARK    4  A    between atoms: N1_7  and  C6_8 
REMARK    5  A    between atoms: C13_18  and  O2_19 
ROOT
HETATM    1  C3  UNL     1      22.849  -0.057  53.578  1.00  0.00     0.014 C 
HETATM    2  C4  UNL     1      23.522   0.715  52.759  1.00  0.00     0.036 A 
HETATM    3  C5  UNL     1      24.996   0.589  52.835  1.00  0.00     0.140 A 
HETATM    4  N2  UNL     1      25.769   1.307  52.099  1.00  0.00    -0.224 NA
HETATM    5  C12 UNL     1      25.292   2.254  51.172  1.00  0.00     0.232 A 
HETATM    6  N3  UNL     1      24.039   2.400  51.061  1.00  0.00    -0.246 NA
HETATM    7  C13 UNL     1      22.999   1.690  51.791  1.00  0.00     0.282 A 
ENDROOT
BRANCH   3   8
HETATM    8  N1  UNL     1      25.696  -0.324  53.708  1.00  0.00    -0.339 N 
HETATM    9  H7  UNL     1      25.044  -0.965  54.254  1.00  0.00     0.167 HD
BRANCH   8  10
HETATM   10  C6  UNL     1      27.114  -0.361  53.824  1.00  0.00     0.052 C 
HETATM   11  C7  UNL     1      27.805  -1.284  53.170  1.00  0.00     0.042 C 
HETATM   12 CL1  UNL     1      26.919  -2.426  52.179  1.00  0.00    -0.086 Cl
HETATM   13  C8  UNL     1      29.296  -1.286  53.319  1.00  0.00     0.081 C 
HETATM   14  C9  UNL     1      29.707   0.131  53.511  1.00  0.00    -0.009 C 
HETATM   15  C10 UNL     1      29.155   0.692  54.554  1.00  0.00    -0.027 C 
HETATM   16  C11 UNL     1      27.844   0.612  54.664  1.00  0.00     0.043 C 
ENDBRANCH   8  10
ENDBRANCH   3   8
BRANCH   1  17
HETATM   17  C2  UNL     1      21.483  -0.388  53.968  1.00  0.00     0.195 C 
BRANCH  17  18
HETATM   18  O1  UNL     1      21.447  -1.397  54.958  1.00  0.00    -0.392 OA
HETATM   19  C1  UNL     1      22.760  -1.520  55.440  1.00  0.00     0.201 C 
ENDBRANCH  17  18
ENDBRANCH   1  17
BRANCH   7  20
HETATM   20  O2  UNL     1      22.196   1.022  50.838  1.00  0.00    -0.365 OA
HETATM   21  C14 UNL     1      21.837   1.939  49.869  1.00  0.00     0.204 C 
ENDBRANCH   7  20
TORSDOF 5
ENDMDL
MODEL 2
REMARK VINA RESULT:      -7.0      1.385      1.702
REMARK  5 active torsions:
REMARK  status: ('A' for Active; 'I' for Inactive)
REMARK    1  A    between atoms: O1_2  and  C2_3 
REMARK    2  A    between atoms: C2_3  and  C3_4 
REMARK    3  A    between atoms: C5_6  and  N1_7 
REMARK    4  A    between atoms: N1_7  and  C6_8 
REMARK    5  A    between atoms: C13_18  and  O2_19 
ROOT
HETATM    1  C3  UNL     1      23.877   0.168  53.213  1.00  0.00     0.014 C 
HETATM    2  C4  UNL     1      23.782   1.293  52.544  1.00  0.00     0.036 A 
HETATM    3  C5  UNL     1      24.979   1.668  51.758  1.00  0.00     0.140 A 
HETATM    4  N2  UNL     1      25.020   2.758  51.076  1.00  0.00    -0.224 NA
HETATM    5  C12 UNL     1      23.949   3.671  51.015  1.00  0.00     0.232 A 
HETATM    6  N3  UNL     1      22.897   3.398  51.665  1.00  0.00    -0.246 NA
HETATM    7  C13 UNL     1      22.646   2.225  52.489  1.00  0.00     0.282 A 
ENDROOT
BRANCH   3   8
HETATM    8  N1  UNL     1      26.184   0.875  51.672  1.00  0.00    -0.339 N 
HETATM    9  H7  UNL     1      26.241   0.292  50.783  1.00  0.00     0.167 HD
BRANCH   8  10
HETATM   10  C6  UNL     1      27.193   0.877  52.676  1.00  0.00     0.052 C 
HETATM   11  C7  UNL     1      27.609  -0.270  53.196  1.00  0.00     0.042 C 
HETATM   12 CL1  UNL     1      26.882  -1.751  52.605  1.00  0.00    -0.086 Cl
HETATM   13  C8  UNL     1      28.673  -0.221  54.250  1.00  0.00     0.081 C 
HETATM   14  C9  UNL     1      29.535   0.950  53.931  1.00  0.00    -0.009 C 
HETATM   15  C10 UNL     1      28.880   2.080  53.906  1.00  0.00    -0.027 C 
HETATM   16  C11 UNL     1      27.795   2.137  53.160  1.00  0.00     0.043 C 
ENDBRANCH   8  10
ENDBRANCH   3   8
BRANCH   1  17
HETATM   17  C2  UNL     1      23.114  -0.693  54.108  1.00  0.00     0.195 C 
BRANCH  17  18
HETATM   18  O1  UNL     1      22.113  -1.415  53.420  1.00  0.00    -0.392 OA
HETATM   19  C1  UNL     1      21.053  -1.577  54.327  1.00  0.00     0.201 C 
ENDBRANCH  17  18
ENDBRANCH   1  17
BRANCH   7  20
HETATM   20  O2  UNL     1      21.520   1.562  51.948  1.00  0.00    -0.365 OA
HETATM   21  C14 UNL     1      20.446   1.805  52.782  1.00  0.00     0.204 C 
ENDBRANCH   7  20
TORSDOF 5
ENDMDL
MODEL 3
REMARK VINA RESULT:      -6.9      2.587      4.541
REMARK  5 active torsions:
REMARK  status: ('A' for Active; 'I' for Inactive)
REMARK    1  A    between atoms: O1_2  and  C2_3 
REMARK    2  A    between atoms: C2_3  and  C3_4 
REMARK    3  A    between atoms: C5_6  and  N1_7 
REMARK    4  A    between atoms: N1_7  and  C6_8 
REMARK    5  A    between atoms: C13_18  and  O2_19 
ROOT
HETATM    1  C3  UNL     1      25.876   3.247  50.215  1.00  0.00     0.014 C 
HETATM    2  C4  UNL     1      24.867   2.827  50.939  1.00  0.00     0.036 A 
HETATM    3  C5  UNL     1      25.096   1.563  51.676  1.00  0.00     0.140 A 
HETATM    4  N2  UNL     1      24.177   1.035  52.404  1.00  0.00    -0.224 NA
HETATM    5  C12 UNL     1      22.898   1.602  52.564  1.00  0.00     0.232 A 
HETATM    6  N3  UNL     1      22.647   2.686  51.960  1.00  0.00    -0.246 NA
HETATM    7  C13 UNL     1      23.541   3.444  51.097  1.00  0.00     0.282 A 
ENDROOT
BRANCH   3   8
HETATM    8  N1  UNL     1      26.335   0.820  51.661  1.00  0.00    -0.339 N 
HETATM    9  H7  UNL     1      26.467   0.242  50.776  1.00  0.00     0.167 HD
BRANCH   8  10
HETATM   10  C6  UNL     1      27.283   0.860  52.722  1.00  0.00     0.052 C 
HETATM   11  C7  UNL     1      27.657  -0.265  53.315  1.00  0.00     0.042 C 
HETATM   12 CL1  UNL     1      26.952  -1.767  52.748  1.00  0.00    -0.086 Cl
HETATM   13  C8  UNL     1      28.657  -0.177  54.427  1.00  0.00     0.081 C 
HETATM   14  C9  UNL     1      29.547   0.973  54.109  1.00  0.00    -0.009 C 
HETATM   15  C10 UNL     1      28.906   2.106  53.996  1.00  0.00    -0.027 C 
HETATM   16  C11 UNL     1      27.867   2.137  53.185  1.00  0.00     0.043 C 
ENDBRANCH   8  10
ENDBRANCH   3   8
BRANCH   1  17
HETATM   17  C2  UNL     1      26.265   4.333  49.323  1.00  0.00     0.195 C 
BRANCH  17  18
HETATM   18  O1  UNL     1      27.615   4.225  48.916  1.00  0.00    -0.392 OA
HETATM   19  C1  UNL     1      27.979   5.491  48.428  1.00  0.00     0.201 C 
ENDBRANCH  17  18
ENDBRANCH   1  17
BRANCH   7  20
HETATM   20  O2  UNL     1      23.688   4.730  51.666  1.00  0.00    -0.365 OA
HETATM   21  C14 UNL     1      22.429   5.288  51.781  1.00  0.00     0.204 C 
ENDBRANCH   7  20
TORSDOF 5
ENDMDL
MODEL 4
REMARK VINA RESULT:      -6.9      1.411      3.274
REMARK  5 active torsions:
REMARK  status: ('A' for Active; 'I' for Inactive)
REMARK    1  A    between atoms: O1_2  and  C2_3 
REMARK    2  A    between atoms: C2_3  and  C3_4 
REMARK    3  A    between atoms: C5_6  and  N1_7 
REMARK    4  A    between atoms: N1_7  and  C6_8 
REMARK    5  A    between atoms: C13_18  and  O2_19 
ROOT
HETATM    1  C3  UNL     1      23.241   0.512  52.225  1.00  0.00     0.014 C 
HETATM    2  C4  UNL     1      23.398  -0.133  53.356  1.00  0.00     0.036 A 
HETATM    3  C5  UNL     1      24.797  -0.261  53.825  1.00  0.00     0.140 A 
HETATM    4  N2  UNL     1      25.085  -0.891  54.909  1.00  0.00    -0.224 NA
HETATM    5  C12 UNL     1      24.116  -1.497  55.731  1.00  0.00     0.232 A 
HETATM    6  N3  UNL     1      22.902  -1.414  55.382  1.00  0.00    -0.246 NA
HETATM    7  C13 UNL     1      22.366  -0.749  54.203  1.00  0.00     0.282 A 
ENDROOT
BRANCH   3   8
HETATM    8  N1  UNL     1      25.943   0.291  53.141  1.00  0.00    -0.339 N 
HETATM    9  H7  UNL     1      25.682   0.973  52.366  1.00  0.00     0.167 HD
BRANCH   8  10
HETATM   10  C6  UNL     1      27.286  -0.044  53.473  1.00  0.00     0.052 C 
HETATM   11  C7  UNL     1      27.806  -1.187  53.049  1.00  0.00     0.042 C 
HETATM   12 CL1  UNL     1      26.792  -2.242  52.084  1.00  0.00    -0.086 Cl
HETATM   13  C8  UNL     1      29.224  -1.499  53.422  1.00  0.00     0.081 C 
HETATM   14  C9  UNL     1      29.940  -0.197  53.498  1.00  0.00    -0.009 C 
HETATM   15  C10 UNL     1      29.421   0.627  54.370  1.00  0.00    -0.027 C 
HETATM   16  C11 UNL     1      28.126   0.860  54.289  1.00  0.00     0.043 C 
ENDBRANCH   8  10
ENDBRANCH   3   8
BRANCH   1  17
HETATM   17  C2  UNL     1      22.204   0.948  51.296  1.00  0.00     0.195 C 
BRANCH  17  18
HETATM   18  O1  UNL     1      21.560   2.126  51.738  1.00  0.00    -0.392 OA
HETATM   19  C1  UNL     1      20.294   2.133  51.130  1.00  0.00     0.201 C 
ENDBRANCH  17  18
ENDBRANCH   1  17
BRANCH   7  20
HETATM   20  O2  UNL     1      21.470   0.248  54.652  1.00  0.00    -0.365 OA
HETATM   21  C14 UNL     1      20.208  -0.081  54.197  1.00  0.00     0.204 C 
ENDBRANCH   7  20
TORSDOF 5
ENDMDL
MODEL 5
REMARK VINA RESULT:      -6.8      3.004      6.122
REMARK  5 active torsions:
REMARK  status: ('A' for Active; 'I' for Inactive)
REMARK    1  A    between atoms: O1_2  and  C2_3 
REMARK    2  A    between atoms: C2_3  and  C3_4 
REMARK    3  A    between atoms: C5_6  and  N1_7 
REMARK    4  A    between atoms: N1_7  and  C6_8 
REMARK    5  A    between atoms: C13_18  and  O2_19 
ROOT
HETATM    1  C3  UNL     1      26.060  -0.602  52.778  1.00  0.00     0.014 C 
HETATM    2  C4  UNL     1      25.589   0.618  52.873  1.00  0.00     0.036 A 
HETATM    3  C5  UNL     1      24.113   0.728  52.914  1.00  0.00     0.140 A 
HETATM    4  N2  UNL     1      23.527   1.871  52.985  1.00  0.00    -0.224 NA
HETATM    5  C12 UNL     1      24.223   3.094  53.033  1.00  0.00     0.232 A 
HETATM    6  N3  UNL     1      25.489   3.060  53.006  1.00  0.00    -0.246 NA
HETATM    7  C13 UNL     1      26.340   1.882  52.932  1.00  0.00     0.282 A 
ENDROOT
BRANCH   3   8
HETATM    8  N1  UNL     1      23.207  -0.397  52.885  1.00  0.00    -0.339 N 
HETATM    9  H7  UNL     1      23.676  -1.321  53.129  1.00  0.00     0.167 HD
BRANCH   8  10
HETATM   10  C6  UNL     1      21.825  -0.278  52.563  1.00  0.00     0.052 C 
HETATM   11  C7  UNL     1      20.908  -0.586  53.470  1.00  0.00     0.042 C 
HETATM   12 CL1  UNL     1      21.458  -1.130  55.043  1.00  0.00    -0.086 Cl
HETATM   13  C8  UNL     1      19.465  -0.446  53.089  1.00  0.00     0.081 C 
HETATM   14  C9  UNL     1      19.387   0.686  52.126  1.00  0.00    -0.009 C 
HETATM   15  C10 UNL     1      20.115   0.505  51.056  1.00  0.00    -0.027 C 
HETATM   16  C11 UNL     1      21.381   0.183  51.231  1.00  0.00     0.043 C 
ENDBRANCH   8  10
ENDBRANCH   3   8
BRANCH   1  17
HETATM   17  C2  UNL     1      27.318  -1.335  52.698  1.00  0.00     0.195 C 
BRANCH  17  18
HETATM   18  O1  UNL     1      28.105  -1.159  53.859  1.00  0.00    -0.392 OA
HETATM   19  C1  UNL     1      29.442  -1.285  53.448  1.00  0.00     0.201 C 
ENDBRANCH  17  18
ENDBRANCH   1  17
BRANCH   7  20
HETATM   20  O2  UNL     1      27.165   1.884  54.080  1.00  0.00    -0.365 OA
HETATM   21  C14 UNL     1      28.405   2.368  53.709  1.00  0.00     0.204 C 
ENDBRANCH   7  20
TORSDOF 5
ENDMDL
MODEL 6
REMARK VINA RESULT:      -6.7      3.014      5.913
REMARK  5 active torsions:
REMARK  status: ('A' for Active; 'I' for Inactive)
REMARK    1  A    between atoms: O1_2  and  C2_3 
REMARK    2  A    between atoms: C2_3  and  C3_4 
REMARK    3  A    between atoms: C5_6  and  N1_7 
REMARK    4  A    between atoms: N1_7  and  C6_8 
REMARK    5  A    between atoms: C13_18  and  O2_19 
ROOT
HETATM    1  C3  UNL     1      26.051  -0.990  52.290  1.00  0.00     0.014 C 
HETATM    2  C4  UNL     1      26.011   0.209  52.821  1.00  0.00     0.036 A 
HETATM    3  C5  UNL     1      24.704   0.899  52.733  1.00  0.00     0.140 A 
HETATM    4  N2  UNL     1      24.541   2.088  53.195  1.00  0.00    -0.224 NA
HETATM    5  C12 UNL     1      25.569   2.822  53.818  1.00  0.00     0.232 A 
HETATM    6  N3  UNL     1      26.708   2.279  53.926  1.00  0.00    -0.246 NA
HETATM    7  C13 UNL     1      27.099   0.951  53.476  1.00  0.00     0.282 A 
ENDROOT
BRANCH   3   8
HETATM    8  N1  UNL     1      23.515   0.329  52.143  1.00  0.00    -0.339 N 
HETATM    9  H7  UNL     1      23.567   0.253  51.082  1.00  0.00     0.167 HD
BRANCH   8  10
HETATM   10  C6  UNL     1      22.389  -0.090  52.907  1.00  0.00     0.052 C 
HETATM   11  C7  UNL     1      21.165   0.076  52.424  1.00  0.00     0.042 C 
HETATM   12 CL1  UNL     1      20.999   0.815  50.844  1.00  0.00    -0.086 Cl
HETATM   13  C8  UNL     1      20.009  -0.380  53.261  1.00  0.00     0.081 C 
HETATM   14  C9  UNL     1      20.483  -1.560  54.035  1.00  0.00    -0.009 C 
HETATM   15  C10 UNL     1      21.510  -1.298  54.798  1.00  0.00    -0.027 C 
HETATM   16  C11 UNL     1      22.550  -0.713  54.238  1.00  0.00     0.043 C 
ENDBRANCH   8  10
ENDBRANCH   3   8
BRANCH   1  17
HETATM   17  C2  UNL     1      26.961  -2.106  52.064  1.00  0.00     0.195 C 
BRANCH  17  18
HETATM   18  O1  UNL     1      27.500  -2.602  53.274  1.00  0.00    -0.392 OA
HETATM   19  C1  UNL     1      28.888  -2.682  53.081  1.00  0.00     0.201 C 
ENDBRANCH  17  18
ENDBRANCH   1  17
BRANCH   7  20
HETATM   20  O2  UNL     1      27.540   0.233  54.611  1.00  0.00    -0.365 OA
HETATM   21  C14 UNL     1      28.886   0.492  54.779  1.00  0.00     0.204 C 
ENDBRANCH   7  20
TORSDOF 5
ENDMDL
MODEL 7
REMARK VINA RESULT:      -6.7      2.511      5.592
REMARK  5 active torsions:
REMARK  status: ('A' for Active; 'I' for Inactive)
REMARK    1  A    between atoms: O1_2  and  C2_3 
REMARK    2  A    between atoms: C2_3  and  C3_4 
REMARK    3  A    between atoms: C5_6  and  N1_7 
REMARK    4  A    between atoms: N1_7  and  C6_8 
REMARK    5  A    between atoms: C13_18  and  O2_19 
ROOT
HETATM    1  C3  UNL     1      23.269  -0.415  53.973  1.00  0.00     0.014 C 
HETATM    2  C4  UNL     1      24.400  -0.163  53.358  1.00  0.00     0.036 A 
HETATM    3  C5  UNL     1      24.375   0.990  52.429  1.00  0.00     0.140 A 
HETATM    4  N2  UNL     1      25.413   1.327  51.750  1.00  0.00    -0.224 NA
HETATM    5  C12 UNL     1      26.643   0.644  51.829  1.00  0.00     0.232 A 
HETATM    6  N3  UNL     1      26.724  -0.348  52.612  1.00  0.00    -0.246 NA
HETATM    7  C13 UNL     1      25.676  -0.887  53.466  1.00  0.00     0.282 A 
ENDROOT
BRANCH   3   8
HETATM    8  N1  UNL     1      23.223   1.832  52.201  1.00  0.00    -0.339 N 
HETATM    9  H7  UNL     1      22.925   2.379  53.065  1.00  0.00     0.167 HD
BRANCH   8  10
HETATM   10  C6  UNL     1      22.558   1.922  50.946  1.00  0.00     0.052 C 
HETATM   11  C7  UNL     1      22.725   2.995  50.185  1.00  0.00     0.042 C 
HETATM   12 CL1  UNL     1      23.776   4.266  50.778  1.00  0.00    -0.086 Cl
HETATM   13  C8  UNL     1      22.006   3.047  48.871  1.00  0.00     0.081 C 
HETATM   14  C9  UNL     1      21.911   1.644  48.383  1.00  0.00    -0.009 C 
HETATM   15  C10 UNL     1      21.276   0.853  49.207  1.00  0.00    -0.027 C 
HETATM   16  C11 UNL     1      21.676   0.838  50.463  1.00  0.00     0.043 C 
ENDBRANCH   8  10
ENDBRANCH   3   8
BRANCH   1  17
HETATM   17  C2  UNL     1      22.676  -1.336  54.935  1.00  0.00     0.195 C 
BRANCH  17  18
HETATM   18  O1  UNL     1      21.264  -1.258  54.940  1.00  0.00    -0.392 OA
HETATM   19  C1  UNL     1      20.942   0.040  54.512  1.00  0.00     0.201 C 
ENDBRANCH  17  18
ENDBRANCH   1  17
BRANCH   7  20
HETATM   20  O2  UNL     1      26.141  -0.820  54.799  1.00  0.00    -0.365 OA
HETATM   21  C14 UNL     1      26.978   0.274  54.900  1.00  0.00     0.204 C 
ENDBRANCH   7  20
TORSDOF 5
ENDMDL
MODEL 8
REMARK VINA RESULT:      -6.6      3.047      5.255
REMARK  5 active torsions:
REMARK  status: ('A' for Active; 'I' for Inactive)
REMARK    1  A    between atoms: O1_2  and  C2_3 
REMARK    2  A    between atoms: C2_3  and  C3_4 
REMARK    3  A    between atoms: C5_6  and  N1_7 
REMARK    4  A    between atoms: N1_7  and  C6_8 
REMARK    5  A    between atoms: C13_18  and  O2_19 
ROOT
HETATM    1  C3  UNL     1      22.104   2.081  52.389  1.00  0.00     0.014 C 
HETATM    2  C4  UNL     1      23.037   1.295  52.871  1.00  0.00     0.036 A 
HETATM    3  C5  UNL     1      24.388   1.895  52.961  1.00  0.00     0.140 A 
HETATM    4  N2  UNL     1      25.393   1.221  53.396  1.00  0.00    -0.224 NA
HETATM    5  C12 UNL     1      25.300  -0.119  53.820  1.00  0.00     0.232 A 
HETATM    6  N3  UNL     1      24.166  -0.682  53.769  1.00  0.00    -0.246 NA
HETATM    7  C13 UNL     1      22.911  -0.101  53.317  1.00  0.00     0.282 A 
ENDROOT
BRANCH   3   8
HETATM    8  N1  UNL     1      24.707   3.254  52.588  1.00  0.00    -0.339 N 
HETATM    9  H7  UNL     1      24.634   3.940  53.399  1.00  0.00     0.167 HD
BRANCH   8  10
HETATM   10  C6  UNL     1      25.083   3.634  51.269  1.00  0.00     0.052 C 
HETATM   11  C7  UNL     1      24.420   4.597  50.645  1.00  0.00     0.042 C 
HETATM   12 CL1  UNL     1      23.093   5.365  51.495  1.00  0.00    -0.086 Cl
HETATM   13  C8  UNL     1      24.851   4.965  49.258  1.00  0.00     0.081 C 
HETATM   14  C9  UNL     1      26.321   4.744  49.196  1.00  0.00    -0.009 C 
HETATM   15  C10 UNL     1      26.670   3.512  49.458  1.00  0.00    -0.027 C 
HETATM   16  C11 UNL     1      26.206   2.974  50.569  1.00  0.00     0.043 C 
ENDBRANCH   8  10
ENDBRANCH   3   8
BRANCH   1  17
HETATM   17  C2  UNL     1      20.681   2.097  52.068  1.00  0.00     0.195 C 
BRANCH  17  18
HETATM   18  O1  UNL     1      20.042   3.258  52.559  1.00  0.00    -0.392 OA
HETATM   19  C1  UNL     1      19.467   3.889  51.444  1.00  0.00     0.201 C 
ENDBRANCH  17  18
ENDBRANCH   1  17
BRANCH   7  20
HETATM   20  O2  UNL     1      22.001  -0.167  54.397  1.00  0.00    -0.365 OA
HETATM   21  C14 UNL     1      21.720  -1.499  54.631  1.00  0.00     0.204 C 
ENDBRANCH   7  20
TORSDOF 5
ENDMDL
MODEL 9
REMARK VINA RESULT:      -6.6      2.093      3.720
REMARK  5 active torsions:
REMARK  status: ('A' for Active; 'I' for Inactive)
REMARK    1  A    between atoms: O1_2  and  C2_3 
REMARK    2  A    between atoms: C2_3  and  C3_4 
REMARK    3  A    between atoms: C5_6  and  N1_7 
REMARK    4  A    between atoms: N1_7  and  C6_8 
REMARK    5  A    between atoms: C13_18  and  O2_19 
ROOT
HETATM    1  C3  UNL     1      24.711   1.609  52.021  1.00  0.00     0.014 C 
HETATM    2  C4  UNL     1      24.059   0.777  52.797  1.00  0.00     0.036 A 
HETATM    3  C5  UNL     1      24.873   0.109  53.838  1.00  0.00     0.140 A 
HETATM    4  N2  UNL     1      24.356  -0.746  54.648  1.00  0.00    -0.224 NA
HETATM    5  C12 UNL     1      22.996  -1.111  54.620  1.00  0.00     0.232 A 
HETATM    6  N3  UNL     1      22.251  -0.567  53.753  1.00  0.00    -0.246 NA
HETATM    7  C13 UNL     1      22.633   0.419  52.753  1.00  0.00     0.282 A 
ENDROOT
BRANCH   3   8
HETATM    8  N1  UNL     1      26.283   0.342  54.050  1.00  0.00    -0.339 N 
HETATM    9  H7  UNL     1      26.484   1.229  54.604  1.00  0.00     0.167 HD
BRANCH   8  10
HETATM   10  C6  UNL     1      27.299  -0.530  53.567  1.00  0.00     0.052 C 
HETATM   11  C7  UNL     1      28.571  -0.277  53.842  1.00  0.00     0.042 C 
HETATM   12 CL1  UNL     1      28.937   1.142  54.804  1.00  0.00    -0.086 Cl
HETATM   13  C8  UNL     1      29.608  -1.222  53.314  1.00  0.00     0.081 C 
HETATM   14  C9  UNL     1      28.979  -2.570  53.284  1.00  0.00    -0.009 C 
HETATM   15  C10 UNL     1      27.908  -2.623  52.538  1.00  0.00    -0.027 C 
HETATM   16  C11 UNL     1      26.970  -1.723  52.758  1.00  0.00     0.043 C 
ENDBRANCH   8  10
ENDBRANCH   3   8
BRANCH   1  17
HETATM   17  C2  UNL     1      24.509   2.512  50.894  1.00  0.00     0.195 C 
BRANCH  17  18
HETATM   18  O1  UNL     1      23.810   3.681  51.273  1.00  0.00    -0.392 OA
HETATM   19  C1  UNL     1      23.088   4.090  50.140  1.00  0.00     0.201 C 
ENDBRANCH  17  18
ENDBRANCH   1  17
BRANCH   7  20
HETATM   20  O2  UNL     1      21.852   1.576  52.981  1.00  0.00    -0.365 OA
HETATM   21  C14 UNL     1      20.880   1.628  52.001  1.00  0.00     0.204 C 
ENDBRANCH   7  20
TORSDOF 5
ENDMDL
