MODEL 1
REMARK VINA RESULT:     -10.2      0.000      0.000
REMARK  1 active torsions:
REMARK  status: ('A' for Active; 'I' for Inactive)
REMARK    1  A    between atoms: N2_12  and  C10_13 
ROOT
HETATM    1 CL1  UNL     1      22.918  -1.296  55.355  1.00  0.00    -0.084 Cl
HETATM    2  C1  UNL     1      23.100  -0.365  53.895  1.00  0.00     0.035 A 
HETATM    3  C2  UNL     1      21.939   0.076  53.310  1.00  0.00     0.031 A 
HETATM    4  C3  UNL     1      21.973   0.817  52.157  1.00  0.00    -0.052 A 
HETATM    5  C4  UNL     1      23.194   1.141  51.546  1.00  0.00     0.017 A 
HETATM    6  C5  UNL     1      24.339   0.661  52.196  1.00  0.00    -0.031 A 
HETATM    7  C6  UNL     1      24.338  -0.087  53.356  1.00  0.00     0.033 A 
HETATM    8  C7  UNL     1      25.701   1.005  51.663  1.00  0.00     0.149 C 
HETATM    9  C8  UNL     1      25.693   2.556  51.692  1.00  0.00     0.089 C 
HETATM   10  C9  UNL     1      25.453   2.647  53.188  1.00  0.00     0.038 C 
HETATM   11  N1  UNL     1      26.591   2.052  53.466  1.00  0.00    -0.180 NA
HETATM   12  N2  UNL     1      26.721   0.858  52.716  1.00  0.00    -0.261 N 
HETATM   13  C16 UNL     1      24.188   3.282  53.597  1.00  0.00     0.086 C 
HETATM   14  C17 UNL     1      23.789   4.326  52.625  1.00  0.00     0.019 C 
HETATM   15  C18 UNL     1      22.925   4.642  51.620  1.00  0.00     0.098 C 
HETATM   16  O1  UNL     1      23.222   5.909  51.212  1.00  0.00    -0.346 OA
HETATM   17  C19 UNL     1      23.038   6.584  50.005  1.00  0.00     0.202 C 
HETATM   18  C20 UNL     1      22.202   5.683  49.137  1.00  0.00     0.202 C 
HETATM   19  O2  UNL     1      21.368   4.904  50.010  1.00  0.00    -0.346 OA
HETATM   20  C21 UNL     1      21.807   3.966  50.919  1.00  0.00     0.098 C 
HETATM   21  C22 UNL     1      21.163   2.790  50.909  1.00  0.00     0.017 C 
HETATM   22  C23 UNL     1      20.881   1.421  51.319  1.00  0.00     0.068 C 
ENDROOT
BRANCH  12  23
HETATM   23  C10 UNL     1      27.626  -0.215  52.941  1.00  0.00     0.053 A 
HETATM   24  C11 UNL     1      28.847   0.135  53.482  1.00  0.00     0.031 A 
HETATM   25  C12 UNL     1      29.723  -0.932  53.697  1.00  0.00     0.002 A 
HETATM   26  C13 UNL     1      29.365  -2.227  53.381  1.00  0.00     0.000 A 
HETATM   27  C14 UNL     1      28.113  -2.505  52.837  1.00  0.00     0.002 A 
HETATM   28  C15 UNL     1      27.197  -1.481  52.601  1.00  0.00     0.031 A 
ENDBRANCH  12  23
TORSDOF 1
ENDMDL
MODEL 2
REMARK VINA RESULT:      -9.9      3.162      5.282
REMARK  1 active torsions:
REMARK  status: ('A' for Active; 'I' for Inactive)
REMARK    1  A    between atoms: N2_12  and  C10_13 
ROOT
HETATM    1 CL1  UNL     1      26.873   2.357  53.775  1.00  0.00    -0.084 Cl
HETATM    2  C1  UNL     1      25.489   2.150  52.741  1.00  0.00     0.035 A 
HETATM    3  C2  UNL     1      24.628   1.134  53.077  1.00  0.00     0.031 A 
HETATM    4  C3  UNL     1      23.508   0.887  52.327  1.00  0.00    -0.052 A 
HETATM    5  C4  UNL     1      23.213   1.665  51.197  1.00  0.00     0.017 A 
HETATM    6  C5  UNL     1      24.132   2.685  50.911  1.00  0.00    -0.031 A 
HETATM    7  C6  UNL     1      25.268   2.958  51.646  1.00  0.00     0.033 A 
HETATM    8  C7  UNL     1      23.879   3.618  49.761  1.00  0.00     0.149 C 
HETATM    9  C8  UNL     1      22.504   4.237  50.124  1.00  0.00     0.089 C 
HETATM   10  C9  UNL     1      22.979   4.819  51.443  1.00  0.00     0.038 C 
HETATM   11  N1  UNL     1      23.848   5.606  50.850  1.00  0.00    -0.180 NA
HETATM   12  N2  UNL     1      24.637   4.869  49.934  1.00  0.00    -0.261 N 
HETATM   13  C16 UNL     1      22.327   4.287  52.652  1.00  0.00     0.086 C 
HETATM   14  C17 UNL     1      20.923   3.912  52.365  1.00  0.00     0.019 C 
HETATM   15  C18 UNL     1      20.063   2.871  52.174  1.00  0.00     0.098 C 
HETATM   16  O1  UNL     1      18.826   3.402  51.955  1.00  0.00    -0.346 OA
HETATM   17  C19 UNL     1      17.699   2.933  51.280  1.00  0.00     0.202 C 
HETATM   18  C20 UNL     1      17.988   1.503  50.912  1.00  0.00     0.202 C 
HETATM   19  O2  UNL     1      18.871   0.975  51.916  1.00  0.00    -0.346 OA
HETATM   20  C21 UNL     1      20.163   1.393  52.153  1.00  0.00     0.098 C 
HETATM   21  C22 UNL     1      21.081   0.423  52.275  1.00  0.00     0.017 C 
HETATM   22  C23 UNL     1      22.414  -0.135  52.463  1.00  0.00     0.068 C 
ENDROOT
BRANCH  12  23
HETATM   23  C10 UNL     1      25.866   5.261  49.335  1.00  0.00     0.053 A 
HETATM   24  C11 UNL     1      25.966   6.593  48.989  1.00  0.00     0.031 A 
HETATM   25  C12 UNL     1      27.180   6.959  48.402  1.00  0.00     0.002 A 
HETATM   26  C13 UNL     1      28.184   6.034  48.198  1.00  0.00     0.000 A 
HETATM   27  C14 UNL     1      28.011   4.705  48.574  1.00  0.00     0.002 A 
HETATM   28  C15 UNL     1      26.822   4.281  49.163  1.00  0.00     0.031 A 
ENDBRANCH  12  23
TORSDOF 1
ENDMDL
MODEL 3
REMARK VINA RESULT:      -9.7      1.530      2.068
REMARK  1 active torsions:
REMARK  status: ('A' for Active; 'I' for Inactive)
REMARK    1  A    between atoms: N2_12  and  C10_13 
ROOT
HETATM    1 CL1  UNL     1      21.535  -0.851  54.958  1.00  0.00    -0.084 Cl
HETATM    2  C1  UNL     1      21.709  -0.078  53.407  1.00  0.00     0.035 A 
HETATM    3  C2  UNL     1      20.570   0.016  52.647  1.00  0.00     0.031 A 
HETATM    4  C3  UNL     1      20.599   0.606  51.411  1.00  0.00    -0.052 A 
HETATM    5  C4  UNL     1      21.794   1.127  50.890  1.00  0.00     0.017 A 
HETATM    6  C5  UNL     1      22.918   0.999  51.718  1.00  0.00    -0.031 A 
HETATM    7  C6  UNL     1      22.921   0.410  52.966  1.00  0.00     0.033 A 
HETATM    8  C7  UNL     1      24.235   1.579  51.287  1.00  0.00     0.149 C 
HETATM    9  C8  UNL     1      23.895   3.081  51.094  1.00  0.00     0.089 C 
HETATM   10  C9  UNL     1      23.443   3.288  52.528  1.00  0.00     0.038 C 
HETATM   11  N1  UNL     1      24.634   3.003  53.005  1.00  0.00    -0.180 NA
HETATM   12  N2  UNL     1      25.113   1.792  52.450  1.00  0.00    -0.261 N 
HETATM   13  C16 UNL     1      22.029   3.660  52.708  1.00  0.00     0.086 C 
HETATM   14  C17 UNL     1      21.552   4.466  51.561  1.00  0.00     0.019 C 
HETATM   15  C18 UNL     1      20.782   4.459  50.437  1.00  0.00     0.098 C 
HETATM   16  O1  UNL     1      20.856   5.704  49.885  1.00  0.00    -0.346 OA
HETATM   17  C19 UNL     1      20.695   6.175  48.582  1.00  0.00     0.202 C 
HETATM   18  C20 UNL     1      20.193   5.013  47.769  1.00  0.00     0.202 C 
HETATM   19  O2  UNL     1      19.434   4.172  48.652  1.00  0.00    -0.346 OA
HETATM   20  C21 UNL     1      19.936   3.470  49.726  1.00  0.00     0.098 C 
HETATM   21  C22 UNL     1      19.563   2.185  49.817  1.00  0.00     0.017 C 
HETATM   22  C23 UNL     1      19.526   0.844  50.386  1.00  0.00     0.068 C 
ENDROOT
BRANCH  12  23
HETATM   23  C10 UNL     1      26.187   0.987  52.920  1.00  0.00     0.053 A 
HETATM   24  C11 UNL     1      26.842   1.456  54.040  1.00  0.00     0.031 A 
HETATM   25  C12 UNL     1      27.894   0.652  54.487  1.00  0.00     0.002 A 
HETATM   26  C13 UNL     1      28.228  -0.518  53.834  1.00  0.00     0.000 A 
HETATM   27  C14 UNL     1      27.520  -0.929  52.707  1.00  0.00     0.002 A 
HETATM   28  C15 UNL     1      26.461  -0.167  52.216  1.00  0.00     0.031 A 
ENDBRANCH  12  23
TORSDOF 1
ENDMDL
MODEL 4
REMARK VINA RESULT:      -8.9      2.386      3.846
REMARK  1 active torsions:
REMARK  status: ('A' for Active; 'I' for Inactive)
REMARK    1  A    between atoms: N2_12  and  C10_13 
ROOT
HETATM    1 CL1  UNL     1      20.234   0.608  50.412  1.00  0.00    -0.084 Cl
HETATM    2  C1  UNL     1      21.404   1.715  49.752  1.00  0.00     0.035 A 
HETATM    3  C2  UNL     1      21.009   2.421  48.642  1.00  0.00     0.031 A 
HETATM    4  C3  UNL     1      21.856   3.318  48.045  1.00  0.00    -0.052 A 
HETATM    5  C4  UNL     1      23.147   3.536  48.551  1.00  0.00     0.017 A 
HETATM    6  C5  UNL     1      23.484   2.784  49.685  1.00  0.00    -0.031 A 
HETATM    7  C6  UNL     1      22.655   1.874  50.309  1.00  0.00     0.033 A 
HETATM    8  C7  UNL     1      24.817   2.986  50.346  1.00  0.00     0.149 C 
HETATM    9  C8  UNL     1      24.790   4.495  50.708  1.00  0.00     0.089 C 
HETATM   10  C9  UNL     1      23.553   4.388  51.580  1.00  0.00     0.038 C 
HETATM   11  N1  UNL     1      24.151   3.583  52.430  1.00  0.00    -0.180 NA
HETATM   12  N2  UNL     1      24.779   2.516  51.742  1.00  0.00    -0.261 N 
HETATM   13  C16 UNL     1      22.375   5.143  51.120  1.00  0.00     0.086 C 
HETATM   14  C17 UNL     1      22.790   6.376  50.413  1.00  0.00     0.019 C 
HETATM   15  C18 UNL     1      22.903   6.980  49.196  1.00  0.00     0.098 C 
HETATM   16  O1  UNL     1      23.402   8.231  49.407  1.00  0.00    -0.346 OA
HETATM   17  C19 UNL     1      24.134   9.108  48.606  1.00  0.00     0.202 C 
HETATM   18  C20 UNL     1      24.170   8.498  47.231  1.00  0.00     0.202 C 
HETATM   19  O2  UNL     1      22.964   7.735  47.072  1.00  0.00    -0.346 OA
HETATM   20  C21 UNL     1      22.622   6.608  47.788  1.00  0.00     0.098 C 
HETATM   21  C22 UNL     1      22.179   5.566  47.070  1.00  0.00     0.017 C 
HETATM   22  C23 UNL     1      21.690   4.212  46.848  1.00  0.00     0.068 C 
ENDROOT
BRANCH  12  23
HETATM   23  C10 UNL     1      25.252   1.291  52.287  1.00  0.00     0.053 A 
HETATM   24  C11 UNL     1      26.450   0.832  51.780  1.00  0.00     0.031 A 
HETATM   25  C12 UNL     1      26.899  -0.372  52.327  1.00  0.00     0.002 A 
HETATM   26  C13 UNL     1      26.174  -1.030  53.301  1.00  0.00     0.000 A 
HETATM   27  C14 UNL     1      24.971  -0.505  53.766  1.00  0.00     0.002 A 
HETATM   28  C15 UNL     1      24.474   0.693  53.256  1.00  0.00     0.031 A 
ENDBRANCH  12  23
TORSDOF 1
ENDMDL
MODEL 5
REMARK VINA RESULT:      -8.8      3.189      6.974
REMARK  1 active torsions:
REMARK  status: ('A' for Active; 'I' for Inactive)
REMARK    1  A    between atoms: N2_12  and  C10_13 
ROOT
HETATM    1 CL1  UNL     1      20.959   1.733  48.337  1.00  0.00    -0.084 Cl
HETATM    2  C1  UNL     1      21.677   1.811  49.921  1.00  0.00     0.035 A 
HETATM    3  C2  UNL     1      21.661   0.647  50.650  1.00  0.00     0.031 A 
HETATM    4  C3  UNL     1      22.200   0.602  51.909  1.00  0.00    -0.052 A 
HETATM    5  C4  UNL     1      22.780   1.744  52.485  1.00  0.00     0.017 A 
HETATM    6  C5  UNL     1      22.764   2.896  51.686  1.00  0.00    -0.031 A 
HETATM    7  C6  UNL     1      22.228   2.973  50.416  1.00  0.00     0.033 A 
HETATM    8  C7  UNL     1      23.415   4.156  52.179  1.00  0.00     0.149 C 
HETATM    9  C8  UNL     1      24.881   3.707  52.421  1.00  0.00     0.089 C 
HETATM   10  C9  UNL     1      25.115   3.280  50.983  1.00  0.00     0.038 C 
HETATM   11  N1  UNL     1      24.933   4.500  50.530  1.00  0.00    -0.180 NA
HETATM   12  N2  UNL     1      23.735   5.048  51.051  1.00  0.00    -0.261 N 
HETATM   13  C16 UNL     1      25.397   1.850  50.776  1.00  0.00     0.086 C 
HETATM   14  C17 UNL     1      26.120   1.286  51.939  1.00  0.00     0.019 C 
HETATM   15  C18 UNL     1      26.013   0.489  53.039  1.00  0.00     0.098 C 
HETATM   16  O1  UNL     1      27.237   0.461  53.641  1.00  0.00    -0.346 OA
HETATM   17  C19 UNL     1      27.641   0.233  54.956  1.00  0.00     0.202 C 
HETATM   18  C20 UNL     1      26.415  -0.209  55.708  1.00  0.00     0.202 C 
HETATM   19  O2  UNL     1      25.560  -0.883  54.771  1.00  0.00    -0.346 OA
HETATM   20  C21 UNL     1      24.940  -0.304  53.684  1.00  0.00     0.098 C 
HETATM   21  C22 UNL     1      23.637  -0.584  53.533  1.00  0.00     0.017 C 
HETATM   22  C23 UNL     1      22.322  -0.512  52.910  1.00  0.00     0.068 C 
ENDROOT
BRANCH  12  23
HETATM   23  C10 UNL     1      23.026   6.188  50.582  1.00  0.00     0.053 A 
HETATM   24  C11 UNL     1      23.618   6.876  49.543  1.00  0.00     0.031 A 
HETATM   25  C12 UNL     1      22.907   7.992  49.096  1.00  0.00     0.002 A 
HETATM   26  C13 UNL     1      21.705   8.354  49.671  1.00  0.00     0.000 A 
HETATM   27  C14 UNL     1      21.168   7.609  50.719  1.00  0.00     0.002 A 
HETATM   28  C15 UNL     1      21.833   6.486  51.206  1.00  0.00     0.031 A 
ENDBRANCH  12  23
TORSDOF 1
ENDMDL
MODEL 6
REMARK VINA RESULT:      -8.8      3.786      5.759
REMARK  1 active torsions:
REMARK  status: ('A' for Active; 'I' for Inactive)
REMARK    1  A    between atoms: N2_12  and  C10_13 
ROOT
HETATM    1 CL1  UNL     1      26.641   1.947  50.990  1.00  0.00    -0.084 Cl
HETATM    2  C1  UNL     1      25.221   2.862  50.569  1.00  0.00     0.035 A 
HETATM    3  C2  UNL     1      25.435   4.018  49.859  1.00  0.00     0.031 A 
HETATM    4  C3  UNL     1      24.384   4.811  49.479  1.00  0.00    -0.052 A 
HETATM    5  C4  UNL     1      23.064   4.463  49.808  1.00  0.00     0.017 A 
HETATM    6  C5  UNL     1      22.918   3.272  50.531  1.00  0.00    -0.031 A 
HETATM    7  C6  UNL     1      23.955   2.452  50.929  1.00  0.00     0.033 A 
HETATM    8  C7  UNL     1      21.544   2.772  50.879  1.00  0.00     0.149 C 
HETATM    9  C8  UNL     1      20.876   2.625  49.487  1.00  0.00     0.089 C 
HETATM   10  C9  UNL     1      21.900   1.635  48.965  1.00  0.00     0.038 C 
HETATM   11  N1  UNL     1      21.585   0.740  49.874  1.00  0.00    -0.180 NA
HETATM   12  N2  UNL     1      21.576   1.327  51.163  1.00  0.00    -0.261 N 
HETATM   13  C16 UNL     1      22.699   2.084  47.812  1.00  0.00     0.086 C 
HETATM   14  C17 UNL     1      21.908   2.992  46.951  1.00  0.00     0.019 C 
HETATM   15  C18 UNL     1      21.727   4.287  46.565  1.00  0.00     0.098 C 
HETATM   16  O1  UNL     1      20.719   4.301  45.647  1.00  0.00    -0.346 OA
HETATM   17  C19 UNL     1      19.808   5.281  45.252  1.00  0.00     0.202 C 
HETATM   18  C20 UNL     1      20.234   6.554  45.931  1.00  0.00     0.202 C 
HETATM   19  O2  UNL     1      21.659   6.492  46.098  1.00  0.00    -0.346 OA
HETATM   20  C21 UNL     1      22.340   5.596  46.894  1.00  0.00     0.098 C 
HETATM   21  C22 UNL     1      23.282   6.117  47.694  1.00  0.00     0.017 C 
HETATM   22  C23 UNL     1      24.326   6.101  48.710  1.00  0.00     0.068 C 
ENDROOT
BRANCH  12  23
HETATM   23  C10 UNL     1      21.594   0.662  52.420  1.00  0.00     0.053 A 
HETATM   24  C11 UNL     1      22.614  -0.250  52.600  1.00  0.00     0.031 A 
HETATM   25  C12 UNL     1      22.615  -0.893  53.841  1.00  0.00     0.002 A 
HETATM   26  C13 UNL     1      21.656  -0.615  54.793  1.00  0.00     0.000 A 
HETATM   27  C14 UNL     1      20.655   0.320  54.539  1.00  0.00     0.002 A 
HETATM   28  C15 UNL     1      20.603   0.993  53.320  1.00  0.00     0.031 A 
ENDBRANCH  12  23
TORSDOF 1
ENDMDL
MODEL 7
REMARK VINA RESULT:      -8.8      3.536      7.288
REMARK  1 active torsions:
REMARK  status: ('A' for Active; 'I' for Inactive)
REMARK    1  A    between atoms: N2_12  and  C10_13 
ROOT
HETATM    1 CL1  UNL     1      21.760   6.149  48.874  1.00  0.00    -0.084 Cl
HETATM    2  C1  UNL     1      22.616   4.704  49.335  1.00  0.00     0.035 A 
HETATM    3  C2  UNL     1      23.981   4.739  49.193  1.00  0.00     0.031 A 
HETATM    4  C3  UNL     1      24.748   3.654  49.528  1.00  0.00    -0.052 A 
HETATM    5  C4  UNL     1      24.157   2.480  50.021  1.00  0.00     0.017 A 
HETATM    6  C5  UNL     1      22.761   2.513  50.141  1.00  0.00    -0.031 A 
HETATM    7  C6  UNL     1      21.961   3.589  49.813  1.00  0.00     0.033 A 
HETATM    8  C7  UNL     1      22.032   1.333  50.719  1.00  0.00     0.149 C 
HETATM    9  C8  UNL     1      22.676   1.194  52.124  1.00  0.00     0.089 C 
HETATM   10  C9  UNL     1      22.280   2.587  52.577  1.00  0.00     0.038 C 
HETATM   11  N1  UNL     1      20.998   2.318  52.480  1.00  0.00    -0.180 NA
HETATM   12  N2  UNL     1      20.707   1.739  51.221  1.00  0.00    -0.261 N 
HETATM   13  C16 UNL     1      23.393   3.506  52.874  1.00  0.00     0.086 C 
HETATM   14  C17 UNL     1      24.558   2.760  53.401  1.00  0.00     0.019 C 
HETATM   15  C18 UNL     1      25.809   2.299  53.115  1.00  0.00     0.098 C 
HETATM   16  O1  UNL     1      26.272   1.662  54.229  1.00  0.00    -0.346 OA
HETATM   17  C19 UNL     1      27.209   0.647  54.420  1.00  0.00     0.202 C 
HETATM   18  C20 UNL     1      27.869   0.421  53.086  1.00  0.00     0.202 C 
HETATM   19  O2  UNL     1      27.848   1.673  52.383  1.00  0.00    -0.346 OA
HETATM   20  C21 UNL     1      26.720   2.334  51.946  1.00  0.00     0.098 C 
HETATM   21  C22 UNL     1      26.750   2.777  50.681  1.00  0.00     0.017 C 
HETATM   22  C23 UNL     1      26.232   3.419  49.480  1.00  0.00     0.068 C 
ENDROOT
BRANCH  12  23
HETATM   23  C10 UNL     1      19.434   1.593  50.605  1.00  0.00     0.053 A 
HETATM   24  C11 UNL     1      18.792   0.393  50.833  1.00  0.00     0.031 A 
HETATM   25  C12 UNL     1      17.543   0.269  50.220  1.00  0.00     0.002 A 
HETATM   26  C13 UNL     1      17.018   1.287  49.450  1.00  0.00     0.000 A 
HETATM   27  C14 UNL     1      17.725   2.473  49.265  1.00  0.00     0.002 A 
HETATM   28  C15 UNL     1      18.976   2.654  49.852  1.00  0.00     0.031 A 
ENDBRANCH  12  23
TORSDOF 1
ENDMDL
MODEL 8
REMARK VINA RESULT:      -8.7      2.709      4.416
REMARK  1 active torsions:
REMARK  status: ('A' for Active; 'I' for Inactive)
REMARK    1  A    between atoms: N2_12  and  C10_13 
ROOT
HETATM    1 CL1  UNL     1      26.856   4.376  48.951  1.00  0.00    -0.084 Cl
HETATM    2  C1  UNL     1      25.446   4.365  49.972  1.00  0.00     0.035 A 
HETATM    3  C2  UNL     1      24.436   5.224  49.617  1.00  0.00     0.031 A 
HETATM    4  C3  UNL     1      23.282   5.293  50.354  1.00  0.00    -0.052 A 
HETATM    5  C4  UNL     1      23.106   4.488  51.491  1.00  0.00     0.017 A 
HETATM    6  C5  UNL     1      24.176   3.634  51.796  1.00  0.00    -0.031 A 
HETATM    7  C6  UNL     1      25.348   3.542  51.074  1.00  0.00     0.033 A 
HETATM    8  C7  UNL     1      24.066   2.684  52.954  1.00  0.00     0.149 C 
HETATM    9  C8  UNL     1      22.814   1.845  52.585  1.00  0.00     0.089 C 
HETATM   10  C9  UNL     1      23.390   1.335  51.277  1.00  0.00     0.038 C 
HETATM   11  N1  UNL     1      24.370   0.706  51.887  1.00  0.00    -0.180 NA
HETATM   12  N2  UNL     1      25.020   1.571  52.801  1.00  0.00    -0.261 N 
HETATM   13  C16 UNL     1      22.673   1.743  50.057  1.00  0.00     0.086 C 
HETATM   14  C17 UNL     1      21.224   1.887  50.327  1.00  0.00     0.019 C 
HETATM   15  C18 UNL     1      20.205   2.776  50.500  1.00  0.00     0.098 C 
HETATM   16  O1  UNL     1      19.068   2.053  50.714  1.00  0.00    -0.346 OA
HETATM   17  C19 UNL     1      17.873   2.339  51.374  1.00  0.00     0.202 C 
HETATM   18  C20 UNL     1      17.922   3.801  51.728  1.00  0.00     0.202 C 
HETATM   19  O2  UNL     1      18.717   4.455  50.727  1.00  0.00    -0.346 OA
HETATM   20  C21 UNL     1      20.062   4.251  50.505  1.00  0.00     0.098 C 
HETATM   21  C22 UNL     1      20.812   5.356  50.381  1.00  0.00     0.017 C 
HETATM   22  C23 UNL     1      22.038   6.121  50.198  1.00  0.00     0.068 C 
ENDROOT
BRANCH  12  23
HETATM   23  C10 UNL     1      26.289   1.390  53.415  1.00  0.00     0.053 A 
HETATM   24  C11 UNL     1      26.361   0.387  54.361  1.00  0.00     0.031 A 
HETATM   25  C12 UNL     1      27.616   0.225  54.952  1.00  0.00     0.002 A 
HETATM   26  C13 UNL     1      28.685   1.023  54.596  1.00  0.00     0.000 A 
HETATM   27  C14 UNL     1      28.537   2.016  53.631  1.00  0.00     0.002 A 
HETATM   28  C15 UNL     1      27.309   2.225  53.007  1.00  0.00     0.031 A 
ENDBRANCH  12  23
TORSDOF 1
ENDMDL
MODEL 9
REMARK VINA RESULT:      -8.6      3.498      6.675
REMARK  1 active torsions:
REMARK  status: ('A' for Active; 'I' for Inactive)
REMARK    1  A    between atoms: N2_12  and  C10_13 
ROOT
HETATM    1 CL1  UNL     1      22.366   2.468  47.224  1.00  0.00    -0.084 Cl
HETATM    2  C1  UNL     1      22.325   2.295  48.956  1.00  0.00     0.035 A 
HETATM    3  C2  UNL     1      21.662   1.194  49.439  1.00  0.00     0.031 A 
HETATM    4  C3  UNL     1      21.572   0.966  50.787  1.00  0.00    -0.052 A 
HETATM    5  C4  UNL     1      22.153   1.853  51.707  1.00  0.00     0.017 A 
HETATM    6  C5  UNL     1      22.815   2.954  51.147  1.00  0.00    -0.031 A 
HETATM    7  C6  UNL     1      22.922   3.212  49.795  1.00  0.00     0.033 A 
HETATM    8  C7  UNL     1      23.527   3.931  52.039  1.00  0.00     0.149 C 
HETATM    9  C8  UNL     1      24.547   3.029  52.781  1.00  0.00     0.089 C 
HETATM   10  C9  UNL     1      25.239   2.561  51.514  1.00  0.00     0.038 C 
HETATM   11  N1  UNL     1      25.631   3.778  51.210  1.00  0.00    -0.180 NA
HETATM   12  N2  UNL     1      24.542   4.680  51.278  1.00  0.00    -0.261 N 
HETATM   13  C16 UNL     1      25.155   1.118  51.231  1.00  0.00     0.086 C 
HETATM   14  C17 UNL     1      25.113   0.341  52.491  1.00  0.00     0.019 C 
HETATM   15  C18 UNL     1      24.319  -0.388  53.326  1.00  0.00     0.098 C 
HETATM   16  O1  UNL     1      25.101  -0.816  54.358  1.00  0.00    -0.346 OA
HETATM   17  C19 UNL     1      24.818  -1.174  55.676  1.00  0.00     0.202 C 
HETATM   18  C20 UNL     1      23.319  -1.200  55.798  1.00  0.00     0.202 C 
HETATM   19  O2  UNL     1      22.793  -1.553  54.509  1.00  0.00    -0.346 OA
HETATM   20  C21 UNL     1      22.894  -0.795  53.362  1.00  0.00     0.098 C 
HETATM   21  C22 UNL     1      21.763  -0.635  52.660  1.00  0.00     0.017 C 
HETATM   22  C23 UNL     1      20.924  -0.136  51.578  1.00  0.00     0.068 C 
ENDROOT
BRANCH  12  23
HETATM   23  C10 UNL     1      24.466   5.992  50.735  1.00  0.00     0.053 A 
HETATM   24  C11 UNL     1      23.300   6.682  50.996  1.00  0.00     0.031 A 
HETATM   25  C12 UNL     1      23.244   7.969  50.455  1.00  0.00     0.002 A 
HETATM   26  C13 UNL     1      24.292   8.483  49.719  1.00  0.00     0.000 A 
HETATM   27  C14 UNL     1      25.441   7.726  49.496  1.00  0.00     0.002 A 
HETATM   28  C15 UNL     1      25.553   6.436  50.012  1.00  0.00     0.031 A 
ENDBRANCH  12  23
TORSDOF 1
ENDMDL
