MODEL 1
REMARK VINA RESULT:      -7.5      0.000      0.000
REMARK  8 active torsions:
REMARK  status: ('A' for Active; 'I' for Inactive)
REMARK    1  A    between atoms: C2_2  and  O1_3 
REMARK    2  A    between atoms: O1_3  and  C3_4 
REMARK    3  A    between atoms: C5_6  and  C6_7 
REMARK    4  A    between atoms: C6_7  and  C7_8 
REMARK    5  A    between atoms: C7_8  and  O2_9 
REMARK    6  A    between atoms: C9_11  and  N1_12 
REMARK    7  A    between atoms: C12_15  and  C13_16 
REMARK    8  A    between atoms: C13_16  and  O3_17 
ROOT
HETATM    1  C3  UNL     1      26.756   0.127  53.628  1.00  0.00     0.071 A 
HETATM    2  C4  UNL     1      25.400  -0.089  53.724  1.00  0.00     0.045 A 
HETATM    3  C5  UNL     1      24.441   0.538  52.917  1.00  0.00    -0.037 A 
HETATM    4  C8  UNL     1      25.013   1.389  52.022  1.00  0.00     0.047 A 
HETATM    5  C9  UNL     1      24.098   2.013  51.226  1.00  0.00     0.163 A 
HETATM    6  N3  UNL     1      24.559   2.900  50.286  1.00  0.00    -0.222 NA
HETATM    7  C16 UNL     1      25.884   3.161  50.139  1.00  0.00     0.236 A 
HETATM    8  N4  UNL     1      26.785   2.543  50.925  1.00  0.00    -0.241 NA
HETATM    9  C17 UNL     1      26.349   1.670  51.852  1.00  0.00     0.075 A 
HETATM   10  C18 UNL     1      27.228   1.028  52.668  1.00  0.00     0.069 A 
ENDROOT
BRANCH   5  11
HETATM   11  N1  UNL     1      22.684   1.960  51.090  1.00  0.00    -0.247 N 
HETATM   12  C10 UNL     1      21.707   1.100  50.478  1.00  0.00     0.119 A 
HETATM   13  C11 UNL     1      20.415   1.305  50.600  1.00  0.00     0.030 A 
HETATM   14  C12 UNL     1      19.895   2.422  51.364  1.00  0.00    -0.016 A 
HETATM   15  C14 UNL     1      20.720   3.256  51.955  1.00  0.00     0.119 A 
HETATM   16  N2  UNL     1      22.147   3.063  51.844  1.00  0.00    -0.299 N 
HETATM   17  C15 UNL     1      22.891   4.094  52.572  1.00  0.00     0.177 C 
BRANCH  14  18
HETATM   18  C13 UNL     1      18.405   2.556  51.433  1.00  0.00     0.204 C 
BRANCH  18  19
HETATM   19  O3  UNL     1      18.062   3.812  51.985  1.00  0.00    -0.396 OA
HETATM   20  H16 UNL     1      17.313   3.612  52.630  1.00  0.00     0.209 HD
ENDBRANCH  18  19
ENDBRANCH  14  18
ENDBRANCH   5  11
BRANCH   3  21
HETATM   21  C6  UNL     1      23.012   0.278  53.100  1.00  0.00     0.066 C 
BRANCH  21  22
HETATM   22  C7  UNL     1      22.910  -0.852  54.169  1.00  0.00     0.168 C 
BRANCH  22  23
HETATM   23  O2  UNL     1      21.799  -0.706  54.953  1.00  0.00    -0.401 OA
HETATM   24  H11 UNL     1      21.523  -1.531  55.442  1.00  0.00     0.209 HD
ENDBRANCH  22  23
ENDBRANCH  21  22
ENDBRANCH   3  21
BRANCH   1  25
HETATM   25  O1  UNL     1      27.756  -0.452  54.385  1.00  0.00    -0.351 OA
BRANCH  25  26
HETATM   26  C2  UNL     1      29.097  -0.099  54.431  1.00  0.00     0.171 C 
HETATM   27  C1  UNL     1      29.915  -1.087  53.664  1.00  0.00     0.034 C 
ENDBRANCH  25  26
ENDBRANCH   1  25
TORSDOF 8
ENDMDL
MODEL 2
REMARK VINA RESULT:      -7.3      1.891      2.282
REMARK  8 active torsions:
REMARK  status: ('A' for Active; 'I' for Inactive)
REMARK    1  A    between atoms: C2_2  and  O1_3 
REMARK    2  A    between atoms: O1_3  and  C3_4 
REMARK    3  A    between atoms: C5_6  and  C6_7 
REMARK    4  A    between atoms: C6_7  and  C7_8 
REMARK    5  A    between atoms: C7_8  and  O2_9 
REMARK    6  A    between atoms: C9_11  and  N1_12 
REMARK    7  A    between atoms: C12_15  and  C13_16 
REMARK    8  A    between atoms: C13_16  and  O3_17 
ROOT
HETATM    1  C3  UNL     1      25.951   0.076  54.102  1.00  0.00     0.071 A 
HETATM    2  C4  UNL     1      24.790  -0.627  53.873  1.00  0.00     0.045 A 
HETATM    3  C5  UNL     1      23.613  -0.064  53.357  1.00  0.00    -0.037 A 
HETATM    4  C8  UNL     1      23.758   1.265  53.108  1.00  0.00     0.047 A 
HETATM    5  C9  UNL     1      22.624   1.835  52.605  1.00  0.00     0.163 A 
HETATM    6  N3  UNL     1      22.650   3.176  52.319  1.00  0.00    -0.222 NA
HETATM    7  C16 UNL     1      23.762   3.930  52.522  1.00  0.00     0.236 A 
HETATM    8  N4  UNL     1      24.879   3.365  53.015  1.00  0.00    -0.241 NA
HETATM    9  C17 UNL     1      24.870   2.050  53.302  1.00  0.00     0.075 A 
HETATM   10  C18 UNL     1      25.979   1.444  53.806  1.00  0.00     0.069 A 
ENDROOT
BRANCH   5  11
HETATM   11  N1  UNL     1      21.332   1.358  52.253  1.00  0.00    -0.247 N 
HETATM   12  C10 UNL     1      20.104   1.025  52.922  1.00  0.00     0.119 A 
HETATM   13  C11 UNL     1      19.024   0.662  52.270  1.00  0.00     0.030 A 
HETATM   14  C12 UNL     1      19.007   0.576  50.823  1.00  0.00    -0.016 A 
HETATM   15  C14 UNL     1      20.088   0.863  50.134  1.00  0.00     0.119 A 
HETATM   16  N2  UNL     1      21.295   1.266  50.817  1.00  0.00    -0.299 N 
HETATM   17  C15 UNL     1      22.382   1.544  49.874  1.00  0.00     0.177 C 
BRANCH  14  18
HETATM   18  C13 UNL     1      17.719   0.152  50.188  1.00  0.00     0.204 C 
BRANCH  18  19
HETATM   19  O3  UNL     1      16.940  -0.571  51.122  1.00  0.00    -0.396 OA
HETATM   20  H16 UNL     1      16.456   0.137  51.654  1.00  0.00     0.209 HD
ENDBRANCH  18  19
ENDBRANCH  14  18
ENDBRANCH   5  11
BRANCH   3  21
HETATM   21  C6  UNL     1      22.407  -0.874  53.171  1.00  0.00     0.066 C 
BRANCH  21  22
HETATM   22  C7  UNL     1      22.167  -1.612  54.522  1.00  0.00     0.168 C 
BRANCH  22  23
HETATM   23  O2  UNL     1      20.834  -1.696  54.820  1.00  0.00    -0.401 OA
HETATM   24  H11 UNL     1      20.631  -1.798  55.792  1.00  0.00     0.209 HD
ENDBRANCH  22  23
ENDBRANCH  21  22
ENDBRANCH   3  21
BRANCH   1  25
HETATM   25  O1  UNL     1      27.142  -0.407  54.605  1.00  0.00    -0.351 OA
BRANCH  25  26
HETATM   26  C2  UNL     1      28.379   0.220  54.608  1.00  0.00     0.171 C 
HETATM   27  C1  UNL     1      29.374  -0.602  53.854  1.00  0.00     0.034 C 
ENDBRANCH  25  26
ENDBRANCH   1  25
TORSDOF 8
ENDMDL
MODEL 3
REMARK VINA RESULT:      -7.1      2.314      3.864
REMARK  8 active torsions:
REMARK  status: ('A' for Active; 'I' for Inactive)
REMARK    1  A    between atoms: C2_2  and  O1_3 
REMARK    2  A    between atoms: O1_3  and  C3_4 
REMARK    3  A    between atoms: C5_6  and  C6_7 
REMARK    4  A    between atoms: C6_7  and  C7_8 
REMARK    5  A    between atoms: C7_8  and  O2_9 
REMARK    6  A    between atoms: C9_11  and  N1_12 
REMARK    7  A    between atoms: C12_15  and  C13_16 
REMARK    8  A    between atoms: C13_16  and  O3_17 
ROOT
HETATM    1  C3  UNL     1      26.271  -0.049  53.589  1.00  0.00     0.071 A 
HETATM    2  C4  UNL     1      26.228   1.167  52.945  1.00  0.00     0.045 A 
HETATM    3  C5  UNL     1      25.045   1.840  52.606  1.00  0.00    -0.037 A 
HETATM    4  C8  UNL     1      23.941   1.146  52.993  1.00  0.00     0.047 A 
HETATM    5  C9  UNL     1      22.777   1.782  52.673  1.00  0.00     0.163 A 
HETATM    6  N3  UNL     1      21.596   1.172  53.011  1.00  0.00    -0.222 NA
HETATM    7  C16 UNL     1      21.566  -0.029  53.646  1.00  0.00     0.236 A 
HETATM    8  N4  UNL     1      22.716  -0.653  53.962  1.00  0.00    -0.241 NA
HETATM    9  C17 UNL     1      23.884  -0.068  53.638  1.00  0.00     0.075 A 
HETATM   10  C18 UNL     1      25.067  -0.670  53.937  1.00  0.00     0.069 A 
ENDROOT
BRANCH   5  11
HETATM   11  N1  UNL     1      22.446   3.018  52.055  1.00  0.00    -0.247 N 
HETATM   12  C10 UNL     1      22.342   4.401  52.434  1.00  0.00     0.119 A 
HETATM   13  C11 UNL     1      22.067   5.349  51.568  1.00  0.00     0.030 A 
HETATM   14  C12 UNL     1      21.848   5.052  50.166  1.00  0.00    -0.016 A 
HETATM   15  C14 UNL     1      21.924   3.813  49.735  1.00  0.00     0.119 A 
HETATM   16  N2  UNL     1      22.225   2.744  50.659  1.00  0.00    -0.299 N 
HETATM   17  C15 UNL     1      22.266   1.444  49.985  1.00  0.00     0.177 C 
BRANCH  14  18
HETATM   18  C13 UNL     1      21.541   6.213  49.271  1.00  0.00     0.204 C 
BRANCH  18  19
HETATM   19  O3  UNL     1      21.538   7.411  50.024  1.00  0.00    -0.396 OA
HETATM   20  H16 UNL     1      21.450   8.145  49.337  1.00  0.00     0.209 HD
ENDBRANCH  18  19
ENDBRANCH  14  18
ENDBRANCH   5  11
BRANCH   3  21
HETATM   21  C6  UNL     1      25.081   3.119  51.893  1.00  0.00     0.066 C 
BRANCH  21  22
HETATM   22  C7  UNL     1      25.967   2.887  50.632  1.00  0.00     0.168 C 
BRANCH  22  23
HETATM   23  O2  UNL     1      27.112   3.634  50.676  1.00  0.00    -0.401 OA
HETATM   24  H11 UNL     1      27.626   3.559  51.527  1.00  0.00     0.209 HD
ENDBRANCH  22  23
ENDBRANCH  21  22
ENDBRANCH   3  21
BRANCH   1  25
HETATM   25  O1  UNL     1      27.392  -0.768  53.952  1.00  0.00    -0.351 OA
BRANCH  25  26
HETATM   26  C2  UNL     1      28.635  -0.274  54.322  1.00  0.00     0.171 C 
HETATM   27  C1  UNL     1      29.709  -0.928  53.514  1.00  0.00     0.034 C 
ENDBRANCH  25  26
ENDBRANCH   1  25
TORSDOF 8
ENDMDL
MODEL 4
REMARK VINA RESULT:      -7.0      3.510      6.058
REMARK  8 active torsions:
REMARK  status: ('A' for Active; 'I' for Inactive)
REMARK    1  A    between atoms: C2_2  and  O1_3 
REMARK    2  A    between atoms: O1_3  and  C3_4 
REMARK    3  A    between atoms: C5_6  and  C6_7 
REMARK    4  A    between atoms: C6_7  and  C7_8 
REMARK    5  A    between atoms: C7_8  and  O2_9 
REMARK    6  A    between atoms: C9_11  and  N1_12 
REMARK    7  A    between atoms: C12_15  and  C13_16 
REMARK    8  A    between atoms: C13_16  and  O3_17 
ROOT
HETATM    1  C3  UNL     1      21.230   1.061  52.536  1.00  0.00     0.071 A 
HETATM    2  C4  UNL     1      22.265   1.943  52.751  1.00  0.00     0.045 A 
HETATM    3  C5  UNL     1      23.015   2.545  51.731  1.00  0.00    -0.037 A 
HETATM    4  C8  UNL     1      22.595   2.153  50.498  1.00  0.00     0.047 A 
HETATM    5  C9  UNL     1      23.312   2.726  49.488  1.00  0.00     0.163 A 
HETATM    6  N3  UNL     1      22.980   2.400  48.197  1.00  0.00    -0.222 NA
HETATM    7  C16 UNL     1      21.971   1.535  47.914  1.00  0.00     0.236 A 
HETATM    8  N4  UNL     1      21.265   0.973  48.912  1.00  0.00    -0.241 NA
HETATM    9  C17 UNL     1      21.578   1.282  50.184  1.00  0.00     0.075 A 
HETATM   10  C18 UNL     1      20.889   0.731  51.220  1.00  0.00     0.069 A 
ENDROOT
BRANCH   5  11
HETATM   11  N1  UNL     1      24.378   3.663  49.420  1.00  0.00    -0.247 N 
HETATM   12  C10 UNL     1      25.816   3.639  49.445  1.00  0.00     0.119 A 
HETATM   13  C11 UNL     1      26.540   4.723  49.284  1.00  0.00     0.030 A 
HETATM   14  C12 UNL     1      25.926   6.018  49.070  1.00  0.00    -0.016 A 
HETATM   15  C14 UNL     1      24.617   6.129  49.034  1.00  0.00     0.119 A 
HETATM   16  N2  UNL     1      23.788   4.958  49.206  1.00  0.00    -0.299 N 
HETATM   17  C15 UNL     1      22.363   5.290  49.131  1.00  0.00     0.177 C 
BRANCH  14  18
HETATM   18  C13 UNL     1      26.851   7.183  48.899  1.00  0.00     0.204 C 
BRANCH  18  19
HETATM   19  O3  UNL     1      28.192   6.755  49.044  1.00  0.00    -0.396 OA
HETATM   20  H16 UNL     1      28.556   6.731  48.103  1.00  0.00     0.209 HD
ENDBRANCH  18  19
ENDBRANCH  14  18
ENDBRANCH   5  11
BRANCH   3  21
HETATM   21  C6  UNL     1      24.122   3.452  52.041  1.00  0.00     0.066 C 
BRANCH  21  22
HETATM   22  C7  UNL     1      23.496   4.656  52.806  1.00  0.00     0.168 C 
BRANCH  22  23
HETATM   23  O2  UNL     1      24.139   5.828  52.516  1.00  0.00    -0.401 OA
HETATM   24  H11 UNL     1      23.539   6.572  52.227  1.00  0.00     0.209 HD
ENDBRANCH  22  23
ENDBRANCH  21  22
ENDBRANCH   3  21
BRANCH   1  25
HETATM   25  O1  UNL     1      20.452   0.431  53.486  1.00  0.00    -0.351 OA
BRANCH  25  26
HETATM   26  C2  UNL     1      20.455  -0.912  53.832  1.00  0.00     0.171 C 
HETATM   27  C1  UNL     1      21.683  -1.237  54.620  1.00  0.00     0.034 C 
ENDBRANCH  25  26
ENDBRANCH   1  25
TORSDOF 8
ENDMDL
MODEL 5
REMARK VINA RESULT:      -6.9      2.948      5.649
REMARK  8 active torsions:
REMARK  status: ('A' for Active; 'I' for Inactive)
REMARK    1  A    between atoms: C2_2  and  O1_3 
REMARK    2  A    between atoms: O1_3  and  C3_4 
REMARK    3  A    between atoms: C5_6  and  C6_7 
REMARK    4  A    between atoms: C6_7  and  C7_8 
REMARK    5  A    between atoms: C7_8  and  O2_9 
REMARK    6  A    between atoms: C9_11  and  N1_12 
REMARK    7  A    between atoms: C12_15  and  C13_16 
REMARK    8  A    between atoms: C13_16  and  O3_17 
ROOT
HETATM    1  C3  UNL     1      23.234   0.162  52.585  1.00  0.00     0.071 A 
HETATM    2  C4  UNL     1      24.307   1.023  52.585  1.00  0.00     0.045 A 
HETATM    3  C5  UNL     1      24.424   2.141  51.746  1.00  0.00    -0.037 A 
HETATM    4  C8  UNL     1      23.345   2.273  50.929  1.00  0.00     0.047 A 
HETATM    5  C9  UNL     1      23.437   3.354  50.102  1.00  0.00     0.163 A 
HETATM    6  N3  UNL     1      22.405   3.587  49.228  1.00  0.00    -0.222 NA
HETATM    7  C16 UNL     1      21.317   2.776  49.174  1.00  0.00     0.236 A 
HETATM    8  N4  UNL     1      21.228   1.711  49.992  1.00  0.00    -0.241 NA
HETATM    9  C17 UNL     1      22.231   1.469  50.856  1.00  0.00     0.075 A 
HETATM   10  C18 UNL     1      22.180   0.400  51.696  1.00  0.00     0.069 A 
ENDROOT
BRANCH   5  11
HETATM   11  N1  UNL     1      24.386   4.396  49.913  1.00  0.00    -0.247 N 
HETATM   12  C10 UNL     1      25.571   4.624  49.131  1.00  0.00     0.119 A 
HETATM   13  C11 UNL     1      26.205   5.774  49.135  1.00  0.00     0.030 A 
HETATM   14  C12 UNL     1      25.744   6.890  49.937  1.00  0.00    -0.016 A 
HETATM   15  C14 UNL     1      24.669   6.766  50.681  1.00  0.00     0.119 A 
HETATM   16  N2  UNL     1      23.944   5.516  50.702  1.00  0.00    -0.299 N 
HETATM   17  C15 UNL     1      22.779   5.582  51.589  1.00  0.00     0.177 C 
BRANCH  14  18
HETATM   18  C13 UNL     1      26.547   8.151  49.862  1.00  0.00     0.204 C 
BRANCH  18  19
HETATM   19  O3  UNL     1      27.899   7.842  49.582  1.00  0.00    -0.396 OA
HETATM   20  H16 UNL     1      28.106   8.347  48.733  1.00  0.00     0.209 HD
ENDBRANCH  18  19
ENDBRANCH  14  18
ENDBRANCH   5  11
BRANCH   3  21
HETATM   21  C6  UNL     1      25.614   2.994  51.786  1.00  0.00     0.066 C 
BRANCH  21  22
HETATM   22  C7  UNL     1      26.830   2.034  51.957  1.00  0.00     0.168 C 
BRANCH  22  23
HETATM   23  O2  UNL     1      27.957   2.711  52.334  1.00  0.00    -0.401 OA
HETATM   24  H11 UNL     1      27.794   3.487  52.940  1.00  0.00     0.209 HD
ENDBRANCH  22  23
ENDBRANCH  21  22
ENDBRANCH   3  21
BRANCH   1  25
HETATM   25  O1  UNL     1      23.050  -0.953  53.378  1.00  0.00    -0.351 OA
BRANCH  25  26
HETATM   26  C2  UNL     1      22.386  -1.031  54.593  1.00  0.00     0.171 C 
HETATM   27  C1  UNL     1      21.068  -1.713  54.417  1.00  0.00     0.034 C 
ENDBRANCH  25  26
ENDBRANCH   1  25
TORSDOF 8
ENDMDL
MODEL 6
REMARK VINA RESULT:      -6.8      9.092     11.206
REMARK  8 active torsions:
REMARK  status: ('A' for Active; 'I' for Inactive)
REMARK    1  A    between atoms: C2_2  and  O1_3 
REMARK    2  A    between atoms: O1_3  and  C3_4 
REMARK    3  A    between atoms: C5_6  and  C6_7 
REMARK    4  A    between atoms: C6_7  and  C7_8 
REMARK    5  A    between atoms: C7_8  and  O2_9 
REMARK    6  A    between atoms: C9_11  and  N1_12 
REMARK    7  A    between atoms: C12_15  and  C13_16 
REMARK    8  A    between atoms: C13_16  and  O3_17 
ROOT
HETATM    1  C3  UNL     1      32.306   3.752  46.947  1.00  0.00     0.071 A 
HETATM    2  C4  UNL     1      31.237   4.600  47.128  1.00  0.00     0.045 A 
HETATM    3  C5  UNL     1      31.345   5.919  47.593  1.00  0.00    -0.037 A 
HETATM    4  C8  UNL     1      32.637   6.261  47.844  1.00  0.00     0.047 A 
HETATM    5  C9  UNL     1      32.766   7.541  48.299  1.00  0.00     0.163 A 
HETATM    6  N3  UNL     1      34.027   7.997  48.590  1.00  0.00    -0.222 NA
HETATM    7  C16 UNL     1      35.126   7.212  48.436  1.00  0.00     0.236 A 
HETATM    8  N4  UNL     1      34.995   5.951  47.986  1.00  0.00    -0.241 NA
HETATM    9  C17 UNL     1      33.765   5.488  47.695  1.00  0.00     0.075 A 
HETATM   10  C18 UNL     1      33.592   4.217  47.241  1.00  0.00     0.069 A 
ENDROOT
BRANCH   5  11
HETATM   11  N1  UNL     1      31.868   8.615  48.545  1.00  0.00    -0.247 N 
HETATM   12  C10 UNL     1      31.034   9.075  49.622  1.00  0.00     0.119 A 
HETATM   13  C11 UNL     1      30.347  10.193  49.551  1.00  0.00     0.030 A 
HETATM   14  C12 UNL     1      30.392  11.034  48.372  1.00  0.00    -0.016 A 
HETATM   15  C14 UNL     1      31.129  10.686  47.342  1.00  0.00     0.119 A 
HETATM   16  N2  UNL     1      31.899   9.464  47.384  1.00  0.00    -0.299 N 
HETATM   17  C15 UNL     1      32.652   9.257  46.144  1.00  0.00     0.177 C 
BRANCH  14  18
HETATM   18  C13 UNL     1      29.568  12.284  48.404  1.00  0.00     0.204 C 
BRANCH  18  19
HETATM   19  O3  UNL     1      28.764  12.298  49.568  1.00  0.00    -0.396 OA
HETATM   20  H16 UNL     1      29.269  12.878  50.222  1.00  0.00     0.209 HD
ENDBRANCH  18  19
ENDBRANCH  14  18
ENDBRANCH   5  11
BRANCH   3  21
HETATM   21  C6  UNL     1      30.155   6.751  47.788  1.00  0.00     0.066 C 
BRANCH  21  22
HETATM   22  C7  UNL     1      28.959   5.765  47.948  1.00  0.00     0.168 C 
BRANCH  22  23
HETATM   23  O2  UNL     1      28.830   5.333  49.239  1.00  0.00    -0.401 OA
HETATM   24  H11 UNL     1      27.888   5.188  49.538  1.00  0.00     0.209 HD
ENDBRANCH  22  23
ENDBRANCH  21  22
ENDBRANCH   3  21
BRANCH   1  25
HETATM   25  O1  UNL     1      32.277   2.448  46.496  1.00  0.00    -0.351 OA
BRANCH  25  26
HETATM   26  C2  UNL     1      32.649   1.302  47.185  1.00  0.00     0.171 C 
HETATM   27  C1  UNL     1      31.904   0.119  46.657  1.00  0.00     0.034 C 
ENDBRANCH  25  26
ENDBRANCH   1  25
TORSDOF 8
ENDMDL
MODEL 7
REMARK VINA RESULT:      -6.7      8.359     10.962
REMARK  8 active torsions:
REMARK  status: ('A' for Active; 'I' for Inactive)
REMARK    1  A    between atoms: C2_2  and  O1_3 
REMARK    2  A    between atoms: O1_3  and  C3_4 
REMARK    3  A    between atoms: C5_6  and  C6_7 
REMARK    4  A    between atoms: C6_7  and  C7_8 
REMARK    5  A    between atoms: C7_8  and  O2_9 
REMARK    6  A    between atoms: C9_11  and  N1_12 
REMARK    7  A    between atoms: C12_15  and  C13_16 
REMARK    8  A    between atoms: C13_16  and  O3_17 
ROOT
HETATM    1  C3  UNL     1      27.918   5.562  48.512  1.00  0.00     0.071 A 
HETATM    2  C4  UNL     1      27.421   6.832  48.700  1.00  0.00     0.045 A 
HETATM    3  C5  UNL     1      28.162   8.006  48.507  1.00  0.00    -0.037 A 
HETATM    4  C8  UNL     1      29.435   7.740  48.109  1.00  0.00     0.047 A 
HETATM    5  C9  UNL     1      30.175   8.870  47.915  1.00  0.00     0.163 A 
HETATM    6  N3  UNL     1      31.480   8.724  47.516  1.00  0.00    -0.222 NA
HETATM    7  C16 UNL     1      32.034   7.500  47.314  1.00  0.00     0.236 A 
HETATM    8  N4  UNL     1      31.300   6.388  47.504  1.00  0.00    -0.241 NA
HETATM    9  C17 UNL     1      30.019   6.513  47.895  1.00  0.00     0.075 A 
HETATM   10  C18 UNL     1      29.247   5.412  48.102  1.00  0.00     0.069 A 
ENDROOT
BRANCH   5  11
HETATM   11  N1  UNL     1      29.920  10.265  48.003  1.00  0.00    -0.247 N 
HETATM   12  C10 UNL     1      30.009  11.300  48.997  1.00  0.00     0.119 A 
HETATM   13  C11 UNL     1      29.752  12.559  48.726  1.00  0.00     0.030 A 
HETATM   14  C12 UNL     1      29.360  12.982  47.396  1.00  0.00    -0.016 A 
HETATM   15  C14 UNL     1      29.254  12.099  46.429  1.00  0.00     0.119 A 
HETATM   16  N2  UNL     1      29.529  10.705  46.690  1.00  0.00    -0.299 N 
HETATM   17  C15 UNL     1      29.357   9.887  45.486  1.00  0.00     0.177 C 
BRANCH  14  18
HETATM   18  C13 UNL     1      29.092  14.443  47.205  1.00  0.00     0.204 C 
BRANCH  18  19
HETATM   19  O3  UNL     1      29.989  14.973  46.248  1.00  0.00    -0.396 OA
HETATM   20  H16 UNL     1      29.688  14.579  45.369  1.00  0.00     0.209 HD
ENDBRANCH  18  19
ENDBRANCH  14  18
ENDBRANCH   5  11
BRANCH   3  21
HETATM   21  C6  UNL     1      27.570   9.322  48.756  1.00  0.00     0.066 C 
BRANCH  21  22
HETATM   22  C7  UNL     1      26.850   9.220  50.135  1.00  0.00     0.168 C 
BRANCH  22  23
HETATM   23  O2  UNL     1      27.691   9.533  51.167  1.00  0.00    -0.401 OA
HETATM   24  H11 UNL     1      27.550  10.441  51.558  1.00  0.00     0.209 HD
ENDBRANCH  22  23
ENDBRANCH  21  22
ENDBRANCH   3  21
BRANCH   1  25
HETATM   25  O1  UNL     1      27.252   4.365  48.682  1.00  0.00    -0.351 OA
BRANCH  25  26
HETATM   26  C2  UNL     1      26.187   4.099  49.531  1.00  0.00     0.171 C 
HETATM   27  C1  UNL     1      26.497   2.917  50.393  1.00  0.00     0.034 C 
ENDBRANCH  25  26
ENDBRANCH   1  25
TORSDOF 8
ENDMDL
MODEL 8
REMARK VINA RESULT:      -6.6      4.009      5.765
REMARK  8 active torsions:
REMARK  status: ('A' for Active; 'I' for Inactive)
REMARK    1  A    between atoms: C2_2  and  O1_3 
REMARK    2  A    between atoms: O1_3  and  C3_4 
REMARK    3  A    between atoms: C5_6  and  C6_7 
REMARK    4  A    between atoms: C6_7  and  C7_8 
REMARK    5  A    between atoms: C7_8  and  O2_9 
REMARK    6  A    between atoms: C9_11  and  N1_12 
REMARK    7  A    between atoms: C12_15  and  C13_16 
REMARK    8  A    between atoms: C13_16  and  O3_17 
ROOT
HETATM    1  C3  UNL     1      28.178   5.879  48.303  1.00  0.00     0.071 A 
HETATM    2  C4  UNL     1      27.454   4.783  48.716  1.00  0.00     0.045 A 
HETATM    3  C5  UNL     1      26.234   4.855  49.404  1.00  0.00    -0.037 A 
HETATM    4  C8  UNL     1      25.849   6.143  49.614  1.00  0.00     0.047 A 
HETATM    5  C9  UNL     1      24.664   6.237  50.283  1.00  0.00     0.163 A 
HETATM    6  N3  UNL     1      24.177   7.491  50.556  1.00  0.00    -0.222 NA
HETATM    7  C16 UNL     1      24.840   8.615  50.179  1.00  0.00     0.236 A 
HETATM    8  N4  UNL     1      26.008   8.517  49.518  1.00  0.00    -0.241 NA
HETATM    9  C17 UNL     1      26.500   7.296  49.242  1.00  0.00     0.075 A 
HETATM   10  C18 UNL     1      27.680   7.157  48.578  1.00  0.00     0.069 A 
ENDROOT
BRANCH   5  11
HETATM   11  N1  UNL     1      23.718   5.304  50.788  1.00  0.00    -0.247 N 
HETATM   12  C10 UNL     1      23.482   4.589  52.013  1.00  0.00     0.119 A 
HETATM   13  C11 UNL     1      22.432   3.820  52.187  1.00  0.00     0.030 A 
HETATM   14  C12 UNL     1      21.441   3.645  51.144  1.00  0.00    -0.016 A 
HETATM   15  C14 UNL     1      21.581   4.262  49.993  1.00  0.00     0.119 A 
HETATM   16  N2  UNL     1      22.723   5.117  49.765  1.00  0.00    -0.299 N 
HETATM   17  C15 UNL     1      22.694   5.712  48.426  1.00  0.00     0.177 C 
BRANCH  14  18
HETATM   18  C13 UNL     1      20.286   2.744  51.455  1.00  0.00     0.204 C 
BRANCH  18  19
HETATM   19  O3  UNL     1      19.401   3.392  52.349  1.00  0.00    -0.396 OA
HETATM   20  H16 UNL     1      19.429   4.363  52.077  1.00  0.00     0.209 HD
ENDBRANCH  18  19
ENDBRANCH  14  18
ENDBRANCH   5  11
BRANCH   3  21
HETATM   21  C6  UNL     1      25.538   3.641  49.837  1.00  0.00     0.066 C 
BRANCH  21  22
HETATM   22  C7  UNL     1      26.641   2.669  50.353  1.00  0.00     0.168 C 
BRANCH  22  23
HETATM   23  O2  UNL     1      27.126   3.058  51.571  1.00  0.00    -0.401 OA
HETATM   24  H11 UNL     1      26.426   3.275  52.249  1.00  0.00     0.209 HD
ENDBRANCH  22  23
ENDBRANCH  21  22
ENDBRANCH   3  21
BRANCH   1  25
HETATM   25  O1  UNL     1      29.380   5.886  47.625  1.00  0.00    -0.351 OA
BRANCH  25  26
HETATM   26  C2  UNL     1      30.657   5.804  48.162  1.00  0.00     0.171 C 
HETATM   27  C1  UNL     1      31.419   4.695  47.511  1.00  0.00     0.034 C 
ENDBRANCH  25  26
ENDBRANCH   1  25
TORSDOF 8
ENDMDL
MODEL 9
REMARK VINA RESULT:      -6.5      2.520      3.677
REMARK  8 active torsions:
REMARK  status: ('A' for Active; 'I' for Inactive)
REMARK    1  A    between atoms: C2_2  and  O1_3 
REMARK    2  A    between atoms: O1_3  and  C3_4 
REMARK    3  A    between atoms: C5_6  and  C6_7 
REMARK    4  A    between atoms: C6_7  and  C7_8 
REMARK    5  A    between atoms: C7_8  and  O2_9 
REMARK    6  A    between atoms: C9_11  and  N1_12 
REMARK    7  A    between atoms: C12_15  and  C13_16 
REMARK    8  A    between atoms: C13_16  and  O3_17 
ROOT
HETATM    1  C3  UNL     1      26.013   0.740  53.484  1.00  0.00     0.071 A 
HETATM    2  C4  UNL     1      25.847   1.552  52.384  1.00  0.00     0.045 A 
HETATM    3  C5  UNL     1      24.647   1.679  51.670  1.00  0.00    -0.037 A 
HETATM    4  C8  UNL     1      23.663   0.901  52.195  1.00  0.00     0.047 A 
HETATM    5  C9  UNL     1      22.485   1.007  51.514  1.00  0.00     0.163 A 
HETATM    6  N3  UNL     1      21.419   0.263  51.952  1.00  0.00    -0.222 NA
HETATM    7  C16 UNL     1      21.514  -0.560  53.029  1.00  0.00     0.236 A 
HETATM    8  N4  UNL     1      22.677  -0.661  53.699  1.00  0.00    -0.241 NA
HETATM    9  C17 UNL     1      23.732   0.062  53.283  1.00  0.00     0.075 A 
HETATM   10  C18 UNL     1      24.925  -0.016  53.932  1.00  0.00     0.069 A 
ENDROOT
BRANCH   5  11
HETATM   11  N1  UNL     1      22.035   1.764  50.399  1.00  0.00    -0.247 N 
HETATM   12  C10 UNL     1      22.004   1.631  48.968  1.00  0.00     0.119 A 
HETATM   13  C11 UNL     1      21.429   2.520  48.191  1.00  0.00     0.030 A 
HETATM   14  C12 UNL     1      20.786   3.699  48.737  1.00  0.00    -0.016 A 
HETATM   15  C14 UNL     1      20.769   3.898  50.036  1.00  0.00     0.119 A 
HETATM   16  N2  UNL     1      21.391   2.941  50.922  1.00  0.00    -0.299 N 
HETATM   17  C15 UNL     1      21.263   3.342  52.325  1.00  0.00     0.177 C 
BRANCH  14  18
HETATM   18  C13 UNL     1      20.163   4.643  47.756  1.00  0.00     0.204 C 
BRANCH  18  19
HETATM   19  O3  UNL     1      20.527   4.274  46.439  1.00  0.00    -0.396 OA
HETATM   20  H16 UNL     1      21.360   4.810  46.245  1.00  0.00     0.209 HD
ENDBRANCH  18  19
ENDBRANCH  14  18
ENDBRANCH   5  11
BRANCH   3  21
HETATM   21  C6  UNL     1      24.558   2.542  50.490  1.00  0.00     0.066 C 
BRANCH  21  22
HETATM   22  C7  UNL     1      24.843   3.990  50.990  1.00  0.00     0.168 C 
BRANCH  22  23
HETATM   23  O2  UNL     1      26.010   4.482  50.474  1.00  0.00    -0.401 OA
HETATM   24  H11 UNL     1      26.643   3.787  50.139  1.00  0.00     0.209 HD
ENDBRANCH  22  23
ENDBRANCH  21  22
ENDBRANCH   3  21
BRANCH   1  25
HETATM   25  O1  UNL     1      27.159   0.565  54.234  1.00  0.00    -0.351 OA
BRANCH  25  26
HETATM   26  C2  UNL     1      28.456   0.923  53.899  1.00  0.00     0.171 C 
HETATM   27  C1  UNL     1      29.292  -0.300  53.696  1.00  0.00     0.034 C 
ENDBRANCH  25  26
ENDBRANCH   1  25
TORSDOF 8
ENDMDL
