MODEL 1
REMARK VINA RESULT:      -6.9      0.000      0.000
REMARK  7 active torsions:
REMARK  status: ('A' for Active; 'I' for Inactive)
REMARK       I    between atoms: N1_1  and  C1_2 
REMARK    1  A    between atoms: C1_2  and  O2_4 
REMARK    2  A    between atoms: O2_4  and  C2_5 
REMARK    3  A    between atoms: C2_5  and  C3_6 
REMARK       I    between atoms: C3_6  and  N2_8 
REMARK    4  A    between atoms: N2_8  and  C4_9 
REMARK    5  A    between atoms: C9_15  and  N4_16 
REMARK    6  A    between atoms: N4_16  and  C10_17 
REMARK    7  A    between atoms: C10_17  and  C11_18 
ROOT
HETATM    1  C4  UNL     1      24.891   2.306  53.325  1.00  0.00     0.098 C 
HETATM    2  C5  UNL     1      24.110   2.317  52.259  1.00  0.00    -0.011 C 
HETATM    3  C6  UNL     1      24.294   2.516  50.795  1.00  0.00     0.045 C 
HETATM    4  C7  UNL     1      23.469   3.722  50.394  1.00  0.00     0.051 C 
HETATM    5  C8  UNL     1      22.434   4.108  51.344  1.00  0.00     0.086 C 
HETATM    6  N3  UNL     1      22.042   3.375  52.296  1.00  0.00    -0.266 NA
HETATM    7  C9  UNL     1      22.628   2.075  52.492  1.00  0.00     0.372 C 
ENDROOT
BRANCH   1   8
HETATM    8  N2  UNL     1      26.169   2.428  53.860  1.00  0.00    -0.335 N 
HETATM    9  C3  UNL     1      27.441   2.351  53.241  1.00  0.00     0.245 C 
HETATM   10  O3  UNL     1      27.582   2.143  51.988  1.00  0.00    -0.271 OA
HETATM   11  H5  UNL     1      26.451   2.617  54.845  1.00  0.00     0.168 HD
BRANCH   9  12
HETATM   12  C2  UNL     1      28.831   2.464  53.728  1.00  0.00     0.283 C 
BRANCH  12  13
HETATM   13  O2  UNL     1      29.089   1.555  54.811  1.00  0.00    -0.295 OA
BRANCH  13  14
HETATM   14  C1  UNL     1      28.810   0.189  54.633  1.00  0.00     0.358 C 
HETATM   15  N1  UNL     1      29.771  -0.455  53.808  1.00  0.00    -0.346 N 
HETATM   16  H1  UNL     1      30.107  -0.271  52.819  1.00  0.00     0.161 HD
HETATM   17  H2  UNL     1      30.476  -1.211  53.692  1.00  0.00     0.161 HD
HETATM   18  O1  UNL     1      27.827  -0.466  55.123  1.00  0.00    -0.239 OA
ENDBRANCH  13  14
ENDBRANCH  12  13
ENDBRANCH   9  12
ENDBRANCH   1   8
BRANCH   7  19
HETATM   19  N4  UNL     1      22.073   1.201  51.490  1.00  0.00     0.117 N 
HETATM   20  H13 UNL     1      22.740   0.892  50.759  1.00  0.00     0.319 HD
BRANCH  19  21
HETATM   21  C10 UNL     1      21.371   0.092  52.097  1.00  0.00     0.322 C 
BRANCH  21  22
HETATM   22  C11 UNL     1      22.045  -0.473  53.275  1.00  0.00     0.051 A 
HETATM   23 CL1  UNL     1      23.137  -0.964  54.549  1.00  0.00    -0.145 Cl
HETATM   24  C12 UNL     1      21.407  -1.264  54.126  1.00  0.00     0.512 A 
HETATM   25  F1  UNL     1      20.116  -1.610  53.991  1.00  0.00    -0.442 F 
ENDBRANCH  21  22
ENDBRANCH  19  21
ENDBRANCH   7  19
TORSDOF 7
ENDMDL
MODEL 2
REMARK VINA RESULT:      -6.9      3.237      5.553
REMARK  7 active torsions:
REMARK  status: ('A' for Active; 'I' for Inactive)
REMARK       I    between atoms: N1_1  and  C1_2 
REMARK    1  A    between atoms: C1_2  and  O2_4 
REMARK    2  A    between atoms: O2_4  and  C2_5 
REMARK    3  A    between atoms: C2_5  and  C3_6 
REMARK       I    between atoms: C3_6  and  N2_8 
REMARK    4  A    between atoms: N2_8  and  C4_9 
REMARK    5  A    between atoms: C9_15  and  N4_16 
REMARK    6  A    between atoms: N4_16  and  C10_17 
REMARK    7  A    between atoms: C10_17  and  C11_18 
ROOT
HETATM    1  C4  UNL     1      26.661   1.236  51.834  1.00  0.00     0.098 C 
HETATM    2  C5  UNL     1      27.082   0.647  52.939  1.00  0.00    -0.011 C 
HETATM    3  C6  UNL     1      28.109   0.928  53.982  1.00  0.00     0.045 C 
HETATM    4  C7  UNL     1      29.091  -0.226  53.973  1.00  0.00     0.051 C 
HETATM    5  C8  UNL     1      28.613  -1.442  53.327  1.00  0.00     0.086 C 
HETATM    6  N3  UNL     1      27.403  -1.652  53.029  1.00  0.00    -0.266 NA
HETATM    7  C9  UNL     1      26.405  -0.658  53.323  1.00  0.00     0.372 C 
ENDROOT
BRANCH   1   8
HETATM    8  N2  UNL     1      26.762   2.300  50.944  1.00  0.00    -0.335 N 
HETATM    9  C3  UNL     1      25.883   3.384  50.698  1.00  0.00     0.245 C 
HETATM   10  O3  UNL     1      24.783   3.532  51.330  1.00  0.00    -0.271 OA
HETATM   11  H5  UNL     1      27.529   2.523  50.275  1.00  0.00     0.168 HD
BRANCH   9  12
HETATM   12  C2  UNL     1      25.911   4.542  49.780  1.00  0.00     0.283 C 
BRANCH  12  13
HETATM   13  O2  UNL     1      26.874   4.363  48.728  1.00  0.00    -0.295 OA
BRANCH  13  14
HETATM   14  C1  UNL     1      27.956   5.255  48.639  1.00  0.00     0.358 C 
HETATM   15  N1  UNL     1      27.610   6.567  49.060  1.00  0.00    -0.346 N 
HETATM   16  H1  UNL     1      26.864   7.250  48.741  1.00  0.00     0.161 HD
HETATM   17  H2  UNL     1      27.791   7.372  49.694  1.00  0.00     0.161 HD
HETATM   18  O1  UNL     1      29.141   4.990  48.237  1.00  0.00    -0.239 OA
ENDBRANCH  13  14
ENDBRANCH  12  13
ENDBRANCH   9  12
ENDBRANCH   1   8
BRANCH   7  19
HETATM   19  N4  UNL     1      26.145  -0.720  54.739  1.00  0.00     0.117 N 
HETATM   20  H13 UNL     1      26.469   0.102  55.281  1.00  0.00     0.319 HD
BRANCH  19  21
HETATM   21  C10 UNL     1      24.759  -1.038  55.000  1.00  0.00     0.322 C 
BRANCH  21  22
HETATM   22  C11 UNL     1      23.825  -0.537  53.983  1.00  0.00     0.051 A 
HETATM   23 CL1  UNL     1      22.996   0.268  52.670  1.00  0.00    -0.145 Cl
HETATM   24  C12 UNL     1      22.579  -0.984  53.903  1.00  0.00     0.512 A 
HETATM   25  F1  UNL     1      22.073  -1.916  54.728  1.00  0.00    -0.442 F 
ENDBRANCH  21  22
ENDBRANCH  19  21
ENDBRANCH   7  19
TORSDOF 7
ENDMDL
MODEL 3
REMARK VINA RESULT:      -6.7      3.308      5.670
REMARK  7 active torsions:
REMARK  status: ('A' for Active; 'I' for Inactive)
REMARK       I    between atoms: N1_1  and  C1_2 
REMARK    1  A    between atoms: C1_2  and  O2_4 
REMARK    2  A    between atoms: O2_4  and  C2_5 
REMARK    3  A    between atoms: C2_5  and  C3_6 
REMARK       I    between atoms: C3_6  and  N2_8 
REMARK    4  A    between atoms: N2_8  and  C4_9 
REMARK    5  A    between atoms: C9_15  and  N4_16 
REMARK    6  A    between atoms: N4_16  and  C10_17 
REMARK    7  A    between atoms: C10_17  and  C11_18 
ROOT
HETATM    1  C4  UNL     1      26.784   1.986  52.008  1.00  0.00     0.098 C 
HETATM    2  C5  UNL     1      27.222   1.292  53.044  1.00  0.00    -0.011 C 
HETATM    3  C6  UNL     1      28.232   1.492  54.120  1.00  0.00     0.045 C 
HETATM    4  C7  UNL     1      29.256   0.383  53.991  1.00  0.00     0.051 C 
HETATM    5  C8  UNL     1      28.827  -0.769  53.209  1.00  0.00     0.086 C 
HETATM    6  N3  UNL     1      27.627  -0.989  52.878  1.00  0.00    -0.266 NA
HETATM    7  C9  UNL     1      26.591  -0.071  53.273  1.00  0.00     0.372 C 
ENDROOT
BRANCH   1   8
HETATM    8  N2  UNL     1      26.849   3.146  51.244  1.00  0.00    -0.335 N 
HETATM    9  C3  UNL     1      25.990   3.633  50.228  1.00  0.00     0.245 C 
HETATM   10  O3  UNL     1      24.943   3.003  49.856  1.00  0.00    -0.271 OA
HETATM   11  H5  UNL     1      27.554   3.913  51.277  1.00  0.00     0.168 HD
BRANCH   9  12
HETATM   12  C2  UNL     1      25.986   4.839  49.373  1.00  0.00     0.283 C 
BRANCH  12  13
HETATM   13  O2  UNL     1      25.758   6.032  50.142  1.00  0.00    -0.295 OA
BRANCH  13  14
HETATM   14  C1  UNL     1      24.467   6.282  50.641  1.00  0.00     0.358 C 
HETATM   15  N1  UNL     1      24.492   6.803  51.962  1.00  0.00    -0.346 N 
HETATM   16  H1  UNL     1      24.903   6.440  52.870  1.00  0.00     0.161 HD
HETATM   17  H2  UNL     1      24.229   7.565  52.620  1.00  0.00     0.161 HD
HETATM   18  O1  UNL     1      23.357   6.089  50.036  1.00  0.00    -0.239 OA
ENDBRANCH  13  14
ENDBRANCH  12  13
ENDBRANCH   9  12
ENDBRANCH   1   8
BRANCH   7  19
HETATM   19  N4  UNL     1      26.328  -0.302  54.670  1.00  0.00     0.117 N 
HETATM   20  H13 UNL     1      26.477   0.518  55.287  1.00  0.00     0.319 HD
BRANCH  19  21
HETATM   21  C10 UNL     1      25.026  -0.901  54.862  1.00  0.00     0.322 C 
BRANCH  21  22
HETATM   22  C11 UNL     1      24.002  -0.430  53.919  1.00  0.00     0.051 A 
HETATM   23 CL1  UNL     1      23.071   0.248  52.603  1.00  0.00    -0.145 Cl
HETATM   24  C12 UNL     1      22.709  -0.603  54.155  1.00  0.00     0.512 A 
HETATM   25  F1  UNL     1      22.231  -1.213  55.252  1.00  0.00    -0.442 F 
ENDBRANCH  21  22
ENDBRANCH  19  21
ENDBRANCH   7  19
TORSDOF 7
ENDMDL
MODEL 4
REMARK VINA RESULT:      -6.6      4.145      6.570
REMARK  7 active torsions:
REMARK  status: ('A' for Active; 'I' for Inactive)
REMARK       I    between atoms: N1_1  and  C1_2 
REMARK    1  A    between atoms: C1_2  and  O2_4 
REMARK    2  A    between atoms: O2_4  and  C2_5 
REMARK    3  A    between atoms: C2_5  and  C3_6 
REMARK       I    between atoms: C3_6  and  N2_8 
REMARK    4  A    between atoms: N2_8  and  C4_9 
REMARK    5  A    between atoms: C9_15  and  N4_16 
REMARK    6  A    between atoms: N4_16  and  C10_17 
REMARK    7  A    between atoms: C10_17  and  C11_18 
ROOT
HETATM    1  C4  UNL     1      25.322   1.999  53.643  1.00  0.00     0.098 C 
HETATM    2  C5  UNL     1      25.102   0.698  53.566  1.00  0.00    -0.011 C 
HETATM    3  C6  UNL     1      24.036  -0.180  53.006  1.00  0.00     0.045 C 
HETATM    4  C7  UNL     1      23.462  -0.984  54.154  1.00  0.00     0.051 C 
HETATM    5  C8  UNL     1      24.295  -1.043  55.348  1.00  0.00     0.086 C 
HETATM    6  N3  UNL     1      25.511  -0.699  55.376  1.00  0.00    -0.266 NA
HETATM    7  C9  UNL     1      26.150  -0.213  54.181  1.00  0.00     0.372 C 
ENDROOT
BRANCH   1   8
HETATM    8  N2  UNL     1      24.897   3.292  53.360  1.00  0.00    -0.335 N 
HETATM    9  C3  UNL     1      23.788   3.757  52.610  1.00  0.00     0.245 C 
HETATM   10  O3  UNL     1      22.959   2.963  52.049  1.00  0.00    -0.271 OA
HETATM   11  H5  UNL     1      25.312   4.199  53.662  1.00  0.00     0.168 HD
BRANCH   9  12
HETATM   12  C2  UNL     1      23.270   5.096  52.261  1.00  0.00     0.283 C 
BRANCH  12  13
HETATM   13  O2  UNL     1      23.848   5.585  51.039  1.00  0.00    -0.295 OA
BRANCH  13  14
HETATM   14  C1  UNL     1      24.238   6.934  50.964  1.00  0.00     0.358 C 
HETATM   15  N1  UNL     1      25.650   7.087  50.952  1.00  0.00    -0.346 N 
HETATM   16  H1  UNL     1      26.411   6.779  51.623  1.00  0.00     0.161 HD
HETATM   17  H2  UNL     1      26.498   7.451  50.473  1.00  0.00     0.161 HD
HETATM   18  O1  UNL     1      23.470   7.955  50.909  1.00  0.00    -0.239 OA
ENDBRANCH  13  14
ENDBRANCH  12  13
ENDBRANCH   9  12
ENDBRANCH   1   8
BRANCH   7  19
HETATM   19  N4  UNL     1      26.413  -1.356  53.343  1.00  0.00     0.117 N 
HETATM   20  H13 UNL     1      25.809  -1.433  52.505  1.00  0.00     0.319 HD
BRANCH  19  21
HETATM   21  C10 UNL     1      27.819  -1.448  53.017  1.00  0.00     0.322 C 
BRANCH  21  22
HETATM   22  C11 UNL     1      28.613  -0.288  53.443  1.00  0.00     0.051 A 
HETATM   23 CL1  UNL     1      29.257   1.282  53.864  1.00  0.00    -0.145 Cl
HETATM   24  C12 UNL     1      29.861  -0.420  53.870  1.00  0.00     0.512 A 
HETATM   25  F1  UNL     1      30.495  -1.602  53.951  1.00  0.00    -0.442 F 
ENDBRANCH  21  22
ENDBRANCH  19  21
ENDBRANCH   7  19
TORSDOF 7
ENDMDL
MODEL 5
REMARK VINA RESULT:      -6.5      1.700      2.054
REMARK  7 active torsions:
REMARK  status: ('A' for Active; 'I' for Inactive)
REMARK       I    between atoms: N1_1  and  C1_2 
REMARK    1  A    between atoms: C1_2  and  O2_4 
REMARK    2  A    between atoms: O2_4  and  C2_5 
REMARK    3  A    between atoms: C2_5  and  C3_6 
REMARK       I    between atoms: C3_6  and  N2_8 
REMARK    4  A    between atoms: N2_8  and  C4_9 
REMARK    5  A    between atoms: C9_15  and  N4_16 
REMARK    6  A    between atoms: N4_16  and  C10_17 
REMARK    7  A    between atoms: C10_17  and  C11_18 
ROOT
HETATM    1  C4  UNL     1      25.007   1.300  52.242  1.00  0.00     0.098 C 
HETATM    2  C5  UNL     1      24.087   2.030  51.635  1.00  0.00    -0.011 C 
HETATM    3  C6  UNL     1      23.799   2.448  50.235  1.00  0.00     0.045 C 
HETATM    4  C7  UNL     1      23.848   3.961  50.195  1.00  0.00     0.051 C 
HETATM    5  C8  UNL     1      23.732   4.620  51.490  1.00  0.00     0.086 C 
HETATM    6  N3  UNL     1      23.353   4.037  52.545  1.00  0.00    -0.266 NA
HETATM    7  C9  UNL     1      23.007   2.640  52.513  1.00  0.00     0.372 C 
ENDROOT
BRANCH   1   8
HETATM    8  N2  UNL     1      26.154   0.520  52.147  1.00  0.00    -0.335 N 
HETATM    9  C3  UNL     1      26.582  -0.591  52.917  1.00  0.00     0.245 C 
HETATM   10  O3  UNL     1      25.893  -1.060  53.885  1.00  0.00    -0.271 OA
HETATM   11  H5  UNL     1      26.941   0.592  51.468  1.00  0.00     0.168 HD
BRANCH   9  12
HETATM   12  C2  UNL     1      27.773  -1.465  52.888  1.00  0.00     0.283 C 
BRANCH  12  13
HETATM   13  O2  UNL     1      28.626  -1.236  54.022  1.00  0.00    -0.295 OA
BRANCH  13  14
HETATM   14  C1  UNL     1      29.091   0.068  54.269  1.00  0.00     0.358 C 
HETATM   15  N1  UNL     1      30.143   0.441  53.391  1.00  0.00    -0.346 N 
HETATM   16  H1  UNL     1      31.091   0.013  53.184  1.00  0.00     0.161 HD
HETATM   17  H2  UNL     1      30.511   1.103  52.678  1.00  0.00     0.161 HD
HETATM   18  O1  UNL     1      28.665   0.880  55.160  1.00  0.00    -0.239 OA
ENDBRANCH  13  14
ENDBRANCH  12  13
ENDBRANCH   9  12
ENDBRANCH   1   8
BRANCH   7  19
HETATM   19  N4  UNL     1      21.708   2.537  51.898  1.00  0.00     0.117 N 
HETATM   20  H13 UNL     1      21.715   2.245  50.903  1.00  0.00     0.319 HD
BRANCH  19  21
HETATM   21  C10 UNL     1      20.816   1.730  52.700  1.00  0.00     0.322 C 
BRANCH  21  22
HETATM   22  C11 UNL     1      21.390   0.448  53.133  1.00  0.00     0.051 A 
HETATM   23 CL1  UNL     1      22.197  -1.093  53.304  1.00  0.00    -0.145 Cl
HETATM   24  C12 UNL     1      21.224  -0.005  54.368  1.00  0.00     0.512 A 
HETATM   25  F1  UNL     1      20.533   0.655  55.312  1.00  0.00    -0.442 F 
ENDBRANCH  21  22
ENDBRANCH  19  21
ENDBRANCH   7  19
TORSDOF 7
ENDMDL
MODEL 6
REMARK VINA RESULT:      -6.3      3.231      4.416
REMARK  7 active torsions:
REMARK  status: ('A' for Active; 'I' for Inactive)
REMARK       I    between atoms: N1_1  and  C1_2 
REMARK    1  A    between atoms: C1_2  and  O2_4 
REMARK    2  A    between atoms: O2_4  and  C2_5 
REMARK    3  A    between atoms: C2_5  and  C3_6 
REMARK       I    between atoms: C3_6  and  N2_8 
REMARK    4  A    between atoms: N2_8  and  C4_9 
REMARK    5  A    between atoms: C9_15  and  N4_16 
REMARK    6  A    between atoms: N4_16  and  C10_17 
REMARK    7  A    between atoms: C10_17  and  C11_18 
ROOT
HETATM    1  C4  UNL     1      25.220   1.577  51.639  1.00  0.00     0.098 C 
HETATM    2  C5  UNL     1      23.924   1.751  51.827  1.00  0.00    -0.011 C 
HETATM    3  C6  UNL     1      22.864   1.115  52.658  1.00  0.00     0.045 C 
HETATM    4  C7  UNL     1      21.816   0.566  51.711  1.00  0.00     0.051 C 
HETATM    5  C8  UNL     1      21.848   1.119  50.363  1.00  0.00     0.086 C 
HETATM    6  N3  UNL     1      22.495   2.157  50.042  1.00  0.00    -0.266 NA
HETATM    7  C9  UNL     1      23.259   2.864  51.035  1.00  0.00     0.372 C 
ENDROOT
BRANCH   1   8
HETATM    8  N2  UNL     1      26.379   0.873  51.948  1.00  0.00    -0.335 N 
HETATM    9  C3  UNL     1      26.561  -0.343  52.653  1.00  0.00     0.245 C 
HETATM   10  O3  UNL     1      25.583  -1.009  53.135  1.00  0.00    -0.271 OA
HETATM   11  H5  UNL     1      27.367   1.099  51.705  1.00  0.00     0.168 HD
BRANCH   9  12
HETATM   12  C2  UNL     1      27.742  -1.150  53.025  1.00  0.00     0.283 C 
BRANCH  12  13
HETATM   13  O2  UNL     1      28.262  -0.768  54.309  1.00  0.00    -0.295 OA
BRANCH  13  14
HETATM   14  C1  UNL     1      29.045   0.396  54.405  1.00  0.00     0.358 C 
HETATM   15  N1  UNL     1      30.065   0.443  53.418  1.00  0.00    -0.346 N 
HETATM   16  H1  UNL     1      30.860  -0.216  53.174  1.00  0.00     0.161 HD
HETATM   17  H2  UNL     1      30.508   0.947  52.623  1.00  0.00     0.161 HD
HETATM   18  O1  UNL     1      28.914   1.344  55.254  1.00  0.00    -0.239 OA
ENDBRANCH  13  14
ENDBRANCH  12  13
ENDBRANCH   9  12
ENDBRANCH   1   8
BRANCH   7  19
HETATM   19  N4  UNL     1      22.326   3.604  51.845  1.00  0.00     0.117 N 
HETATM   20  H13 UNL     1      21.789   3.035  52.527  1.00  0.00     0.319 HD
BRANCH  19  21
HETATM   21  C10 UNL     1      22.964   4.744  52.465  1.00  0.00     0.322 C 
BRANCH  21  22
HETATM   22  C11 UNL     1      23.731   5.583  51.534  1.00  0.00     0.051 A 
HETATM   23 CL1  UNL     1      24.919   6.354  50.508  1.00  0.00    -0.145 Cl
HETATM   24  C12 UNL     1      23.181   6.622  50.922  1.00  0.00     0.512 A 
HETATM   25  F1  UNL     1      21.901   6.991  51.094  1.00  0.00    -0.442 F 
ENDBRANCH  21  22
ENDBRANCH  19  21
ENDBRANCH   7  19
TORSDOF 7
ENDMDL
MODEL 7
REMARK VINA RESULT:      -6.2      2.537      3.171
REMARK  7 active torsions:
REMARK  status: ('A' for Active; 'I' for Inactive)
REMARK       I    between atoms: N1_1  and  C1_2 
REMARK    1  A    between atoms: C1_2  and  O2_4 
REMARK    2  A    between atoms: O2_4  and  C2_5 
REMARK    3  A    between atoms: C2_5  and  C3_6 
REMARK       I    between atoms: C3_6  and  N2_8 
REMARK    4  A    between atoms: N2_8  and  C4_9 
REMARK    5  A    between atoms: C9_15  and  N4_16 
REMARK    6  A    between atoms: N4_16  and  C10_17 
REMARK    7  A    between atoms: C10_17  and  C11_18 
ROOT
HETATM    1  C4  UNL     1      25.384   2.781  52.276  1.00  0.00     0.098 C 
HETATM    2  C5  UNL     1      25.434   3.039  50.981  1.00  0.00    -0.011 C 
HETATM    3  C6  UNL     1      26.418   2.832  49.882  1.00  0.00     0.045 C 
HETATM    4  C7  UNL     1      26.774   4.197  49.329  1.00  0.00     0.051 C 
HETATM    5  C8  UNL     1      25.835   5.262  49.658  1.00  0.00     0.086 C 
HETATM    6  N3  UNL     1      24.679   5.062  50.127  1.00  0.00    -0.266 NA
HETATM    7  C9  UNL     1      24.221   3.719  50.369  1.00  0.00     0.372 C 
ENDROOT
BRANCH   1   8
HETATM    8  N2  UNL     1      26.002   2.257  53.406  1.00  0.00    -0.335 N 
HETATM    9  C3  UNL     1      26.123   0.918  53.856  1.00  0.00     0.245 C 
HETATM   10  O3  UNL     1      25.631  -0.068  53.209  1.00  0.00    -0.271 OA
HETATM   11  H5  UNL     1      26.524   2.755  54.158  1.00  0.00     0.168 HD
BRANCH   9  12
HETATM   12  C2  UNL     1      26.752   0.280  55.030  1.00  0.00     0.283 C 
BRANCH  12  13
HETATM   13  O2  UNL     1      28.118  -0.081  54.769  1.00  0.00    -0.295 OA
BRANCH  13  14
HETATM   14  C1  UNL     1      29.031   0.927  54.413  1.00  0.00     0.358 C 
HETATM   15  N1  UNL     1      30.010   0.467  53.492  1.00  0.00    -0.346 N 
HETATM   16  H1  UNL     1      30.714  -0.325  53.529  1.00  0.00     0.161 HD
HETATM   17  H2  UNL     1      30.475   0.569  52.567  1.00  0.00     0.161 HD
HETATM   18  O1  UNL     1      29.041   2.137  54.826  1.00  0.00    -0.239 OA
ENDBRANCH  13  14
ENDBRANCH  12  13
ENDBRANCH   9  12
ENDBRANCH   1   8
BRANCH   7  19
HETATM   19  N4  UNL     1      23.885   3.147  49.090  1.00  0.00     0.117 N 
HETATM   20  H13 UNL     1      24.539   2.419  48.749  1.00  0.00     0.319 HD
BRANCH  19  21
HETATM   21  C10 UNL     1      22.509   2.703  49.066  1.00  0.00     0.322 C 
BRANCH  21  22
HETATM   22  C11 UNL     1      21.916   2.506  50.396  1.00  0.00     0.051 A 
HETATM   23 CL1  UNL     1      21.281   2.629  52.020  1.00  0.00    -0.145 Cl
HETATM   24  C12 UNL     1      21.469   1.321  50.788  1.00  0.00     0.512 A 
HETATM   25  F1  UNL     1      21.517   0.220  50.021  1.00  0.00    -0.442 F 
ENDBRANCH  21  22
ENDBRANCH  19  21
ENDBRANCH   7  19
TORSDOF 7
ENDMDL
MODEL 8
REMARK VINA RESULT:      -6.2      2.109      2.429
REMARK  7 active torsions:
REMARK  status: ('A' for Active; 'I' for Inactive)
REMARK       I    between atoms: N1_1  and  C1_2 
REMARK    1  A    between atoms: C1_2  and  O2_4 
REMARK    2  A    between atoms: O2_4  and  C2_5 
REMARK    3  A    between atoms: C2_5  and  C3_6 
REMARK       I    between atoms: C3_6  and  N2_8 
REMARK    4  A    between atoms: N2_8  and  C4_9 
REMARK    5  A    between atoms: C9_15  and  N4_16 
REMARK    6  A    between atoms: N4_16  and  C10_17 
REMARK    7  A    between atoms: C10_17  and  C11_18 
ROOT
HETATM    1  C4  UNL     1      24.405   1.691  52.532  1.00  0.00     0.098 C 
HETATM    2  C5  UNL     1      23.726   2.468  51.705  1.00  0.00    -0.011 C 
HETATM    3  C6  UNL     1      23.760   2.774  50.248  1.00  0.00     0.045 C 
HETATM    4  C7  UNL     1      24.035   4.257  50.103  1.00  0.00     0.051 C 
HETATM    5  C8  UNL     1      23.784   5.053  51.298  1.00  0.00     0.086 C 
HETATM    6  N3  UNL     1      23.140   4.634  52.301  1.00  0.00    -0.266 NA
HETATM    7  C9  UNL     1      22.606   3.298  52.308  1.00  0.00     0.372 C 
ENDROOT
BRANCH   1   8
HETATM    8  N2  UNL     1      25.425   0.765  52.721  1.00  0.00    -0.335 N 
HETATM    9  C3  UNL     1      26.699   0.904  53.327  1.00  0.00     0.245 C 
HETATM   10  O3  UNL     1      27.103   2.009  53.827  1.00  0.00    -0.271 OA
HETATM   11  H5  UNL     1      25.451  -0.243  52.459  1.00  0.00     0.168 HD
BRANCH   9  12
HETATM   12  C2  UNL     1      27.831  -0.014  53.564  1.00  0.00     0.283 C 
BRANCH  12  13
HETATM   13  O2  UNL     1      27.380  -1.349  53.851  1.00  0.00    -0.295 OA
BRANCH  13  14
HETATM   14  C1  UNL     1      27.533  -2.343  52.869  1.00  0.00     0.358 C 
HETATM   15  N1  UNL     1      28.644  -3.189  53.128  1.00  0.00    -0.346 N 
HETATM   16  H1  UNL     1      29.678  -2.995  53.264  1.00  0.00     0.161 HD
HETATM   17  H2  UNL     1      29.010  -4.150  53.285  1.00  0.00     0.161 HD
HETATM   18  O1  UNL     1      26.798  -2.527  51.839  1.00  0.00    -0.239 OA
ENDBRANCH  13  14
ENDBRANCH  12  13
ENDBRANCH   9  12
ENDBRANCH   1   8
BRANCH   7  19
HETATM   19  N4  UNL     1      21.439   3.300  51.463  1.00  0.00     0.117 N 
HETATM   20  H13 UNL     1      21.550   2.806  50.559  1.00  0.00     0.319 HD
BRANCH  19  21
HETATM   21  C10 UNL     1      20.270   2.857  52.190  1.00  0.00     0.322 C 
BRANCH  21  22
HETATM   22  C11 UNL     1      20.480   1.636  52.980  1.00  0.00     0.051 A 
HETATM   23 CL1  UNL     1      20.741   0.414  54.203  1.00  0.00    -0.145 Cl
HETATM   24  C12 UNL     1      20.529   0.440  52.410  1.00  0.00     0.512 A 
HETATM   25  F1  UNL     1      20.393   0.243  51.088  1.00  0.00    -0.442 F 
ENDBRANCH  21  22
ENDBRANCH  19  21
ENDBRANCH   7  19
TORSDOF 7
ENDMDL
MODEL 9
REMARK VINA RESULT:      -6.2      4.232      6.935
REMARK  7 active torsions:
REMARK  status: ('A' for Active; 'I' for Inactive)
REMARK       I    between atoms: N1_1  and  C1_2 
REMARK    1  A    between atoms: C1_2  and  O2_4 
REMARK    2  A    between atoms: O2_4  and  C2_5 
REMARK    3  A    between atoms: C2_5  and  C3_6 
REMARK       I    between atoms: C3_6  and  N2_8 
REMARK    4  A    between atoms: N2_8  and  C4_9 
REMARK    5  A    between atoms: C9_15  and  N4_16 
REMARK    6  A    between atoms: N4_16  and  C10_17 
REMARK    7  A    between atoms: C10_17  and  C11_18 
ROOT
HETATM    1  C4  UNL     1      24.559   0.162  53.517  1.00  0.00     0.098 C 
HETATM    2  C5  UNL     1      25.796   0.271  53.066  1.00  0.00    -0.011 C 
HETATM    3  C6  UNL     1      26.820  -0.654  52.505  1.00  0.00     0.045 C 
HETATM    4  C7  UNL     1      28.026  -0.603  53.421  1.00  0.00     0.051 C 
HETATM    5  C8  UNL     1      28.086   0.556  54.302  1.00  0.00     0.086 C 
HETATM    6  N3  UNL     1      27.365   1.585  54.163  1.00  0.00    -0.266 NA
HETATM    7  C9  UNL     1      26.415   1.659  53.085  1.00  0.00     0.372 C 
ENDROOT
BRANCH   1   8
HETATM    8  N2  UNL     1      23.461  -0.648  53.786  1.00  0.00    -0.335 N 
HETATM    9  C3  UNL     1      22.073  -0.402  53.639  1.00  0.00     0.245 C 
HETATM   10  O3  UNL     1      21.617   0.706  53.193  1.00  0.00    -0.271 OA
HETATM   11  H5  UNL     1      23.441  -1.626  54.145  1.00  0.00     0.168 HD
BRANCH   9  12
HETATM   12  C2  UNL     1      20.854  -1.195  53.899  1.00  0.00     0.283 C 
BRANCH  12  13
HETATM   13  O2  UNL     1      19.667  -0.390  53.801  1.00  0.00    -0.295 OA
BRANCH  13  14
HETATM   14  C1  UNL     1      18.557  -0.898  53.104  1.00  0.00     0.358 C 
HETATM   15  N1  UNL     1      17.727  -1.705  53.927  1.00  0.00    -0.346 N 
HETATM   16  H1  UNL     1      17.915  -2.575  54.504  1.00  0.00     0.161 HD
HETATM   17  H2  UNL     1      16.785  -1.887  54.329  1.00  0.00     0.161 HD
HETATM   18  O1  UNL     1      18.264  -0.701  51.875  1.00  0.00    -0.239 OA
ENDBRANCH  13  14
ENDBRANCH  12  13
ENDBRANCH   9  12
ENDBRANCH   1   8
BRANCH   7  19
HETATM   19  N4  UNL     1      27.157   1.922  51.879  1.00  0.00     0.117 N 
HETATM   20  H13 UNL     1      27.562   1.085  51.421  1.00  0.00     0.319 HD
BRANCH  19  21
HETATM   21  C10 UNL     1      26.387   2.731  50.961  1.00  0.00     0.322 C 
BRANCH  21  22
HETATM   22  C11 UNL     1      25.087   3.168  51.488  1.00  0.00     0.051 A 
HETATM   23 CL1  UNL     1      23.726   3.737  52.428  1.00  0.00    -0.145 Cl
HETATM   24  C12 UNL     1      24.000   3.184  50.730  1.00  0.00     0.512 A 
HETATM   25  F1  UNL     1      23.991   2.811  49.440  1.00  0.00    -0.442 F 
ENDBRANCH  21  22
ENDBRANCH  19  21
ENDBRANCH   7  19
TORSDOF 7
ENDMDL
