MODEL 1
REMARK VINA RESULT:      -8.7      0.000      0.000
REMARK  5 active torsions:
REMARK  status: ('A' for Active; 'I' for Inactive)
REMARK    1  A    between atoms: C1_1  and  P1_2 
REMARK    2  A    between atoms: C1_1  and  C10_15 
REMARK    3  A    between atoms: P1_2  and  S1_3 
REMARK    4  A    between atoms: S1_3  and  C2_4 
REMARK    5  A    between atoms: C3_7  and  C4_8 
ROOT
HETATM    1  C2  UNL     1      27.275   2.273  52.852  1.00  0.00     0.229 C 
HETATM    2  N1  UNL     1      28.534   2.301  52.686  1.00  0.00    -0.143 NA
HETATM    3  N2  UNL     1      29.212   2.026  53.901  1.00  0.00    -0.278 N 
HETATM    4  C3  UNL     1      28.187   1.237  54.584  1.00  0.00     0.281 C 
HETATM    5  O1  UNL     1      27.024   1.976  54.193  1.00  0.00    -0.296 OA
HETATM    6  H2  UNL     1      30.166   2.269  54.293  1.00  0.00     0.185 HD
ENDROOT
BRANCH   1   7
HETATM    7  S1  UNL     1      26.443   2.627  51.290  1.00  0.00    -0.042 SA
BRANCH   7   8
HETATM    8  P1  UNL     1      24.263   1.398  52.160  1.00  0.00     0.017 P 
HETATM    9  H1  UNL     1      24.687   1.650  51.971  1.00  0.00     0.082 HD
BRANCH   8  10
HETATM   10  C1  UNL     1      23.177   0.769  52.618  1.00  0.00    -0.105 C 
BRANCH  10  11
HETATM   11  C10 UNL     1      22.086   0.110  53.086  1.00  0.00     0.010 A 
HETATM   12  C11 UNL     1      22.431  -0.846  53.997  1.00  0.00     0.020 A 
HETATM   13  C12 UNL     1      21.326  -1.549  54.416  1.00  0.00     0.001 A 
HETATM   14  C13 UNL     1      20.156  -1.135  53.835  1.00  0.00     0.000 A 
HETATM   15  C14 UNL     1      19.845  -0.164  52.918  1.00  0.00     0.001 A 
HETATM   16  C15 UNL     1      20.941   0.548  52.487  1.00  0.00     0.020 A 
ENDBRANCH  10  11
ENDBRANCH   8  10
ENDBRANCH   7   8
ENDBRANCH   1   7
BRANCH   4  17
HETATM   17  C4  UNL     1      28.167  -0.093  53.944  1.00  0.00    -0.008 A 
HETATM   18  C5  UNL     1      27.092  -0.775  53.378  1.00  0.00     0.011 A 
HETATM   19  C6  UNL     1      27.267  -2.015  52.824  1.00  0.00     0.001 A 
HETATM   20  C7  UNL     1      28.486  -2.656  52.789  1.00  0.00     0.000 A 
HETATM   21  C8  UNL     1      29.573  -2.007  53.342  1.00  0.00     0.001 A 
HETATM   22  C9  UNL     1      29.393  -0.760  53.898  1.00  0.00     0.011 A 
ENDBRANCH   4  17
TORSDOF 5
ENDMDL
MODEL 2
REMARK VINA RESULT:      -8.1      2.978      6.591
REMARK  5 active torsions:
REMARK  status: ('A' for Active; 'I' for Inactive)
REMARK    1  A    between atoms: C1_1  and  P1_2 
REMARK    2  A    between atoms: C1_1  and  C10_15 
REMARK    3  A    between atoms: P1_2  and  S1_3 
REMARK    4  A    between atoms: S1_3  and  C2_4 
REMARK    5  A    between atoms: C3_7  and  C4_8 
ROOT
HETATM    1  C2  UNL     1      22.702   2.655  51.557  1.00  0.00     0.229 C 
HETATM    2  N1  UNL     1      21.491   2.946  51.812  1.00  0.00    -0.143 NA
HETATM    3  N2  UNL     1      20.608   2.022  51.198  1.00  0.00    -0.278 N 
HETATM    4  C3  UNL     1      21.488   0.857  51.113  1.00  0.00     0.281 C 
HETATM    5  O1  UNL     1      22.709   1.513  50.755  1.00  0.00    -0.296 OA
HETATM    6  H2  UNL     1      19.602   2.061  50.865  1.00  0.00     0.185 HD
ENDROOT
BRANCH   1   7
HETATM    7  S1  UNL     1      23.799   3.850  52.350  1.00  0.00    -0.042 SA
BRANCH   7   8
HETATM    8  P1  UNL     1      25.636   1.966  52.669  1.00  0.00     0.017 P 
HETATM    9  H1  UNL     1      25.282   2.353  52.594  1.00  0.00     0.082 HD
BRANCH   8  10
HETATM   10  C1  UNL     1      26.545   1.003  52.843  1.00  0.00    -0.105 C 
BRANCH  10  11
HETATM   11  C10 UNL     1      27.476   0.035  53.040  1.00  0.00     0.010 A 
HETATM   12  C11 UNL     1      28.662   0.560  53.465  1.00  0.00     0.020 A 
HETATM   13  C12 UNL     1      29.616  -0.421  53.600  1.00  0.00     0.001 A 
HETATM   14  C13 UNL     1      29.164  -1.675  53.282  1.00  0.00     0.000 A 
HETATM   15  C14 UNL     1      27.958  -2.169  52.857  1.00  0.00     0.001 A 
HETATM   16  C15 UNL     1      26.992  -1.199  52.716  1.00  0.00     0.020 A 
ENDBRANCH  10  11
ENDBRANCH   8  10
ENDBRANCH   7   8
ENDBRANCH   1   7
BRANCH   4  17
HETATM   17  C4  UNL     1      21.604   0.302  52.476  1.00  0.00    -0.008 A 
HETATM   18  C5  UNL     1      20.677   0.337  53.516  1.00  0.00     0.011 A 
HETATM   19  C6  UNL     1      20.965  -0.239  54.725  1.00  0.00     0.001 A 
HETATM   20  C7  UNL     1      22.158  -0.874  54.988  1.00  0.00     0.000 A 
HETATM   21  C8  UNL     1      23.099  -0.927  53.979  1.00  0.00     0.001 A 
HETATM   22  C9  UNL     1      22.807  -0.347  52.764  1.00  0.00     0.011 A 
ENDBRANCH   4  17
TORSDOF 5
ENDMDL
MODEL 3
REMARK VINA RESULT:      -8.0      2.975      6.632
REMARK  5 active torsions:
REMARK  status: ('A' for Active; 'I' for Inactive)
REMARK    1  A    between atoms: C1_1  and  P1_2 
REMARK    2  A    between atoms: C1_1  and  C10_15 
REMARK    3  A    between atoms: P1_2  and  S1_3 
REMARK    4  A    between atoms: S1_3  and  C2_4 
REMARK    5  A    between atoms: C3_7  and  C4_8 
ROOT
HETATM    1  C2  UNL     1      22.677   2.563  51.609  1.00  0.00     0.229 C 
HETATM    2  N1  UNL     1      21.485   2.681  52.032  1.00  0.00    -0.143 NA
HETATM    3  N2  UNL     1      20.648   1.683  51.471  1.00  0.00    -0.278 N 
HETATM    4  C3  UNL     1      21.644   0.648  51.197  1.00  0.00     0.281 C 
HETATM    5  O1  UNL     1      22.718   1.475  50.735  1.00  0.00    -0.296 OA
HETATM    6  H2  UNL     1      19.609   1.608  51.270  1.00  0.00     0.185 HD
ENDROOT
BRANCH   1   7
HETATM    7  S1  UNL     1      23.716   3.847  52.338  1.00  0.00    -0.042 SA
BRANCH   7   8
HETATM    8  P1  UNL     1      25.653   2.078  52.717  1.00  0.00     0.017 P 
HETATM    9  H1  UNL     1      25.258   2.425  52.658  1.00  0.00     0.082 HD
BRANCH   8  10
HETATM   10  C1  UNL     1      26.640   1.195  52.887  1.00  0.00    -0.105 C 
BRANCH  10  11
HETATM   11  C10 UNL     1      27.634   0.283  53.043  1.00  0.00     0.010 A 
HETATM   12  C11 UNL     1      27.190  -0.986  52.809  1.00  0.00     0.020 A 
HETATM   13  C12 UNL     1      28.187  -1.906  53.033  1.00  0.00     0.001 A 
HETATM   14  C13 UNL     1      29.373  -1.347  53.429  1.00  0.00     0.000 A 
HETATM   15  C14 UNL     1      29.786  -0.060  53.653  1.00  0.00     0.001 A 
HETATM   16  C15 UNL     1      28.799   0.874  53.435  1.00  0.00     0.020 A 
ENDBRANCH  10  11
ENDBRANCH   8  10
ENDBRANCH   7   8
ENDBRANCH   1   7
BRANCH   4  17
HETATM   17  C4  UNL     1      22.007   0.043  52.493  1.00  0.00    -0.008 A 
HETATM   18  C5  UNL     1      23.266  -0.319  52.968  1.00  0.00     0.011 A 
HETATM   19  C6  UNL     1      23.409  -0.873  54.212  1.00  0.00     0.001 A 
HETATM   20  C7  UNL     1      22.346  -1.107  55.056  1.00  0.00     0.000 A 
HETATM   21  C8  UNL     1      21.084  -0.760  54.616  1.00  0.00     0.001 A 
HETATM   22  C9  UNL     1      20.943  -0.202  53.365  1.00  0.00     0.011 A 
ENDBRANCH   4  17
TORSDOF 5
ENDMDL
MODEL 4
REMARK VINA RESULT:      -7.3      4.353      7.636
REMARK  5 active torsions:
REMARK  status: ('A' for Active; 'I' for Inactive)
REMARK    1  A    between atoms: C1_1  and  P1_2 
REMARK    2  A    between atoms: C1_1  and  C10_15 
REMARK    3  A    between atoms: P1_2  and  S1_3 
REMARK    4  A    between atoms: S1_3  and  C2_4 
REMARK    5  A    between atoms: C3_7  and  C4_8 
ROOT
HETATM    1  C2  UNL     1      24.142   1.066  52.752  1.00  0.00     0.229 C 
HETATM    2  N1  UNL     1      23.336   0.085  52.806  1.00  0.00    -0.143 NA
HETATM    3  N2  UNL     1      22.017   0.527  53.085  1.00  0.00    -0.278 N 
HETATM    4  C3  UNL     1      22.095   1.888  52.555  1.00  0.00     0.281 C 
HETATM    5  O1  UNL     1      23.415   2.234  52.990  1.00  0.00    -0.296 OA
HETATM    6  H2  UNL     1      21.163   0.088  53.533  1.00  0.00     0.185 HD
ENDROOT
BRANCH   1   7
HETATM    7  S1  UNL     1      25.809   0.470  52.398  1.00  0.00    -0.042 SA
BRANCH   7   8
HETATM    8  P1  UNL     1      26.257   2.596  50.881  1.00  0.00     0.017 P 
HETATM    9  H1  UNL     1      26.187   2.167  51.183  1.00  0.00     0.082 HD
BRANCH   8  10
HETATM   10  C1  UNL     1      26.459   3.674  50.118  1.00  0.00    -0.105 C 
BRANCH  10  11
HETATM   11  C10 UNL     1      26.641   4.770  49.339  1.00  0.00     0.010 A 
HETATM   12  C11 UNL     1      27.907   4.819  48.830  1.00  0.00     0.020 A 
HETATM   13  C12 UNL     1      28.099   5.966  48.096  1.00  0.00     0.001 A 
HETATM   14  C13 UNL     1      26.997   6.779  48.045  1.00  0.00     0.000 A 
HETATM   15  C14 UNL     1      25.734   6.697  48.571  1.00  0.00     0.001 A 
HETATM   16  C15 UNL     1      25.525   5.555  49.310  1.00  0.00     0.020 A 
ENDBRANCH  10  11
ENDBRANCH   8  10
ENDBRANCH   7   8
ENDBRANCH   1   7
BRANCH   4  17
HETATM   17  C4  UNL     1      22.071   1.781  51.083  1.00  0.00    -0.008 A 
HETATM   18  C5  UNL     1      21.461   0.814  50.286  1.00  0.00     0.011 A 
HETATM   19  C6  UNL     1      21.547   0.880  48.921  1.00  0.00     0.001 A 
HETATM   20  C7  UNL     1      22.226   1.880  48.260  1.00  0.00     0.000 A 
HETATM   21  C8  UNL     1      22.842   2.855  49.020  1.00  0.00     0.001 A 
HETATM   22  C9  UNL     1      22.753   2.786  50.392  1.00  0.00     0.011 A 
ENDBRANCH   4  17
TORSDOF 5
ENDMDL
MODEL 5
REMARK VINA RESULT:      -7.3      3.311      6.449
REMARK  5 active torsions:
REMARK  status: ('A' for Active; 'I' for Inactive)
REMARK    1  A    between atoms: C1_1  and  P1_2 
REMARK    2  A    between atoms: C1_1  and  C10_15 
REMARK    3  A    between atoms: P1_2  and  S1_3 
REMARK    4  A    between atoms: S1_3  and  C2_4 
REMARK    5  A    between atoms: C3_7  and  C4_8 
ROOT
HETATM    1  C2  UNL     1      23.507   5.186  50.326  1.00  0.00     0.229 C 
HETATM    2  N1  UNL     1      23.974   5.456  51.477  1.00  0.00    -0.143 NA
HETATM    3  N2  UNL     1      22.931   5.586  52.429  1.00  0.00    -0.278 N 
HETATM    4  C3  UNL     1      21.913   4.745  51.799  1.00  0.00     0.281 C 
HETATM    5  O1  UNL     1      22.117   5.117  50.431  1.00  0.00    -0.296 OA
HETATM    6  H2  UNL     1      22.820   6.106  53.346  1.00  0.00     0.185 HD
ENDROOT
BRANCH   1   7
HETATM    7  S1  UNL     1      24.858   5.029  49.139  1.00  0.00    -0.042 SA
BRANCH   7   8
HETATM    8  P1  UNL     1      25.961   3.136  50.630  1.00  0.00     0.017 P 
HETATM    9  H1  UNL     1      25.724   3.502  50.329  1.00  0.00     0.082 HD
BRANCH   8  10
HETATM   10  C1  UNL     1      26.536   2.196  51.385  1.00  0.00    -0.105 C 
BRANCH  10  11
HETATM   11  C10 UNL     1      27.120   1.256  52.170  1.00  0.00     0.010 A 
HETATM   12  C11 UNL     1      26.625   0.010  51.913  1.00  0.00     0.020 A 
HETATM   13  C12 UNL     1      27.177  -0.924  52.758  1.00  0.00     0.001 A 
HETATM   14  C13 UNL     1      28.079  -0.399  53.646  1.00  0.00     0.000 A 
HETATM   15  C14 UNL     1      28.555   0.865  53.877  1.00  0.00     0.001 A 
HETATM   16  C15 UNL     1      28.013   1.813  53.040  1.00  0.00     0.020 A 
ENDBRANCH  10  11
ENDBRANCH   8  10
ENDBRANCH   7   8
ENDBRANCH   1   7
BRANCH   4  17
HETATM   17  C4  UNL     1      22.328   3.342  51.998  1.00  0.00    -0.008 A 
HETATM   18  C5  UNL     1      23.106   2.797  53.017  1.00  0.00     0.011 A 
HETATM   19  C6  UNL     1      23.390   1.457  53.036  1.00  0.00     0.001 A 
HETATM   20  C7  UNL     1      22.939   0.581  52.074  1.00  0.00     0.000 A 
HETATM   21  C8  UNL     1      22.165   1.089  51.049  1.00  0.00     0.001 A 
HETATM   22  C9  UNL     1      21.881   2.437  51.033  1.00  0.00     0.011 A 
ENDBRANCH   4  17
TORSDOF 5
ENDMDL
MODEL 6
REMARK VINA RESULT:      -7.3      3.534      5.859
REMARK  5 active torsions:
REMARK  status: ('A' for Active; 'I' for Inactive)
REMARK    1  A    between atoms: C1_1  and  P1_2 
REMARK    2  A    between atoms: C1_1  and  C10_15 
REMARK    3  A    between atoms: P1_2  and  S1_3 
REMARK    4  A    between atoms: S1_3  and  C2_4 
REMARK    5  A    between atoms: C3_7  and  C4_8 
ROOT
HETATM    1  C2  UNL     1      24.753  -0.096  52.952  1.00  0.00     0.229 C 
HETATM    2  N1  UNL     1      25.049  -0.641  54.061  1.00  0.00    -0.143 NA
HETATM    3  N2  UNL     1      26.083  -1.596  53.896  1.00  0.00    -0.278 N 
HETATM    4  C3  UNL     1      26.734  -1.055  52.703  1.00  0.00     0.281 C 
HETATM    5  O1  UNL     1      25.574  -0.651  51.968  1.00  0.00    -0.296 OA
HETATM    6  H2  UNL     1      26.382  -2.469  54.419  1.00  0.00     0.185 HD
ENDROOT
BRANCH   1   7
HETATM    7  S1  UNL     1      23.434   1.112  53.195  1.00  0.00    -0.042 SA
BRANCH   7   8
HETATM    8  P1  UNL     1      24.670   2.804  51.571  1.00  0.00     0.017 P 
HETATM    9  H1  UNL     1      24.441   2.462  51.905  1.00  0.00     0.082 HD
BRANCH   8  10
HETATM   10  C1  UNL     1      25.271   3.660  50.741  1.00  0.00    -0.105 C 
BRANCH  10  11
HETATM   11  C10 UNL     1      25.861   4.537  49.890  1.00  0.00     0.010 A 
HETATM   12  C11 UNL     1      27.010   4.025  49.359  1.00  0.00     0.020 A 
HETATM   13  C12 UNL     1      27.632   4.945  48.549  1.00  0.00     0.001 A 
HETATM   14  C13 UNL     1      26.968   6.140  48.462  1.00  0.00     0.000 A 
HETATM   15  C14 UNL     1      25.809   6.623  49.012  1.00  0.00     0.001 A 
HETATM   16  C15 UNL     1      25.174   5.715  49.827  1.00  0.00     0.020 A 
ENDBRANCH  10  11
ENDBRANCH   8  10
ENDBRANCH   7   8
ENDBRANCH   1   7
BRANCH   4  17
HETATM   17  C4  UNL     1      27.492   0.139  53.128  1.00  0.00    -0.008 A 
HETATM   18  C5  UNL     1      27.533   1.403  52.543  1.00  0.00     0.011 A 
HETATM   19  C6  UNL     1      28.302   2.397  53.085  1.00  0.00     0.001 A 
HETATM   20  C7  UNL     1      29.068   2.220  54.216  1.00  0.00     0.000 A 
HETATM   21  C8  UNL     1      29.050   0.979  54.822  1.00  0.00     0.001 A 
HETATM   22  C9  UNL     1      28.275  -0.019  54.274  1.00  0.00     0.011 A 
ENDBRANCH   4  17
TORSDOF 5
ENDMDL
MODEL 7
REMARK VINA RESULT:      -7.3      8.229      9.739
REMARK  5 active torsions:
REMARK  status: ('A' for Active; 'I' for Inactive)
REMARK    1  A    between atoms: C1_1  and  P1_2 
REMARK    2  A    between atoms: C1_1  and  C10_15 
REMARK    3  A    between atoms: P1_2  and  S1_3 
REMARK    4  A    between atoms: S1_3  and  C2_4 
REMARK    5  A    between atoms: C3_7  and  C4_8 
ROOT
HETATM    1  C2  UNL     1      33.147   7.911  47.310  1.00  0.00     0.229 C 
HETATM    2  N1  UNL     1      34.279   7.664  46.789  1.00  0.00    -0.143 NA
HETATM    3  N2  UNL     1      35.152   7.067  47.735  1.00  0.00    -0.278 N 
HETATM    4  C3  UNL     1      34.169   6.453  48.627  1.00  0.00     0.281 C 
HETATM    5  O1  UNL     1      33.186   7.494  48.642  1.00  0.00    -0.296 OA
HETATM    6  H2  UNL     1      36.205   7.018  47.850  1.00  0.00     0.185 HD
ENDROOT
BRANCH   1   7
HETATM    7  S1  UNL     1      32.062   8.671  46.084  1.00  0.00    -0.042 SA
BRANCH   7   8
HETATM    8  P1  UNL     1      29.972   7.445  47.159  1.00  0.00     0.017 P 
HETATM    9  H1  UNL     1      30.400   7.686  46.961  1.00  0.00     0.082 HD
BRANCH   8  10
HETATM   10  C1  UNL     1      28.906   6.832  47.681  1.00  0.00    -0.105 C 
BRANCH  10  11
HETATM   11  C10 UNL     1      27.816   6.230  48.221  1.00  0.00     0.010 A 
HETATM   12  C11 UNL     1      28.090   4.949  48.604  1.00  0.00     0.020 A 
HETATM   13  C12 UNL     1      26.964   4.328  49.090  1.00  0.00     0.001 A 
HETATM   14  C13 UNL     1      25.848   5.123  49.078  1.00  0.00     0.000 A 
HETATM   15  C14 UNL     1      25.608   6.413  48.685  1.00  0.00     0.001 A 
HETATM   16  C15 UNL     1      26.725   7.049  48.194  1.00  0.00     0.020 A 
ENDBRANCH  10  11
ENDBRANCH   8  10
ENDBRANCH   7   8
ENDBRANCH   1   7
BRANCH   4  17
HETATM   17  C4  UNL     1      33.629   5.271  47.928  1.00  0.00    -0.008 A 
HETATM   18  C5  UNL     1      32.311   4.822  47.859  1.00  0.00     0.011 A 
HETATM   19  C6  UNL     1      31.996   3.691  47.154  1.00  0.00     0.001 A 
HETATM   20  C7  UNL     1      32.936   2.939  46.483  1.00  0.00     0.000 A 
HETATM   21  C8  UNL     1      34.251   3.357  46.531  1.00  0.00     0.001 A 
HETATM   22  C9  UNL     1      34.565   4.495  47.240  1.00  0.00     0.011 A 
ENDBRANCH   4  17
TORSDOF 5
ENDMDL
MODEL 8
REMARK VINA RESULT:      -7.2      4.852      6.220
REMARK  5 active torsions:
REMARK  status: ('A' for Active; 'I' for Inactive)
REMARK    1  A    between atoms: C1_1  and  P1_2 
REMARK    2  A    between atoms: C1_1  and  C10_15 
REMARK    3  A    between atoms: P1_2  and  S1_3 
REMARK    4  A    between atoms: S1_3  and  C2_4 
REMARK    5  A    between atoms: C3_7  and  C4_8 
ROOT
HETATM    1  C2  UNL     1      22.687   4.295  48.628  1.00  0.00     0.229 C 
HETATM    2  N1  UNL     1      22.875   5.165  47.722  1.00  0.00    -0.143 NA
HETATM    3  N2  UNL     1      23.153   6.435  48.289  1.00  0.00    -0.278 N 
HETATM    4  C3  UNL     1      23.708   6.017  49.576  1.00  0.00     0.281 C 
HETATM    5  O1  UNL     1      22.827   4.925  49.866  1.00  0.00    -0.296 OA
HETATM    6  H2  UNL     1      23.035   7.438  47.965  1.00  0.00     0.185 HD
ENDROOT
BRANCH   1   7
HETATM    7  S1  UNL     1      22.334   2.693  47.875  1.00  0.00    -0.042 SA
BRANCH   7   8
HETATM    8  P1  UNL     1      22.174   1.587  50.278  1.00  0.00     0.017 P 
HETATM    9  H1  UNL     1      22.214   1.791  49.792  1.00  0.00     0.082 HD
BRANCH   8  10
HETATM   10  C1  UNL     1      22.083   1.051  51.499  1.00  0.00    -0.105 C 
BRANCH  10  11
HETATM   11  C10 UNL     1      22.011   0.495  52.735  1.00  0.00     0.010 A 
HETATM   12  C11 UNL     1      23.129  -0.235  53.021  1.00  0.00     0.020 A 
HETATM   13  C12 UNL     1      23.017  -0.845  54.248  1.00  0.00     0.001 A 
HETATM   14  C13 UNL     1      21.834  -0.585  54.888  1.00  0.00     0.000 A 
HETATM   15  C14 UNL     1      20.727   0.158  54.568  1.00  0.00     0.001 A 
HETATM   16  C15 UNL     1      20.822   0.775  53.342  1.00  0.00     0.020 A 
ENDBRANCH  10  11
ENDBRANCH   8  10
ENDBRANCH   7   8
ENDBRANCH   1   7
BRANCH   4  17
HETATM   17  C4  UNL     1      25.066   5.501  49.313  1.00  0.00    -0.008 A 
HETATM   18  C5  UNL     1      25.597   4.247  49.608  1.00  0.00     0.011 A 
HETATM   19  C6  UNL     1      26.893   3.945  49.285  1.00  0.00     0.001 A 
HETATM   20  C7  UNL     1      27.738   4.838  48.664  1.00  0.00     0.000 A 
HETATM   21  C8  UNL     1      27.244   6.091  48.357  1.00  0.00     0.001 A 
HETATM   22  C9  UNL     1      25.939   6.390  48.683  1.00  0.00     0.011 A 
ENDBRANCH   4  17
TORSDOF 5
ENDMDL
MODEL 9
REMARK VINA RESULT:      -7.1      3.453      4.716
REMARK  5 active torsions:
REMARK  status: ('A' for Active; 'I' for Inactive)
REMARK    1  A    between atoms: C1_1  and  P1_2 
REMARK    2  A    between atoms: C1_1  and  C10_15 
REMARK    3  A    between atoms: P1_2  and  S1_3 
REMARK    4  A    between atoms: S1_3  and  C2_4 
REMARK    5  A    between atoms: C3_7  and  C4_8 
ROOT
HETATM    1  C2  UNL     1      23.130   3.290  50.382  1.00  0.00     0.229 C 
HETATM    2  N1  UNL     1      24.396   3.402  50.390  1.00  0.00    -0.143 NA
HETATM    3  N2  UNL     1      24.844   3.988  51.601  1.00  0.00    -0.278 N 
HETATM    4  C3  UNL     1      23.745   3.603  52.486  1.00  0.00     0.281 C 
HETATM    5  O1  UNL     1      22.645   3.795  51.589  1.00  0.00    -0.296 OA
HETATM    6  H2  UNL     1      25.696   4.551  51.886  1.00  0.00     0.185 HD
ENDROOT
BRANCH   1   7
HETATM    7  S1  UNL     1      22.592   2.543  48.829  1.00  0.00    -0.042 SA
BRANCH   7   8
HETATM    8  P1  UNL     1      20.641   1.279  50.102  1.00  0.00     0.017 P 
HETATM    9  H1  UNL     1      21.043   1.528  49.863  1.00  0.00     0.082 HD
BRANCH   8  10
HETATM   10  C1  UNL     1      19.642   0.647  50.724  1.00  0.00    -0.105 C 
BRANCH  10  11
HETATM   11  C10 UNL     1      18.630   0.019  51.375  1.00  0.00     0.010 A 
HETATM   12  C11 UNL     1      19.028  -0.437  52.599  1.00  0.00     0.020 A 
HETATM   13  C12 UNL     1      18.015  -1.126  53.221  1.00  0.00     0.001 A 
HETATM   14  C13 UNL     1      16.861  -1.194  52.485  1.00  0.00     0.000 A 
HETATM   15  C14 UNL     1      16.494  -0.720  51.253  1.00  0.00     0.001 A 
HETATM   16  C15 UNL     1      17.498  -0.028  50.615  1.00  0.00     0.020 A 
ENDBRANCH  10  11
ENDBRANCH   8  10
ENDBRANCH   7   8
ENDBRANCH   1   7
BRANCH   4  17
HETATM   17  C4  UNL     1      23.905   2.164  52.772  1.00  0.00    -0.008 A 
HETATM   18  C5  UNL     1      25.072   1.402  52.803  1.00  0.00     0.011 A 
HETATM   19  C6  UNL     1      25.024   0.065  53.092  1.00  0.00     0.001 A 
HETATM   20  C7  UNL     1      23.850  -0.602  53.363  1.00  0.00     0.000 A 
HETATM   21  C8  UNL     1      22.674   0.123  53.341  1.00  0.00     0.001 A 
HETATM   22  C9  UNL     1      22.726   1.468  53.051  1.00  0.00     0.011 A 
ENDBRANCH   4  17
TORSDOF 5
ENDMDL
