MODEL 1
REMARK VINA RESULT:      -9.1      0.000      0.000
REMARK  3 active torsions:
REMARK  status: ('A' for Active; 'I' for Inactive)
REMARK    1  A    between atoms: C8_13  and  C9_14 
REMARK    2  A    between atoms: C9_14  and  N6_15 
REMARK    3  A    between atoms: C12_18  and  N7_19 
ROOT
HETATM    1  C1  UNL     1      21.253   7.336  50.321  1.00  0.00     0.150 C 
HETATM    2  N1  UNL     1      22.345   6.461  50.693  1.00  0.00    -0.376 N 
HETATM    3  C2  UNL     1      22.138   5.271  51.418  1.00  0.00     0.088 C 
HETATM    4  C3  UNL     1      21.978   4.316  52.293  1.00  0.00     0.036 C 
HETATM    5  C4  UNL     1      21.735   2.950  52.662  1.00  0.00     0.120 C 
HETATM    6  N2  UNL     1      21.540   1.885  51.940  1.00  0.00    -0.239 NA
HETATM    7  C5  UNL     1      21.331   0.668  52.686  1.00  0.00     0.179 A 
HETATM    8  N3  UNL     1      20.241   0.102  52.978  1.00  0.00    -0.218 NA
HETATM    9  C6  UNL     1      20.128  -1.117  53.742  1.00  0.00     0.257 A 
HETATM   10  N4  UNL     1      21.249  -1.664  54.159  1.00  0.00    -0.167 NA
HETATM   11  N5  UNL     1      22.456  -0.983  53.804  1.00  0.00    -0.273 N 
HETATM   12  C7  UNL     1      22.659   0.213  53.058  1.00  0.00     0.102 A 
HETATM   13  C8  UNL     1      23.968   0.325  52.962  1.00  0.00    -0.015 C 
HETATM   14  C15 UNL     1      24.064   1.381  51.911  1.00  0.00     0.055 C 
HETATM   15  C16 UNL     1      24.912   2.171  51.158  1.00  0.00    -0.014 C 
HETATM   16  C17 UNL     1      24.255   3.090  50.196  1.00  0.00     0.047 C 
HETATM   17  C18 UNL     1      24.583   4.486  50.573  1.00  0.00     0.085 C 
HETATM   18  N8  UNL     1      24.632   5.734  50.764  1.00  0.00    -0.286 NA
HETATM   19  C19 UNL     1      23.735   6.742  50.352  1.00  0.00     0.271 C 
HETATM   20  H8  UNL     1      23.130  -1.669  54.271  1.00  0.00     0.189 HD
ENDROOT
BRANCH  13  21
HETATM   21  C9  UNL     1      25.090  -0.414  53.586  1.00  0.00     0.309 C 
BRANCH  21  22
HETATM   22  N6  UNL     1      26.344   0.303  53.498  1.00  0.00     0.092 N 
HETATM   23  C10 UNL     1      26.885   0.206  54.852  1.00  0.00     0.275 C 
HETATM   24  C11 UNL     1      28.347   0.562  54.915  1.00  0.00     0.065 C 
HETATM   25  C12 UNL     1      29.194  -0.392  54.093  1.00  0.00     0.221 C 
HETATM   26  C13 UNL     1      28.271  -1.200  53.197  1.00  0.00     0.065 C 
HETATM   27  C14 UNL     1      27.246  -0.277  52.533  1.00  0.00     0.275 C 
BRANCH  25  28
HETATM   28  N7  UNL     1      30.140   0.383  53.354  1.00  0.00     0.083 N 
HETATM   29  H16 UNL     1      31.084  -0.079  53.249  1.00  0.00     0.313 HD
HETATM   30  H17 UNL     1      29.748   0.628  52.418  1.00  0.00     0.313 HD
ENDBRANCH  25  28
ENDBRANCH  21  22
ENDBRANCH  13  21
TORSDOF 3
ENDMDL
MODEL 2
REMARK VINA RESULT:      -8.8      1.696      5.601
REMARK  3 active torsions:
REMARK  status: ('A' for Active; 'I' for Inactive)
REMARK    1  A    between atoms: C8_13  and  C9_14 
REMARK    2  A    between atoms: C9_14  and  N6_15 
REMARK    3  A    between atoms: C12_18  and  N7_19 
ROOT
HETATM    1  C1  UNL     1      26.411   6.631  48.260  1.00  0.00     0.150 C 
HETATM    2  N1  UNL     1      25.502   5.741  48.953  1.00  0.00    -0.376 N 
HETATM    3  C2  UNL     1      25.947   4.572  49.600  1.00  0.00     0.088 C 
HETATM    4  C3  UNL     1      26.317   3.378  49.975  1.00  0.00     0.036 C 
HETATM    5  C4  UNL     1      26.802   2.437  50.946  1.00  0.00     0.120 C 
HETATM    6  N2  UNL     1      27.120   2.581  52.199  1.00  0.00    -0.239 NA
HETATM    7  C5  UNL     1      27.572   1.380  52.858  1.00  0.00     0.179 A 
HETATM    8  N3  UNL     1      28.757   1.006  53.083  1.00  0.00    -0.218 NA
HETATM    9  C6  UNL     1      29.117  -0.225  53.747  1.00  0.00     0.257 A 
HETATM   10  N4  UNL     1      28.129  -1.001  54.137  1.00  0.00    -0.167 NA
HETATM   11  N5  UNL     1      26.807  -0.532  53.857  1.00  0.00    -0.273 N 
HETATM   12  C7  UNL     1      26.363   0.659  53.215  1.00  0.00     0.102 A 
HETATM   13  C8  UNL     1      25.050   0.617  53.309  1.00  0.00    -0.015 C 
HETATM   14  C15 UNL     1      24.716   2.021  52.926  1.00  0.00     0.055 C 
HETATM   15  C16 UNL     1      23.703   2.937  52.709  1.00  0.00    -0.014 C 
HETATM   16  C17 UNL     1      24.138   4.300  52.318  1.00  0.00     0.047 C 
HETATM   17  C18 UNL     1      23.612   4.595  50.963  1.00  0.00     0.085 C 
HETATM   18  N8  UNL     1      23.373   5.020  49.797  1.00  0.00    -0.286 NA
HETATM   19  C19 UNL     1      24.066   5.981  49.032  1.00  0.00     0.271 C 
HETATM   20  H8  UNL     1      26.285  -1.357  54.293  1.00  0.00     0.189 HD
ENDROOT
BRANCH  13  21
HETATM   21  C9  UNL     1      24.107  -0.430  53.764  1.00  0.00     0.309 C 
BRANCH  21  22
HETATM   22  N6  UNL     1      22.737   0.035  53.798  1.00  0.00     0.092 N 
HETATM   23  C10 UNL     1      22.221  -0.333  52.481  1.00  0.00     0.275 C 
HETATM   24  C11 UNL     1      20.718  -0.278  52.415  1.00  0.00     0.065 C 
HETATM   25  C12 UNL     1      20.077  -1.270  53.369  1.00  0.00     0.221 C 
HETATM   26  C13 UNL     1      21.143  -1.765  54.332  1.00  0.00     0.065 C 
HETATM   27  C14 UNL     1      21.969  -0.585  54.850  1.00  0.00     0.275 C 
BRANCH  25  28
HETATM   28  N7  UNL     1      19.000  -0.608  54.034  1.00  0.00     0.083 N 
HETATM   29  H16 UNL     1      19.289   0.262  54.560  1.00  0.00     0.313 HD
HETATM   30  H17 UNL     1      18.241  -0.385  53.352  1.00  0.00     0.313 HD
ENDBRANCH  25  28
ENDBRANCH  21  22
ENDBRANCH  13  21
TORSDOF 3
ENDMDL
MODEL 3
REMARK VINA RESULT:      -8.7      1.857      5.441
REMARK  3 active torsions:
REMARK  status: ('A' for Active; 'I' for Inactive)
REMARK    1  A    between atoms: C8_13  and  C9_14 
REMARK    2  A    between atoms: C9_14  and  N6_15 
REMARK    3  A    between atoms: C12_18  and  N7_19 
ROOT
HETATM    1  C1  UNL     1      16.365  -0.490  52.727  1.00  0.00     0.150 C 
HETATM    2  N1  UNL     1      17.756  -0.855  52.897  1.00  0.00    -0.376 N 
HETATM    3  C2  UNL     1      18.798  -0.145  52.270  1.00  0.00     0.088 C 
HETATM    4  C3  UNL     1      19.730   0.347  51.500  1.00  0.00     0.036 C 
HETATM    5  C4  UNL     1      20.779   1.281  51.201  1.00  0.00     0.120 C 
HETATM    6  N2  UNL     1      21.277   2.265  51.892  1.00  0.00    -0.239 NA
HETATM    7  C5  UNL     1      22.346   2.987  51.247  1.00  0.00     0.179 A 
HETATM    8  N3  UNL     1      22.287   4.077  50.612  1.00  0.00    -0.218 NA
HETATM    9  C6  UNL     1      23.416   4.726  49.988  1.00  0.00     0.257 A 
HETATM   10  N4  UNL     1      24.581   4.125  50.095  1.00  0.00    -0.167 NA
HETATM   11  N5  UNL     1      24.594   2.893  50.822  1.00  0.00    -0.273 N 
HETATM   12  C7  UNL     1      23.538   2.187  51.467  1.00  0.00     0.102 A 
HETATM   13  C8  UNL     1      24.130   1.167  52.051  1.00  0.00    -0.015 C 
HETATM   14  C15 UNL     1      23.030   0.704  52.948  1.00  0.00     0.055 C 
HETATM   15  C16 UNL     1      22.638  -0.229  53.890  1.00  0.00    -0.014 C 
HETATM   16  C17 UNL     1      21.264  -0.068  54.426  1.00  0.00     0.047 C 
HETATM   17  C18 UNL     1      20.472  -1.270  54.070  1.00  0.00     0.085 C 
HETATM   18  N8  UNL     1      19.586  -2.127  53.792  1.00  0.00    -0.286 NA
HETATM   19  C19 UNL     1      18.184  -1.979  53.722  1.00  0.00     0.271 C 
HETATM   20  H8  UNL     1      25.640   2.698  50.723  1.00  0.00     0.189 HD
ENDROOT
BRANCH  13  21
HETATM   21  C9  UNL     1      25.511   0.633  51.989  1.00  0.00     0.309 C 
BRANCH  21  22
HETATM   22  N6  UNL     1      26.221   0.785  53.240  1.00  0.00     0.092 N 
HETATM   23  C10 UNL     1      27.226  -0.275  53.190  1.00  0.00     0.275 C 
HETATM   24  C11 UNL     1      28.314  -0.087  54.214  1.00  0.00     0.065 C 
HETATM   25  C12 UNL     1      29.094   1.194  53.975  1.00  0.00     0.221 C 
HETATM   26  C13 UNL     1      28.319   2.049  52.987  1.00  0.00     0.065 C 
HETATM   27  C14 UNL     1      26.838   2.082  53.372  1.00  0.00     0.275 C 
BRANCH  25  28
HETATM   28  N7  UNL     1      29.277   1.839  55.236  1.00  0.00     0.083 N 
HETATM   29  H16 UNL     1      29.995   1.374  55.856  1.00  0.00     0.313 HD
HETATM   30  H17 UNL     1      29.518   2.845  55.092  1.00  0.00     0.313 HD
ENDBRANCH  25  28
ENDBRANCH  21  22
ENDBRANCH  13  21
TORSDOF 3
ENDMDL
MODEL 4
REMARK VINA RESULT:      -8.6      1.950      6.503
REMARK  3 active torsions:
REMARK  status: ('A' for Active; 'I' for Inactive)
REMARK    1  A    between atoms: C8_13  and  C9_14 
REMARK    2  A    between atoms: C9_14  and  N6_15 
REMARK    3  A    between atoms: C12_18  and  N7_19 
ROOT
HETATM    1  C1  UNL     1      17.810  -2.496  53.651  1.00  0.00     0.150 C 
HETATM    2  N1  UNL     1      18.426  -1.319  53.076  1.00  0.00    -0.376 N 
HETATM    3  C2  UNL     1      19.700  -0.870  53.475  1.00  0.00     0.088 C 
HETATM    4  C3  UNL     1      20.752  -0.320  54.016  1.00  0.00     0.036 C 
HETATM    5  C4  UNL     1      22.168  -0.102  54.123  1.00  0.00     0.120 C 
HETATM    6  N2  UNL     1      23.166  -0.577  53.436  1.00  0.00    -0.239 NA
HETATM    7  C5  UNL     1      24.468  -0.113  53.846  1.00  0.00     0.179 A 
HETATM    8  N3  UNL     1      25.310  -0.690  54.588  1.00  0.00    -0.218 NA
HETATM    9  C6  UNL     1      26.595  -0.142  54.954  1.00  0.00     0.257 A 
HETATM   10  N4  UNL     1      26.892   1.046  54.474  1.00  0.00    -0.167 NA
HETATM   11  N5  UNL     1      25.904   1.658  53.640  1.00  0.00    -0.273 N 
HETATM   12  C7  UNL     1      24.623   1.193  53.229  1.00  0.00     0.102 A 
HETATM   13  C8  UNL     1      24.185   2.118  52.399  1.00  0.00    -0.015 C 
HETATM   14  C15 UNL     1      23.033   1.394  51.786  1.00  0.00     0.055 C 
HETATM   15  C16 UNL     1      21.985   1.466  50.887  1.00  0.00    -0.014 C 
HETATM   16  C17 UNL     1      21.158   0.241  50.759  1.00  0.00     0.047 C 
HETATM   17  C18 UNL     1      19.772   0.559  51.181  1.00  0.00     0.085 C 
HETATM   18  N8  UNL     1      18.577   0.563  51.591  1.00  0.00    -0.286 NA
HETATM   19  C19 UNL     1      17.780  -0.508  52.049  1.00  0.00     0.271 C 
HETATM   20  H8  UNL     1      26.450   2.554  53.434  1.00  0.00     0.189 HD
ENDROOT
BRANCH  13  21
HETATM   21  C9  UNL     1      24.691   3.461  52.032  1.00  0.00     0.309 C 
BRANCH  21  22
HETATM   22  N6  UNL     1      23.952   4.051  50.937  1.00  0.00     0.092 N 
HETATM   23  C10 UNL     1      23.776   5.439  51.356  1.00  0.00     0.275 C 
HETATM   24  C11 UNL     1      23.354   6.335  50.222  1.00  0.00     0.065 C 
HETATM   25  C12 UNL     1      24.408   6.394  49.131  1.00  0.00     0.221 C 
HETATM   26  C13 UNL     1      25.404   5.272  49.367  1.00  0.00     0.065 C 
HETATM   27  C14 UNL     1      24.662   3.971  49.684  1.00  0.00     0.275 C 
BRANCH  25  28
HETATM   28  N7  UNL     1      23.744   6.285  47.871  1.00  0.00     0.083 N 
HETATM   29  H16 UNL     1      24.230   5.646  47.183  1.00  0.00     0.313 HD
HETATM   30  H17 UNL     1      22.755   5.981  48.012  1.00  0.00     0.313 HD
ENDBRANCH  25  28
ENDBRANCH  21  22
ENDBRANCH  13  21
TORSDOF 3
ENDMDL
MODEL 5
REMARK VINA RESULT:      -8.3      2.146      6.582
REMARK  3 active torsions:
REMARK  status: ('A' for Active; 'I' for Inactive)
REMARK    1  A    between atoms: C8_13  and  C9_14 
REMARK    2  A    between atoms: C9_14  and  N6_15 
REMARK    3  A    between atoms: C12_18  and  N7_19 
ROOT
HETATM    1  C1  UNL     1      29.669  -1.286  54.147  1.00  0.00     0.150 C 
HETATM    2  N1  UNL     1      28.809  -0.278  53.563  1.00  0.00    -0.376 N 
HETATM    3  C2  UNL     1      27.427  -0.487  53.381  1.00  0.00     0.088 C 
HETATM    4  C3  UNL     1      26.216  -0.772  52.986  1.00  0.00     0.036 C 
HETATM    5  C4  UNL     1      24.793  -0.823  53.168  1.00  0.00     0.120 C 
HETATM    6  N2  UNL     1      24.037  -0.445  54.158  1.00  0.00    -0.239 NA
HETATM    7  C5  UNL     1      22.624  -0.658  53.966  1.00  0.00     0.179 A 
HETATM    8  N3  UNL     1      21.907  -1.606  54.392  1.00  0.00    -0.218 NA
HETATM    9  C6  UNL     1      20.492  -1.742  54.142  1.00  0.00     0.257 A 
HETATM   10  N4  UNL     1      19.924  -0.805  53.415  1.00  0.00    -0.167 NA
HETATM   11  N5  UNL     1      20.780   0.246  52.956  1.00  0.00    -0.273 N 
HETATM   12  C7  UNL     1      22.173   0.459  53.155  1.00  0.00     0.102 A 
HETATM   13  C8  UNL     1      22.415   1.622  52.587  1.00  0.00    -0.015 C 
HETATM   14  C15 UNL     1      23.777   1.901  53.132  1.00  0.00     0.055 C 
HETATM   15  C16 UNL     1      24.846   2.778  53.145  1.00  0.00    -0.014 C 
HETATM   16  C17 UNL     1      25.989   2.389  54.008  1.00  0.00     0.047 C 
HETATM   17  C18 UNL     1      27.184   2.196  53.152  1.00  0.00     0.085 C 
HETATM   18  N8  UNL     1      28.286   1.870  52.625  1.00  0.00    -0.286 NA
HETATM   19  C19 UNL     1      29.300   1.020  53.116  1.00  0.00     0.271 C 
HETATM   20  H8  UNL     1      20.029   0.802  52.435  1.00  0.00     0.189 HD
ENDROOT
BRANCH  13  21
HETATM   21  C9  UNL     1      21.595   2.519  51.740  1.00  0.00     0.309 C 
BRANCH  21  22
HETATM   22  N6  UNL     1      22.189   2.752  50.442  1.00  0.00     0.092 N 
HETATM   23  C10 UNL     1      21.855   1.542  49.694  1.00  0.00     0.275 C 
HETATM   24  C11 UNL     1      22.052   1.708  48.210  1.00  0.00     0.065 C 
HETATM   25  C12 UNL     1      21.140   2.778  47.638  1.00  0.00     0.221 C 
HETATM   26  C13 UNL     1      20.559   3.577  48.791  1.00  0.00     0.065 C 
HETATM   27  C14 UNL     1      21.661   3.928  49.794  1.00  0.00     0.275 C 
BRANCH  25  28
HETATM   28  N7  UNL     1      21.911   3.583  46.744  1.00  0.00     0.083 N 
HETATM   29  H16 UNL     1      22.837   3.899  47.143  1.00  0.00     0.313 HD
HETATM   30  H17 UNL     1      22.057   3.077  45.843  1.00  0.00     0.313 HD
ENDBRANCH  25  28
ENDBRANCH  21  22
ENDBRANCH  13  21
TORSDOF 3
ENDMDL
MODEL 6
REMARK VINA RESULT:      -8.1      2.351      8.747
REMARK  3 active torsions:
REMARK  status: ('A' for Active; 'I' for Inactive)
REMARK    1  A    between atoms: C8_13  and  C9_14 
REMARK    2  A    between atoms: C9_14  and  N6_15 
REMARK    3  A    between atoms: C12_18  and  N7_19 
ROOT
HETATM    1  C1  UNL     1      26.786  -1.875  52.711  1.00  0.00     0.150 C 
HETATM    2  N1  UNL     1      25.905  -0.726  52.759  1.00  0.00    -0.376 N 
HETATM    3  C2  UNL     1      26.278   0.526  52.233  1.00  0.00     0.088 C 
HETATM    4  C3  UNL     1      26.715   1.729  51.979  1.00  0.00     0.036 C 
HETATM    5  C4  UNL     1      26.924   2.855  51.112  1.00  0.00     0.120 C 
HETATM    6  N2  UNL     1      26.603   3.054  49.867  1.00  0.00    -0.239 NA
HETATM    7  C5  UNL     1      26.985   4.339  49.333  1.00  0.00     0.179 A 
HETATM    8  N3  UNL     1      27.994   4.631  48.634  1.00  0.00    -0.218 NA
HETATM    9  C6  UNL     1      28.302   5.955  48.148  1.00  0.00     0.257 A 
HETATM   10  N4  UNL     1      27.462   6.915  48.468  1.00  0.00    -0.167 NA
HETATM   11  N5  UNL     1      26.335   6.533  49.263  1.00  0.00    -0.273 N 
HETATM   12  C7  UNL     1      25.956   5.261  49.779  1.00  0.00     0.102 A 
HETATM   13  C8  UNL     1      24.792   5.473  50.359  1.00  0.00    -0.015 C 
HETATM   14  C15 UNL     1      24.339   4.065  50.559  1.00  0.00     0.055 C 
HETATM   15  C16 UNL     1      23.345   3.243  51.056  1.00  0.00    -0.014 C 
HETATM   16  C17 UNL     1      23.569   1.786  50.890  1.00  0.00     0.047 C 
HETATM   17  C18 UNL     1      23.651   1.163  52.234  1.00  0.00     0.085 C 
HETATM   18  N8  UNL     1      23.865   0.442  53.249  1.00  0.00    -0.286 NA
HETATM   19  C19 UNL     1      24.574  -0.773  53.355  1.00  0.00     0.271 C 
HETATM   20  H8  UNL     1      25.888   7.502  49.323  1.00  0.00     0.189 HD
ENDROOT
BRANCH  13  21
HETATM   21  C9  UNL     1      24.026   6.705  50.657  1.00  0.00     0.309 C 
BRANCH  21  22
HETATM   22  N6  UNL     1      22.827   6.821  49.855  1.00  0.00     0.092 N 
HETATM   23  C10 UNL     1      21.861   7.420  50.774  1.00  0.00     0.275 C 
HETATM   24  C11 UNL     1      20.653   7.969  50.062  1.00  0.00     0.065 C 
HETATM   25  C12 UNL     1      21.024   9.090  49.108  1.00  0.00     0.221 C 
HETATM   26  C13 UNL     1      22.531   9.079  48.920  1.00  0.00     0.065 C 
HETATM   27  C14 UNL     1      23.020   7.647  48.689  1.00  0.00     0.275 C 
BRANCH  25  28
HETATM   28  N7  UNL     1      20.315   8.881  47.886  1.00  0.00     0.083 N 
HETATM   29  H16 UNL     1      20.740   8.140  47.264  1.00  0.00     0.313 HD
HETATM   30  H17 UNL     1      19.315   8.658  48.086  1.00  0.00     0.313 HD
ENDBRANCH  25  28
ENDBRANCH  21  22
ENDBRANCH  13  21
TORSDOF 3
ENDMDL
MODEL 7
REMARK VINA RESULT:      -7.9      2.703      6.870
REMARK  3 active torsions:
REMARK  status: ('A' for Active; 'I' for Inactive)
REMARK    1  A    between atoms: C8_13  and  C9_14 
REMARK    2  A    between atoms: C9_14  and  N6_15 
REMARK    3  A    between atoms: C12_18  and  N7_19 
ROOT
HETATM    1  C1  UNL     1      27.938   0.242  55.080  1.00  0.00     0.150 C 
HETATM    2  N1  UNL     1      27.295   0.660  53.851  1.00  0.00    -0.376 N 
HETATM    3  C2  UNL     1      25.977   0.282  53.530  1.00  0.00     0.088 C 
HETATM    4  C3  UNL     1      24.866  -0.268  53.123  1.00  0.00     0.036 C 
HETATM    5  C4  UNL     1      23.437  -0.311  52.987  1.00  0.00     0.120 C 
HETATM    6  N2  UNL     1      22.509   0.511  53.385  1.00  0.00    -0.239 NA
HETATM    7  C5  UNL     1      21.161   0.122  53.052  1.00  0.00     0.179 A 
HETATM    8  N3  UNL     1      20.308  -0.457  53.780  1.00  0.00    -0.218 NA
HETATM    9  C6  UNL     1      18.976  -0.819  53.355  1.00  0.00     0.257 A 
HETATM   10  N4  UNL     1      18.644  -0.518  52.119  1.00  0.00    -0.167 NA
HETATM   11  N5  UNL     1      19.647   0.136  51.335  1.00  0.00    -0.273 N 
HETATM   12  C7  UNL     1      20.974   0.528  51.670  1.00  0.00     0.102 A 
HETATM   13  C8  UNL     1      21.411   1.165  50.603  1.00  0.00    -0.015 C 
HETATM   14  C15 UNL     1      22.636   1.807  51.165  1.00  0.00     0.055 C 
HETATM   15  C16 UNL     1      23.731   2.608  50.900  1.00  0.00    -0.014 C 
HETATM   16  C17 UNL     1      24.629   2.875  52.050  1.00  0.00     0.047 C 
HETATM   17  C18 UNL     1      25.967   2.314  51.747  1.00  0.00     0.085 C 
HETATM   18  N8  UNL     1      27.134   1.828  51.759  1.00  0.00    -0.286 NA
HETATM   19  C19 UNL     1      27.957   1.495  52.855  1.00  0.00     0.271 C 
HETATM   20  H8  UNL     1      19.067   0.232  50.442  1.00  0.00     0.189 HD
ENDROOT
BRANCH  13  21
HETATM   21  C9  UNL     1      20.857   1.344  49.241  1.00  0.00     0.309 C 
BRANCH  21  22
HETATM   22  N6  UNL     1      21.018   2.696  48.750  1.00  0.00     0.092 N 
HETATM   23  C10 UNL     1      21.839   2.526  47.553  1.00  0.00     0.275 C 
HETATM   24  C11 UNL     1      21.834   3.748  46.673  1.00  0.00     0.065 C 
HETATM   25  C12 UNL     1      20.444   4.055  46.146  1.00  0.00     0.221 C 
HETATM   26  C13 UNL     1      19.440   3.237  46.939  1.00  0.00     0.065 C 
HETATM   27  C14 UNL     1      19.758   3.323  48.434  1.00  0.00     0.275 C 
BRANCH  25  28
HETATM   28  N7  UNL     1      20.227   5.462  46.269  1.00  0.00     0.083 N 
HETATM   29  H16 UNL     1      21.108   6.040  46.194  1.00  0.00     0.313 HD
HETATM   30  H17 UNL     1      19.524   5.778  45.564  1.00  0.00     0.313 HD
ENDBRANCH  25  28
ENDBRANCH  21  22
ENDBRANCH  13  21
TORSDOF 3
ENDMDL
MODEL 8
REMARK VINA RESULT:      -7.8      2.188      7.435
REMARK  3 active torsions:
REMARK  status: ('A' for Active; 'I' for Inactive)
REMARK    1  A    between atoms: C8_13  and  C9_14 
REMARK    2  A    between atoms: C9_14  and  N6_15 
REMARK    3  A    between atoms: C12_18  and  N7_19 
ROOT
HETATM    1  C1  UNL     1      29.403   1.119  53.849  1.00  0.00     0.150 C 
HETATM    2  N1  UNL     1      28.023   0.819  54.164  1.00  0.00    -0.376 N 
HETATM    3  C2  UNL     1      26.950   1.439  53.495  1.00  0.00     0.088 C 
HETATM    4  C3  UNL     1      25.974   2.187  53.058  1.00  0.00     0.036 C 
HETATM    5  C4  UNL     1      24.921   2.502  52.133  1.00  0.00     0.120 C 
HETATM    6  N2  UNL     1      24.489   1.878  51.076  1.00  0.00    -0.239 NA
HETATM    7  C5  UNL     1      23.388   2.515  50.395  1.00  0.00     0.179 A 
HETATM    8  N3  UNL     1      23.419   3.256  49.373  1.00  0.00    -0.218 NA
HETATM    9  C6  UNL     1      22.260   3.861  48.762  1.00  0.00     0.257 A 
HETATM   10  N4  UNL     1      21.096   3.616  49.323  1.00  0.00    -0.167 NA
HETATM   11  N5  UNL     1      21.115   2.772  50.479  1.00  0.00    -0.273 N 
HETATM   12  C7  UNL     1      22.203   2.136  51.143  1.00  0.00     0.102 A 
HETATM   13  C8  UNL     1      21.637   1.415  52.089  1.00  0.00    -0.015 C 
HETATM   14  C15 UNL     1      22.791   0.556  52.488  1.00  0.00     0.055 C 
HETATM   15  C16 UNL     1      23.234  -0.443  53.335  1.00  0.00    -0.014 C 
HETATM   16  C17 UNL     1      24.645  -0.864  53.154  1.00  0.00     0.047 C 
HETATM   17  C18 UNL     1      25.390  -0.574  54.403  1.00  0.00     0.085 C 
HETATM   18  N8  UNL     1      26.241  -0.320  55.302  1.00  0.00    -0.286 NA
HETATM   19  C19 UNL     1      27.636  -0.139  55.194  1.00  0.00     0.271 C 
HETATM   20  H8  UNL     1      20.061   2.779  50.659  1.00  0.00     0.189 HD
ENDROOT
BRANCH  13  21
HETATM   21  C9  UNL     1      20.247   1.330  52.594  1.00  0.00     0.309 C 
BRANCH  21  22
HETATM   22  N6  UNL     1      19.603   0.085  52.237  1.00  0.00     0.092 N 
HETATM   23  C10 UNL     1      19.298  -0.522  53.531  1.00  0.00     0.275 C 
HETATM   24  C11 UNL     1      18.306  -1.649  53.420  1.00  0.00     0.065 C 
HETATM   25  C12 UNL     1      16.965  -1.166  52.897  1.00  0.00     0.221 C 
HETATM   26  C13 UNL     1      17.147   0.232  52.333  1.00  0.00     0.065 C 
HETATM   27  C14 UNL     1      18.404   0.285  51.461  1.00  0.00     0.275 C 
BRANCH  25  28
HETATM   28  N7  UNL     1      16.512  -2.101  51.916  1.00  0.00     0.083 N 
HETATM   29  H16 UNL     1      15.492  -1.996  51.662  1.00  0.00     0.313 HD
HETATM   30  H17 UNL     1      17.108  -2.040  51.061  1.00  0.00     0.313 HD
ENDBRANCH  25  28
ENDBRANCH  21  22
ENDBRANCH  13  21
TORSDOF 3
ENDMDL
MODEL 9
REMARK VINA RESULT:      -7.8      2.259      2.653
REMARK  3 active torsions:
REMARK  status: ('A' for Active; 'I' for Inactive)
REMARK    1  A    between atoms: C8_13  and  C9_14 
REMARK    2  A    between atoms: C9_14  and  N6_15 
REMARK    3  A    between atoms: C12_18  and  N7_19 
ROOT
HETATM    1  C1  UNL     1      19.045   5.679  46.527  1.00  0.00     0.150 C 
HETATM    2  N1  UNL     1      20.200   5.379  47.347  1.00  0.00    -0.376 N 
HETATM    3  C2  UNL     1      20.115   4.560  48.489  1.00  0.00     0.088 C 
HETATM    4  C3  UNL     1      19.989   4.018  49.670  1.00  0.00     0.036 C 
HETATM    5  C4  UNL     1      19.986   2.896  50.566  1.00  0.00     0.120 C 
HETATM    6  N2  UNL     1      20.195   1.628  50.359  1.00  0.00    -0.239 NA
HETATM    7  C5  UNL     1      20.109   0.793  51.532  1.00  0.00     0.179 A 
HETATM    8  N3  UNL     1      19.138   0.091  51.928  1.00  0.00    -0.218 NA
HETATM    9  C6  UNL     1      19.140  -0.712  53.128  1.00  0.00     0.257 A 
HETATM   10  N4  UNL     1      20.239  -0.698  53.850  1.00  0.00    -0.167 NA
HETATM   11  N5  UNL     1      21.310   0.114  53.359  1.00  0.00    -0.273 N 
HETATM   12  C7  UNL     1      21.394   0.929  52.195  1.00  0.00     0.102 A 
HETATM   13  C8  UNL     1      22.634   1.375  52.192  1.00  0.00    -0.015 C 
HETATM   14  C15 UNL     1      22.713   1.919  50.804  1.00  0.00     0.055 C 
HETATM   15  C16 UNL     1      23.504   2.566  49.873  1.00  0.00    -0.014 C 
HETATM   16  C17 UNL     1      22.879   2.802  48.548  1.00  0.00     0.047 C 
HETATM   17  C18 UNL     1      22.797   4.265  48.317  1.00  0.00     0.085 C 
HETATM   18  N8  UNL     1      22.522   5.444  47.954  1.00  0.00    -0.286 NA
HETATM   19  C19 UNL     1      21.532   5.901  47.060  1.00  0.00     0.271 C 
HETATM   20  H8  UNL     1      22.004  -0.106  54.142  1.00  0.00     0.189 HD
ENDROOT
BRANCH  13  21
HETATM   21  C9  UNL     1      23.732   1.300  53.183  1.00  0.00     0.309 C 
BRANCH  21  22
HETATM   22  N6  UNL     1      24.749   0.339  52.812  1.00  0.00     0.092 N 
HETATM   23  C10 UNL     1      25.888   1.176  52.442  1.00  0.00     0.275 C 
HETATM   24  C11 UNL     1      27.175   0.399  52.369  1.00  0.00     0.065 C 
HETATM   25  C12 UNL     1      27.553  -0.190  53.716  1.00  0.00     0.221 C 
HETATM   26  C13 UNL     1      26.347  -0.095  54.634  1.00  0.00     0.065 C 
HETATM   27  C14 UNL     1      25.088  -0.553  53.894  1.00  0.00     0.275 C 
BRANCH  25  28
HETATM   28  N7  UNL     1      27.979  -1.536  53.504  1.00  0.00     0.083 N 
HETATM   29  H16 UNL     1      27.569  -1.986  52.641  1.00  0.00     0.313 HD
HETATM   30  H17 UNL     1      29.022  -1.581  53.477  1.00  0.00     0.313 HD
ENDBRANCH  25  28
ENDBRANCH  21  22
ENDBRANCH  13  21
TORSDOF 3
ENDMDL
