MODEL 1
REMARK VINA RESULT:      -7.1      0.000      0.000
REMARK  6 active torsions:
REMARK  status: ('A' for Active; 'I' for Inactive)
REMARK    1  A    between atoms: N1_2  and  C3_4 
REMARK    2  A    between atoms: C3_4  and  C4_5 
REMARK    3  A    between atoms: C5_6  and  C6_7 
REMARK    4  A    between atoms: C6_7  and  N2_8 
REMARK    5  A    between atoms: N2_8  and  C8_10 
REMARK    6  A    between atoms: C9_11  and  O1_12 
ROOT
HETATM    1  C8  UNL     1      23.502   1.635  52.263  1.00  0.00     0.062 C 
HETATM    2  C9  UNL     1      23.166   0.659  53.032  1.00  0.00     0.090 C 
HETATM    3  C10 UNL     1      23.029  -0.417  53.937  1.00  0.00     0.041 C 
HETATM    4  C11 UNL     1      23.478  -1.258  54.794  1.00  0.00     0.165 C 
HETATM    5  N3  UNL     1      24.620  -0.618  54.549  1.00  0.00    -0.253 NA
HETATM    6  C12 UNL     1      25.710  -0.756  53.990  1.00  0.00     0.209 C 
HETATM    7  F1  UNL     1      26.414  -1.666  53.273  1.00  0.00    -0.187 F 
HETATM    8  C13 UNL     1      26.346   0.533  54.278  1.00  0.00     0.189 A 
HETATM    9  C14 UNL     1      27.772   0.292  54.711  1.00  0.00     0.025 A 
HETATM   10  C15 UNL     1      28.820   0.871  54.153  1.00  0.00     0.112 A 
HETATM   11  N4  UNL     1      28.624   1.760  53.086  1.00  0.00    -0.262 NA
HETATM   12  C16 UNL     1      27.530   2.117  52.532  1.00  0.00     0.205 A 
HETATM   13  C17 UNL     1      26.109   2.307  52.131  1.00  0.00     0.136 A 
HETATM   14  C18 UNL     1      24.779   2.286  51.926  1.00  0.00     0.044 C 
HETATM   15  N5  UNL     1      26.398   1.454  53.177  1.00  0.00    -0.345 N 
ENDROOT
BRANCH   1  16
HETATM   16  N2  UNL     1      22.444   2.256  51.482  1.00  0.00    -0.380 N 
HETATM   17  C7  UNL     1      22.291   1.899  50.084  1.00  0.00     0.150 C 
BRANCH  16  18
HETATM   18  C6  UNL     1      21.498   3.290  51.871  1.00  0.00     0.149 C 
BRANCH  18  19
HETATM   19  C5  UNL     1      21.982   4.654  51.917  1.00  0.00    -0.010 C 
HETATM   20  C4  UNL     1      22.897   5.599  51.588  1.00  0.00     0.001 C 
BRANCH  20  21
HETATM   21  C3  UNL     1      24.144   5.891  50.885  1.00  0.00     0.298 C 
BRANCH  21  22
HETATM   22  N1  UNL     1      24.499   5.037  49.805  1.00  0.00     0.083 N 
HETATM   23  C1  UNL     1      23.748   5.181  48.605  1.00  0.00     0.309 C 
HETATM   24  C2  UNL     1      25.896   5.312  49.472  1.00  0.00     0.309 C 
ENDBRANCH  21  22
ENDBRANCH  20  21
ENDBRANCH  18  19
ENDBRANCH  16  18
ENDBRANCH   1  16
BRANCH   2  25
HETATM   25  O1  UNL     1      21.946   0.999  52.450  1.00  0.00    -0.359 OA
HETATM   26  H16 UNL     1      21.491   0.193  51.980  1.00  0.00     0.217 HD
ENDBRANCH   2  25
TORSDOF 6
ENDMDL
MODEL 2
REMARK VINA RESULT:      -7.0      2.307      4.871
REMARK  6 active torsions:
REMARK  status: ('A' for Active; 'I' for Inactive)
REMARK    1  A    between atoms: N1_2  and  C3_4 
REMARK    2  A    between atoms: C3_4  and  C4_5 
REMARK    3  A    between atoms: C5_6  and  C6_7 
REMARK    4  A    between atoms: C6_7  and  N2_8 
REMARK    5  A    between atoms: N2_8  and  C8_10 
REMARK    6  A    between atoms: C9_11  and  O1_12 
ROOT
HETATM    1  C8  UNL     1      23.339   1.886  51.386  1.00  0.00     0.062 C 
HETATM    2  C9  UNL     1      24.189   2.577  50.709  1.00  0.00     0.090 C 
HETATM    3  C10 UNL     1      25.286   3.205  50.081  1.00  0.00     0.041 C 
HETATM    4  C11 UNL     1      26.538   3.377  49.864  1.00  0.00     0.165 C 
HETATM    5  N3  UNL     1      26.640   2.391  50.752  1.00  0.00    -0.253 NA
HETATM    6  C12 UNL     1      26.975   2.163  51.916  1.00  0.00     0.209 C 
HETATM    7  F1  UNL     1      27.452   2.797  53.014  1.00  0.00    -0.187 F 
HETATM    8  C13 UNL     1      26.748   0.717  52.002  1.00  0.00     0.189 A 
HETATM    9  C14 UNL     1      27.926   0.074  52.694  1.00  0.00     0.025 A 
HETATM   10  C15 UNL     1      27.823  -0.713  53.750  1.00  0.00     0.112 A 
HETATM   11  N4  UNL     1      26.554  -0.974  54.287  1.00  0.00    -0.262 NA
HETATM   12  C16 UNL     1      25.416  -0.546  53.898  1.00  0.00     0.205 A 
HETATM   13  C17 UNL     1      24.288   0.125  53.194  1.00  0.00     0.136 A 
HETATM   14  C18 UNL     1      23.453   0.855  52.432  1.00  0.00     0.044 C 
HETATM   15  N5  UNL     1      25.575   0.319  52.731  1.00  0.00    -0.345 N 
ENDROOT
BRANCH   1  16
HETATM   16  N2  UNL     1      21.930   2.162  51.157  1.00  0.00    -0.380 N 
HETATM   17  C7  UNL     1      21.239   3.096  52.025  1.00  0.00     0.150 C 
BRANCH  16  18
HETATM   18  C6  UNL     1      21.022   1.569  50.188  1.00  0.00     0.149 C 
BRANCH  18  19
HETATM   19  C5  UNL     1      19.876   0.848  50.701  1.00  0.00    -0.010 C 
HETATM   20  C4  UNL     1      19.264   0.134  51.679  1.00  0.00     0.001 C 
BRANCH  20  21
HETATM   21  C3  UNL     1      19.380  -0.442  53.017  1.00  0.00     0.298 C 
BRANCH  21  22
HETATM   22  N1  UNL     1      20.643  -0.338  53.664  1.00  0.00     0.083 N 
HETATM   23  C1  UNL     1      20.725   0.563  54.760  1.00  0.00     0.309 C 
HETATM   24  C2  UNL     1      20.981  -1.667  54.173  1.00  0.00     0.309 C 
ENDBRANCH  21  22
ENDBRANCH  20  21
ENDBRANCH  18  19
ENDBRANCH  16  18
ENDBRANCH   1  16
BRANCH   2  25
HETATM   25  O1  UNL     1      22.975   3.090  50.256  1.00  0.00    -0.359 OA
HETATM   26  H16 UNL     1      22.851   2.973  49.232  1.00  0.00     0.217 HD
ENDBRANCH   2  25
TORSDOF 6
ENDMDL
MODEL 3
REMARK VINA RESULT:      -6.9      1.021      1.208
REMARK  6 active torsions:
REMARK  status: ('A' for Active; 'I' for Inactive)
REMARK    1  A    between atoms: N1_2  and  C3_4 
REMARK    2  A    between atoms: C3_4  and  C4_5 
REMARK    3  A    between atoms: C5_6  and  C6_7 
REMARK    4  A    between atoms: C6_7  and  N2_8 
REMARK    5  A    between atoms: N2_8  and  C8_10 
REMARK    6  A    between atoms: C9_11  and  O1_12 
ROOT
HETATM    1  C8  UNL     1      24.091   2.222  51.674  1.00  0.00     0.062 C 
HETATM    2  C9  UNL     1      23.449   1.245  52.212  1.00  0.00     0.090 C 
HETATM    3  C10 UNL     1      22.951   0.124  52.913  1.00  0.00     0.041 C 
HETATM    4  C11 UNL     1      23.061  -0.858  53.730  1.00  0.00     0.165 C 
HETATM    5  N3  UNL     1      24.305  -0.395  53.832  1.00  0.00    -0.253 NA
HETATM    6  C12 UNL     1      25.467  -0.657  53.516  1.00  0.00     0.209 C 
HETATM    7  F1  UNL     1      26.191  -1.596  52.861  1.00  0.00    -0.187 F 
HETATM    8  C13 UNL     1      26.187   0.476  54.107  1.00  0.00     0.189 A 
HETATM    9  C14 UNL     1      27.420  -0.038  54.811  1.00  0.00     0.025 A 
HETATM   10  C15 UNL     1      28.641   0.411  54.582  1.00  0.00     0.112 A 
HETATM   11  N4  UNL     1      28.832   1.419  53.625  1.00  0.00    -0.262 NA
HETATM   12  C16 UNL     1      27.963   2.003  52.894  1.00  0.00     0.205 A 
HETATM   13  C17 UNL     1      26.721   2.463  52.215  1.00  0.00     0.136 A 
HETATM   14  C18 UNL     1      25.489   2.682  51.719  1.00  0.00     0.044 C 
HETATM   15  N5  UNL     1      26.629   1.478  53.177  1.00  0.00    -0.345 N 
ENDROOT
BRANCH   1  16
HETATM   16  N2  UNL     1      23.348   3.081  50.765  1.00  0.00    -0.380 N 
HETATM   17  C7  UNL     1      23.475   2.879  49.335  1.00  0.00     0.150 C 
BRANCH  16  18
HETATM   18  C6  UNL     1      22.501   4.224  51.066  1.00  0.00     0.149 C 
BRANCH  18  19
HETATM   19  C5  UNL     1      23.156   5.468  51.414  1.00  0.00    -0.010 C 
HETATM   20  C4  UNL     1      24.128   6.393  51.212  1.00  0.00     0.001 C 
BRANCH  20  21
HETATM   21  C3  UNL     1      25.288   6.783  50.414  1.00  0.00     0.298 C 
BRANCH  21  22
HETATM   22  N1  UNL     1      25.385   6.248  49.100  1.00  0.00     0.083 N 
HETATM   23  C1  UNL     1      25.741   7.157  48.066  1.00  0.00     0.309 C 
HETATM   24  C2  UNL     1      26.411   5.206  49.129  1.00  0.00     0.309 C 
ENDBRANCH  21  22
ENDBRANCH  20  21
ENDBRANCH  18  19
ENDBRANCH  16  18
ENDBRANCH   1  16
BRANCH   2  25
HETATM   25  O1  UNL     1      22.463   1.836  51.423  1.00  0.00    -0.359 OA
HETATM   26  H16 UNL     1      21.547   1.891  51.907  1.00  0.00     0.217 HD
ENDBRANCH   2  25
TORSDOF 6
ENDMDL
MODEL 4
REMARK VINA RESULT:      -6.9      1.285      2.167
REMARK  6 active torsions:
REMARK  status: ('A' for Active; 'I' for Inactive)
REMARK    1  A    between atoms: N1_2  and  C3_4 
REMARK    2  A    between atoms: C3_4  and  C4_5 
REMARK    3  A    between atoms: C5_6  and  C6_7 
REMARK    4  A    between atoms: C6_7  and  N2_8 
REMARK    5  A    between atoms: N2_8  and  C8_10 
REMARK    6  A    between atoms: C9_11  and  O1_12 
ROOT
HETATM    1  C8  UNL     1      22.909   1.043  52.499  1.00  0.00     0.062 C 
HETATM    2  C9  UNL     1      22.871   0.129  53.405  1.00  0.00     0.090 C 
HETATM    3  C10 UNL     1      23.063  -0.832  54.422  1.00  0.00     0.041 C 
HETATM    4  C11 UNL     1      23.777  -1.472  55.274  1.00  0.00     0.165 C 
HETATM    5  N3  UNL     1      24.735  -0.686  54.786  1.00  0.00    -0.253 NA
HETATM    6  C12 UNL     1      25.741  -0.709  54.075  1.00  0.00     0.209 C 
HETATM    7  F1  UNL     1      26.493  -1.571  53.348  1.00  0.00    -0.187 F 
HETATM    8  C13 UNL     1      26.163   0.694  54.129  1.00  0.00     0.189 A 
HETATM    9  C14 UNL     1      27.656   0.751  54.347  1.00  0.00     0.025 A 
HETATM   10  C15 UNL     1      28.490   1.423  53.573  1.00  0.00     0.112 A 
HETATM   11  N4  UNL     1      27.984   2.125  52.469  1.00  0.00    -0.262 NA
HETATM   12  C16 UNL     1      26.776   2.222  52.066  1.00  0.00     0.205 A 
HETATM   13  C17 UNL     1      25.302   2.119  51.883  1.00  0.00     0.136 A 
HETATM   14  C18 UNL     1      23.984   1.851  51.898  1.00  0.00     0.044 C 
HETATM   15  N5  UNL     1      25.889   1.465  52.948  1.00  0.00    -0.345 N 
ENDROOT
BRANCH   1  16
HETATM   16  N2  UNL     1      21.656   1.375  51.841  1.00  0.00    -0.380 N 
HETATM   17  C7  UNL     1      20.942   2.574  52.236  1.00  0.00     0.150 C 
BRANCH  16  18
HETATM   18  C6  UNL     1      20.915   0.623  50.840  1.00  0.00     0.149 C 
BRANCH  18  19
HETATM   19  C5  UNL     1      21.296   0.802  49.454  1.00  0.00    -0.010 C 
HETATM   20  C4  UNL     1      21.859   1.540  48.465  1.00  0.00     0.001 C 
BRANCH  20  21
HETATM   21  C3  UNL     1      22.530   2.789  48.112  1.00  0.00     0.298 C 
BRANCH  21  22
HETATM   22  N1  UNL     1      22.805   3.702  49.167  1.00  0.00     0.083 N 
HETATM   23  C1  UNL     1      24.038   4.407  49.096  1.00  0.00     0.309 C 
HETATM   24  C2  UNL     1      21.737   4.703  49.166  1.00  0.00     0.309 C 
ENDBRANCH  21  22
ENDBRANCH  20  21
ENDBRANCH  18  19
ENDBRANCH  16  18
ENDBRANCH   1  16
BRANCH   2  25
HETATM   25  O1  UNL     1      21.539   0.184  52.997  1.00  0.00    -0.359 OA
HETATM   26  H16 UNL     1      21.442   0.240  51.965  1.00  0.00     0.217 HD
ENDBRANCH   2  25
TORSDOF 6
ENDMDL
MODEL 5
REMARK VINA RESULT:      -6.6      2.964      6.785
REMARK  6 active torsions:
REMARK  status: ('A' for Active; 'I' for Inactive)
REMARK    1  A    between atoms: N1_2  and  C3_4 
REMARK    2  A    between atoms: C3_4  and  C4_5 
REMARK    3  A    between atoms: C5_6  and  C6_7 
REMARK    4  A    between atoms: C6_7  and  N2_8 
REMARK    5  A    between atoms: N2_8  and  C8_10 
REMARK    6  A    between atoms: C9_11  and  O1_12 
ROOT
HETATM    1  C8  UNL     1      24.550   4.330  50.638  1.00  0.00     0.062 C 
HETATM    2  C9  UNL     1      23.948   5.461  50.757  1.00  0.00     0.090 C 
HETATM    3  C10 UNL     1      23.466   6.789  50.753  1.00  0.00     0.041 C 
HETATM    4  C11 UNL     1      23.518   8.026  50.421  1.00  0.00     0.165 C 
HETATM    5  N3  UNL     1      24.617   7.620  49.789  1.00  0.00    -0.253 NA
HETATM    6  C12 UNL     1      25.847   7.685  49.842  1.00  0.00     0.209 C 
HETATM    7  F1  UNL     1      26.839   8.223  50.592  1.00  0.00    -0.187 F 
HETATM    8  C13 UNL     1      26.226   6.905  48.659  1.00  0.00     0.189 A 
HETATM    9  C14 UNL     1      27.314   7.641  47.913  1.00  0.00     0.025 A 
HETATM   10  C15 UNL     1      28.473   7.103  47.580  1.00  0.00     0.112 A 
HETATM   11  N4  UNL     1      28.740   5.774  47.939  1.00  0.00    -0.262 NA
HETATM   12  C16 UNL     1      27.998   4.952  48.576  1.00  0.00     0.205 A 
HETATM   13  C17 UNL     1      26.904   4.276  49.326  1.00  0.00     0.136 A 
HETATM   14  C18 UNL     1      25.811   3.897  50.014  1.00  0.00     0.044 C 
HETATM   15  N5  UNL     1      26.728   5.586  48.925  1.00  0.00    -0.345 N 
ENDROOT
BRANCH   1  16
HETATM   16  N2  UNL     1      23.932   3.181  51.280  1.00  0.00    -0.380 N 
HETATM   17  C7  UNL     1      23.095   2.294  50.496  1.00  0.00     0.150 C 
BRANCH  16  18
HETATM   18  C6  UNL     1      23.956   2.785  52.681  1.00  0.00     0.149 C 
BRANCH  18  19
HETATM   19  C5  UNL     1      24.409   1.445  52.987  1.00  0.00    -0.010 C 
HETATM   20  C4  UNL     1      25.282   0.596  53.587  1.00  0.00     0.001 C 
BRANCH  20  21
HETATM   21  C3  UNL     1      26.479   0.468  54.415  1.00  0.00     0.298 C 
BRANCH  21  22
HETATM   22  N1  UNL     1      27.728   0.773  53.806  1.00  0.00     0.083 N 
HETATM   23  C1  UNL     1      27.999   2.147  53.561  1.00  0.00     0.309 C 
HETATM   24  C2  UNL     1      28.778   0.280  54.697  1.00  0.00     0.309 C 
ENDBRANCH  21  22
ENDBRANCH  20  21
ENDBRANCH  18  19
ENDBRANCH  16  18
ENDBRANCH   1  16
BRANCH   2  25
HETATM   25  O1  UNL     1      23.107   4.612  51.475  1.00  0.00    -0.359 OA
HETATM   26  H16 UNL     1      23.138   4.792  52.496  1.00  0.00     0.217 HD
ENDBRANCH   2  25
TORSDOF 6
ENDMDL
MODEL 6
REMARK VINA RESULT:      -6.5      2.709      6.833
REMARK  6 active torsions:
REMARK  status: ('A' for Active; 'I' for Inactive)
REMARK    1  A    between atoms: N1_2  and  C3_4 
REMARK    2  A    between atoms: C3_4  and  C4_5 
REMARK    3  A    between atoms: C5_6  and  C6_7 
REMARK    4  A    between atoms: C6_7  and  N2_8 
REMARK    5  A    between atoms: N2_8  and  C8_10 
REMARK    6  A    between atoms: C9_11  and  O1_12 
ROOT
HETATM    1  C8  UNL     1      25.276   2.745  51.904  1.00  0.00     0.062 C 
HETATM    2  C9  UNL     1      26.072   3.085  50.950  1.00  0.00     0.090 C 
HETATM    3  C10 UNL     1      26.789   3.636  49.865  1.00  0.00     0.041 C 
HETATM    4  C11 UNL     1      26.974   4.495  48.932  1.00  0.00     0.165 C 
HETATM    5  N3  UNL     1      25.838   4.993  49.417  1.00  0.00    -0.253 NA
HETATM    6  C12 UNL     1      24.640   5.112  49.153  1.00  0.00     0.209 C 
HETATM    7  F1  UNL     1      23.741   4.802  48.187  1.00  0.00    -0.187 F 
HETATM    8  C13 UNL     1      24.160   5.848  50.327  1.00  0.00     0.189 A 
HETATM    9  C14 UNL     1      23.248   6.962  49.870  1.00  0.00     0.025 A 
HETATM   10  C15 UNL     1      22.020   7.142  50.322  1.00  0.00     0.112 A 
HETATM   11  N4  UNL     1      21.504   6.252  51.276  1.00  0.00    -0.262 NA
HETATM   12  C16 UNL     1      22.063   5.235  51.806  1.00  0.00     0.205 A 
HETATM   13  C17 UNL     1      22.992   4.144  52.211  1.00  0.00     0.136 A 
HETATM   14  C18 UNL     1      23.976   3.242  52.384  1.00  0.00     0.044 C 
HETATM   15  N5  UNL     1      23.417   5.071  51.280  1.00  0.00    -0.345 N 
ENDROOT
BRANCH   1  16
HETATM   16  N2  UNL     1      25.654   1.589  52.699  1.00  0.00    -0.380 N 
HETATM   17  C7  UNL     1      26.504   1.772  53.861  1.00  0.00     0.150 C 
BRANCH  16  18
HETATM   18  C6  UNL     1      25.363   0.181  52.474  1.00  0.00     0.149 C 
BRANCH  18  19
HETATM   19  C5  UNL     1      24.264  -0.400  53.215  1.00  0.00    -0.010 C 
HETATM   20  C4  UNL     1      23.003  -0.336  53.713  1.00  0.00     0.001 C 
BRANCH  20  21
HETATM   21  C3  UNL     1      21.786   0.463  53.839  1.00  0.00     0.298 C 
BRANCH  21  22
HETATM   22  N1  UNL     1      20.562  -0.240  54.016  1.00  0.00     0.083 N 
HETATM   23  C1  UNL     1      19.661  -0.238  52.916  1.00  0.00     0.309 C 
HETATM   24  C2  UNL     1      20.897  -1.636  54.295  1.00  0.00     0.309 C 
ENDBRANCH  21  22
ENDBRANCH  20  21
ENDBRANCH  18  19
ENDBRANCH  16  18
ENDBRANCH   1  16
BRANCH   2  25
HETATM   25  O1  UNL     1      26.721   1.973  51.483  1.00  0.00    -0.359 OA
HETATM   26  H16 UNL     1      27.248   2.196  52.348  1.00  0.00     0.217 HD
ENDBRANCH   2  25
TORSDOF 6
ENDMDL
MODEL 7
REMARK VINA RESULT:      -6.3      3.042      4.951
REMARK  6 active torsions:
REMARK  status: ('A' for Active; 'I' for Inactive)
REMARK    1  A    between atoms: N1_2  and  C3_4 
REMARK    2  A    between atoms: C3_4  and  C4_5 
REMARK    3  A    between atoms: C5_6  and  C6_7 
REMARK    4  A    between atoms: C6_7  and  N2_8 
REMARK    5  A    between atoms: N2_8  and  C8_10 
REMARK    6  A    between atoms: C9_11  and  O1_12 
ROOT
HETATM    1  C8  UNL     1      22.799   3.424  51.410  1.00  0.00     0.062 C 
HETATM    2  C9  UNL     1      21.528   3.593  51.287  1.00  0.00     0.090 C 
HETATM    3  C10 UNL     1      20.116   3.583  51.291  1.00  0.00     0.041 C 
HETATM    4  C11 UNL     1      18.974   3.108  51.629  1.00  0.00     0.165 C 
HETATM    5  N3  UNL     1      19.737   2.229  52.274  1.00  0.00    -0.253 NA
HETATM    6  C12 UNL     1      20.104   1.052  52.239  1.00  0.00     0.209 C 
HETATM    7  F1  UNL     1      19.946  -0.075  51.505  1.00  0.00    -0.187 F 
HETATM    8  C13 UNL     1      20.966   0.986  53.424  1.00  0.00     0.189 A 
HETATM    9  C14 UNL     1      20.655  -0.279  54.188  1.00  0.00     0.025 A 
HETATM   10  C15 UNL     1      21.562  -1.174  54.535  1.00  0.00     0.112 A 
HETATM   11  N4  UNL     1      22.902  -0.966  54.174  1.00  0.00    -0.262 NA
HETATM   12  C16 UNL     1      23.414   0.006  53.523  1.00  0.00     0.205 A 
HETATM   13  C17 UNL     1      23.667   1.256  52.755  1.00  0.00     0.136 A 
HETATM   14  C18 UNL     1      23.643   2.402  52.050  1.00  0.00     0.044 C 
HETATM   15  N5  UNL     1      22.378   0.971  53.158  1.00  0.00    -0.345 N 
ENDROOT
BRANCH   1  16
HETATM   16  N2  UNL     1      23.661   4.394  50.754  1.00  0.00    -0.380 N 
HETATM   17  C7  UNL     1      23.930   5.661  51.407  1.00  0.00     0.150 C 
BRANCH  16  18
HETATM   18  C6  UNL     1      24.282   4.334  49.439  1.00  0.00     0.149 C 
BRANCH  18  19
HETATM   19  C5  UNL     1      25.690   3.999  49.382  1.00  0.00    -0.010 C 
HETATM   20  C4  UNL     1      26.975   4.325  49.097  1.00  0.00     0.001 C 
BRANCH  20  21
HETATM   21  C3  UNL     1      27.887   5.354  48.601  1.00  0.00     0.298 C 
BRANCH  21  22
HETATM   22  N1  UNL     1      27.313   6.578  48.164  1.00  0.00     0.083 N 
HETATM   23  C1  UNL     1      26.841   7.459  49.175  1.00  0.00     0.309 C 
HETATM   24  C2  UNL     1      28.341   7.298  47.412  1.00  0.00     0.309 C 
ENDBRANCH  21  22
ENDBRANCH  20  21
ENDBRANCH  18  19
ENDBRANCH  16  18
ENDBRANCH   1  16
BRANCH   2  25
HETATM   25  O1  UNL     1      22.032   4.666  50.554  1.00  0.00    -0.359 OA
HETATM   26  H16 UNL     1      21.593   4.749  49.618  1.00  0.00     0.217 HD
ENDBRANCH   2  25
TORSDOF 6
ENDMDL
MODEL 8
REMARK VINA RESULT:      -6.3      3.439      6.100
REMARK  6 active torsions:
REMARK  status: ('A' for Active; 'I' for Inactive)
REMARK    1  A    between atoms: N1_2  and  C3_4 
REMARK    2  A    between atoms: C3_4  and  C4_5 
REMARK    3  A    between atoms: C5_6  and  C6_7 
REMARK    4  A    between atoms: C6_7  and  N2_8 
REMARK    5  A    between atoms: N2_8  and  C8_10 
REMARK    6  A    between atoms: C9_11  and  O1_12 
ROOT
HETATM    1  C8  UNL     1      25.505   3.988  49.999  1.00  0.00     0.062 C 
HETATM    2  C9  UNL     1      26.036   3.093  50.757  1.00  0.00     0.090 C 
HETATM    3  C10 UNL     1      26.398   2.019  51.600  1.00  0.00     0.041 C 
HETATM    4  C11 UNL     1      26.150   0.958  52.275  1.00  0.00     0.165 C 
HETATM    5  N3  UNL     1      24.922   1.167  51.804  1.00  0.00    -0.253 NA
HETATM    6  C12 UNL     1      23.798   1.533  52.152  1.00  0.00     0.209 C 
HETATM    7  F1  UNL     1      23.122   1.950  53.250  1.00  0.00    -0.187 F 
HETATM    8  C13 UNL     1      23.057   1.423  50.891  1.00  0.00     0.189 A 
HETATM    9  C14 UNL     1      21.727   0.760  51.157  1.00  0.00     0.025 A 
HETATM   10  C15 UNL     1      20.563   1.273  50.803  1.00  0.00     0.112 A 
HETATM   11  N4  UNL     1      20.532   2.513  50.148  1.00  0.00    -0.262 NA
HETATM   12  C16 UNL     1      21.506   3.272  49.823  1.00  0.00     0.205 A 
HETATM   13  C17 UNL     1      22.840   3.894  49.600  1.00  0.00     0.136 A 
HETATM   14  C18 UNL     1      24.131   4.270  49.548  1.00  0.00     0.044 C 
HETATM   15  N5  UNL     1      22.773   2.669  50.233  1.00  0.00    -0.345 N 
ENDROOT
BRANCH   1  16
HETATM   16  N2  UNL     1      26.387   5.015  49.470  1.00  0.00    -0.380 N 
HETATM   17  C7  UNL     1      26.051   6.412  49.669  1.00  0.00     0.150 C 
BRANCH  16  18
HETATM   18  C6  UNL     1      27.590   4.870  48.664  1.00  0.00     0.149 C 
BRANCH  18  19
HETATM   19  C5  UNL     1      28.163   6.072  48.097  1.00  0.00    -0.010 C 
HETATM   20  C4  UNL     1      29.236   6.841  47.783  1.00  0.00     0.001 C 
BRANCH  20  21
HETATM   21  C3  UNL     1      30.691   6.969  47.817  1.00  0.00     0.298 C 
BRANCH  21  22
HETATM   22  N1  UNL     1      31.301   7.131  49.091  1.00  0.00     0.083 N 
HETATM   23  C1  UNL     1      31.759   5.947  49.734  1.00  0.00     0.309 C 
HETATM   24  C2  UNL     1      32.465   7.998  48.910  1.00  0.00     0.309 C 
ENDBRANCH  21  22
ENDBRANCH  20  21
ENDBRANCH  18  19
ENDBRANCH  16  18
ENDBRANCH   1  16
BRANCH   2  25
HETATM   25  O1  UNL     1      27.134   3.893  50.444  1.00  0.00    -0.359 OA
HETATM   26  H16 UNL     1      26.899   4.904  50.430  1.00  0.00     0.217 HD
ENDBRANCH   2  25
TORSDOF 6
ENDMDL
MODEL 9
REMARK VINA RESULT:      -6.3      1.748      3.197
REMARK  6 active torsions:
REMARK  status: ('A' for Active; 'I' for Inactive)
REMARK    1  A    between atoms: N1_2  and  C3_4 
REMARK    2  A    between atoms: C3_4  and  C4_5 
REMARK    3  A    between atoms: C5_6  and  C6_7 
REMARK    4  A    between atoms: C6_7  and  N2_8 
REMARK    5  A    between atoms: N2_8  and  C8_10 
REMARK    6  A    between atoms: C9_11  and  O1_12 
ROOT
HETATM    1  C8  UNL     1      23.610   1.978  52.317  1.00  0.00     0.062 C 
HETATM    2  C9  UNL     1      23.201   0.956  52.984  1.00  0.00     0.090 C 
HETATM    3  C10 UNL     1      22.982  -0.192  53.778  1.00  0.00     0.041 C 
HETATM    4  C11 UNL     1      23.365  -1.140  54.551  1.00  0.00     0.165 C 
HETATM    5  N3  UNL     1      24.548  -0.556  54.378  1.00  0.00    -0.253 NA
HETATM    6  C12 UNL     1      25.635  -0.710  53.817  1.00  0.00     0.209 C 
HETATM    7  F1  UNL     1      26.289  -1.589  53.020  1.00  0.00    -0.187 F 
HETATM    8  C13 UNL     1      26.348   0.500  54.235  1.00  0.00     0.189 A 
HETATM    9  C14 UNL     1      27.750   0.125  54.653  1.00  0.00     0.025 A 
HETATM   10  C15 UNL     1      28.841   0.686  54.163  1.00  0.00     0.112 A 
HETATM   11  N4  UNL     1      28.717   1.686  53.186  1.00  0.00    -0.262 NA
HETATM   12  C16 UNL     1      27.657   2.166  52.662  1.00  0.00     0.205 A 
HETATM   13  C17 UNL     1      26.257   2.487  52.271  1.00  0.00     0.136 A 
HETATM   14  C18 UNL     1      24.931   2.574  52.055  1.00  0.00     0.044 C 
HETATM   15  N5  UNL     1      26.476   1.519  53.230  1.00  0.00    -0.345 N 
ENDROOT
BRANCH   1  16
HETATM   16  N2  UNL     1      22.606   2.740  51.592  1.00  0.00    -0.380 N 
HETATM   17  C7  UNL     1      22.284   2.372  50.226  1.00  0.00     0.150 C 
BRANCH  16  18
HETATM   18  C6  UNL     1      21.872   3.926  52.008  1.00  0.00     0.149 C 
BRANCH  18  19
HETATM   19  C5  UNL     1      20.597   4.179  51.371  1.00  0.00    -0.010 C 
HETATM   20  C4  UNL     1      19.286   3.885  51.184  1.00  0.00     0.001 C 
BRANCH  20  21
HETATM   21  C3  UNL     1      18.171   3.013  51.549  1.00  0.00     0.298 C 
BRANCH  21  22
HETATM   22  N1  UNL     1      18.332   1.619  51.321  1.00  0.00     0.083 N 
HETATM   23  C1  UNL     1      17.206   0.794  51.591  1.00  0.00     0.309 C 
HETATM   24  C2  UNL     1      18.665   1.444  49.908  1.00  0.00     0.309 C 
ENDBRANCH  21  22
ENDBRANCH  20  21
ENDBRANCH  18  19
ENDBRANCH  16  18
ENDBRANCH   1  16
BRANCH   2  25
HETATM   25  O1  UNL     1      22.014   1.430  52.429  1.00  0.00    -0.359 OA
HETATM   26  H16 UNL     1      22.168   1.950  51.544  1.00  0.00     0.217 HD
ENDBRANCH   2  25
TORSDOF 6
ENDMDL
