MODEL 1
REMARK VINA RESULT:      -7.8      0.000      0.000
REMARK  6 active torsions:
REMARK  status: ('A' for Active; 'I' for Inactive)
REMARK    1  A    between atoms: C4_7  and  C5_8 
REMARK    2  A    between atoms: C5_8  and  N2_9 
REMARK    3  A    between atoms: N2_9  and  C6_10 
REMARK    4  A    between atoms: C10_15  and  C11_16 
REMARK    5  A    between atoms: C12_17  and  N4_18 
REMARK    6  A    between atoms: N4_18  and  C13_19 
ROOT
HETATM    1  C6  UNL     1      23.938   2.485  52.013  1.00  0.00     0.057 A 
HETATM    2  C7  UNL     1      24.143   3.312  53.092  1.00  0.00     0.033 A 
HETATM    3  C8  UNL     1      23.758   4.633  53.082  1.00  0.00     0.022 A 
HETATM    4  C9  UNL     1      23.151   5.055  51.899  1.00  0.00     0.117 A 
HETATM    5  N3  UNL     1      22.956   4.234  50.849  1.00  0.00    -0.259 NA
HETATM    6  C10 UNL     1      23.334   2.945  50.861  1.00  0.00     0.084 A 
ENDROOT
BRANCH   6   7
HETATM    7  C11 UNL     1      23.096   2.108  49.694  1.00  0.00     0.051 C 
HETATM    8  C12 UNL     1      21.918   1.532  49.524  1.00  0.00     0.090 C 
BRANCH   8   9
HETATM    9  N4  UNL     1      20.810   1.642  50.385  1.00  0.00    -0.366 N 
HETATM   10  H15 UNL     1      20.416   2.604  50.425  1.00  0.00     0.165 HD
BRANCH   9  11
HETATM   11  C13 UNL     1      20.055   0.789  51.239  1.00  0.00     0.033 A 
HETATM   12  C14 UNL     1      18.722   0.427  51.142  1.00  0.00     0.032 A 
HETATM   13  C15 UNL     1      18.159  -0.410  52.060  1.00  0.00     0.046 A 
HETATM   14  C16 UNL     1      18.916  -0.895  53.083  1.00  0.00     0.138 A 
HETATM   15  F1  UNL     1      18.263  -1.724  53.950  1.00  0.00    -0.204 F 
HETATM   16  C17 UNL     1      20.240  -0.574  53.235  1.00  0.00     0.074 A 
HETATM   17 CL1  UNL     1      21.138  -1.244  54.582  1.00  0.00    -0.081 Cl
HETATM   18  C18 UNL     1      20.808   0.282  52.293  1.00  0.00     0.056 A 
ENDBRANCH   9  11
ENDBRANCH   8   9
ENDBRANCH   6   7
BRANCH   1  19
HETATM   19  N2  UNL     1      24.366   1.132  52.104  1.00  0.00    -0.386 N 
HETATM   20  H9  UNL     1      24.752   0.581  51.307  1.00  0.00     0.159 HD
BRANCH  19  21
HETATM   21  C5  UNL     1      24.290   0.399  53.350  1.00  0.00     0.147 C 
BRANCH  21  22
HETATM   22  C4  UNL     1      25.294  -0.705  53.481  1.00  0.00     0.133 C 
HETATM   23  C2  UNL     1      26.417  -0.584  52.463  1.00  0.00     0.154 C 
HETATM   24  C1  UNL     1      27.242  -1.841  52.528  1.00  0.00     0.042 C 
HETATM   25  O1  UNL     1      27.174   0.477  53.020  1.00  0.00    -0.297 OA
HETATM   26  C3  UNL     1      27.263   0.232  54.396  1.00  0.00     0.361 C 
HETATM   27  O2  UNL     1      28.228   0.569  55.139  1.00  0.00    -0.238 OA
HETATM   28  N1  UNL     1      26.045  -0.452  54.704  1.00  0.00    -0.328 N 
HETATM   29  H5  UNL     1      25.809  -0.696  55.689  1.00  0.00     0.165 HD
ENDBRANCH  21  22
ENDBRANCH  19  21
ENDBRANCH   1  19
TORSDOF 6
ENDMDL
MODEL 2
REMARK VINA RESULT:      -7.8      4.920      7.626
REMARK  6 active torsions:
REMARK  status: ('A' for Active; 'I' for Inactive)
REMARK    1  A    between atoms: C4_7  and  C5_8 
REMARK    2  A    between atoms: C5_8  and  N2_9 
REMARK    3  A    between atoms: N2_9  and  C6_10 
REMARK    4  A    between atoms: C10_15  and  C11_16 
REMARK    5  A    between atoms: C12_17  and  N4_18 
REMARK    6  A    between atoms: N4_18  and  C13_19 
ROOT
HETATM    1  C6  UNL     1      25.718   5.926  48.953  1.00  0.00     0.057 A 
HETATM    2  C7  UNL     1      26.704   6.764  48.490  1.00  0.00     0.033 A 
HETATM    3  C8  UNL     1      27.993   6.328  48.283  1.00  0.00     0.022 A 
HETATM    4  C9  UNL     1      28.209   4.983  48.578  1.00  0.00     0.117 A 
HETATM    5  N3  UNL     1      27.233   4.172  49.030  1.00  0.00    -0.259 NA
HETATM    6  C10 UNL     1      25.976   4.599  49.233  1.00  0.00     0.084 A 
ENDROOT
BRANCH   6   7
HETATM    7  C11 UNL     1      24.965   3.675  49.723  1.00  0.00     0.051 C 
HETATM    8  C12 UNL     1      25.202   2.950  50.803  1.00  0.00     0.090 C 
BRANCH   8   9
HETATM    9  N4  UNL     1      26.380   2.971  51.574  1.00  0.00    -0.366 N 
HETATM   10  H15 UNL     1      26.819   3.913  51.623  1.00  0.00     0.165 HD
BRANCH   9  11
HETATM   11  C13 UNL     1      27.162   2.048  52.323  1.00  0.00     0.033 A 
HETATM   12  C14 UNL     1      28.213   2.306  53.188  1.00  0.00     0.032 A 
HETATM   13  C15 UNL     1      28.854   1.286  53.828  1.00  0.00     0.046 A 
HETATM   14  C16 UNL     1      28.456   0.001  53.614  1.00  0.00     0.138 A 
HETATM   15  F1  UNL     1      29.159  -0.949  54.300  1.00  0.00    -0.204 F 
HETATM   16  C17 UNL     1      27.424  -0.320  52.770  1.00  0.00     0.074 A 
HETATM   17 CL1  UNL     1      26.981  -2.001  52.555  1.00  0.00    -0.081 Cl
HETATM   18  C18 UNL     1      26.774   0.728  52.120  1.00  0.00     0.056 A 
ENDBRANCH   9  11
ENDBRANCH   8   9
ENDBRANCH   6   7
BRANCH   1  19
HETATM   19  N2  UNL     1      24.411   6.454  49.141  1.00  0.00    -0.386 N 
HETATM   20  H9  UNL     1      23.635   6.369  48.449  1.00  0.00     0.159 HD
BRANCH  19  21
HETATM   21  C5  UNL     1      24.054   7.171  50.346  1.00  0.00     0.147 C 
BRANCH  21  22
HETATM   22  C4  UNL     1      22.581   7.365  50.538  1.00  0.00     0.133 C 
HETATM   23  C2  UNL     1      21.766   6.685  49.450  1.00  0.00     0.154 C 
HETATM   24  C1  UNL     1      20.332   7.117  49.604  1.00  0.00     0.042 C 
HETATM   25  O1  UNL     1      21.868   5.328  49.843  1.00  0.00    -0.297 OA
HETATM   26  C3  UNL     1      21.677   5.292  51.231  1.00  0.00     0.361 C 
HETATM   27  O2  UNL     1      21.164   4.334  51.876  1.00  0.00    -0.238 OA
HETATM   28  N1  UNL     1      22.192   6.549  51.681  1.00  0.00    -0.328 N 
HETATM   29  H5  UNL     1      22.243   6.766  52.699  1.00  0.00     0.165 HD
ENDBRANCH  21  22
ENDBRANCH  19  21
ENDBRANCH   1  19
TORSDOF 6
ENDMDL
MODEL 3
REMARK VINA RESULT:      -7.8      3.701      5.406
REMARK  6 active torsions:
REMARK  status: ('A' for Active; 'I' for Inactive)
REMARK    1  A    between atoms: C4_7  and  C5_8 
REMARK    2  A    between atoms: C5_8  and  N2_9 
REMARK    3  A    between atoms: N2_9  and  C6_10 
REMARK    4  A    between atoms: C10_15  and  C11_16 
REMARK    5  A    between atoms: C12_17  and  N4_18 
REMARK    6  A    between atoms: N4_18  and  C13_19 
ROOT
HETATM    1  C6  UNL     1      24.312  -0.384  53.883  1.00  0.00     0.057 A 
HETATM    2  C7  UNL     1      23.351  -0.952  54.685  1.00  0.00     0.033 A 
HETATM    3  C8  UNL     1      22.010  -0.708  54.500  1.00  0.00     0.022 A 
HETATM    4  C9  UNL     1      21.713   0.152  53.443  1.00  0.00     0.117 A 
HETATM    5  N3  UNL     1      22.664   0.701  52.664  1.00  0.00    -0.259 NA
HETATM    6  C10 UNL     1      23.974   0.463  52.847  1.00  0.00     0.084 A 
ENDROOT
BRANCH   6   7
HETATM    7  C11 UNL     1      24.955   1.087  51.971  1.00  0.00     0.051 C 
HETATM    8  C12 UNL     1      24.844   2.367  51.662  1.00  0.00     0.090 C 
BRANCH   8   9
HETATM    9  N4  UNL     1      23.833   3.242  52.106  1.00  0.00    -0.366 N 
HETATM   10  H15 UNL     1      23.380   2.929  52.989  1.00  0.00     0.165 HD
BRANCH   9  11
HETATM   11  C13 UNL     1      23.240   4.463  51.680  1.00  0.00     0.033 A 
HETATM   12  C14 UNL     1      21.898   4.802  51.627  1.00  0.00     0.032 A 
HETATM   13  C15 UNL     1      21.506   6.032  51.187  1.00  0.00     0.046 A 
HETATM   14  C16 UNL     1      22.445   6.937  50.795  1.00  0.00     0.138 A 
HETATM   15  F1  UNL     1      21.955   8.140  50.371  1.00  0.00    -0.204 F 
HETATM   16  C17 UNL     1      23.789   6.664  50.823  1.00  0.00     0.074 A 
HETATM   17 CL1  UNL     1      24.927   7.889  50.300  1.00  0.00    -0.081 Cl
HETATM   18  C18 UNL     1      24.180   5.404  51.274  1.00  0.00     0.056 A 
ENDBRANCH   9  11
ENDBRANCH   8   9
ENDBRANCH   6   7
BRANCH   1  19
HETATM   19  N2  UNL     1      25.678  -0.686  54.140  1.00  0.00    -0.386 N 
HETATM   20  H9  UNL     1      26.215  -1.442  53.663  1.00  0.00     0.159 HD
BRANCH  19  21
HETATM   21  C5  UNL     1      26.444   0.059  55.117  1.00  0.00     0.147 C 
BRANCH  21  22
HETATM   22  C4  UNL     1      27.928  -0.022  54.933  1.00  0.00     0.133 C 
HETATM   23  C2  UNL     1      28.308  -0.509  53.543  1.00  0.00     0.154 C 
HETATM   24  C1  UNL     1      29.792  -0.765  53.530  1.00  0.00     0.042 C 
HETATM   25  O1  UNL     1      28.048   0.651  52.770  1.00  0.00    -0.297 OA
HETATM   26  C3  UNL     1      28.561   1.739  53.488  1.00  0.00     0.361 C 
HETATM   27  O2  UNL     1      29.024   2.799  52.979  1.00  0.00    -0.238 OA
HETATM   28  N1  UNL     1      28.421   1.347  54.857  1.00  0.00    -0.328 N 
HETATM   29  H5  UNL     1      28.662   2.009  55.624  1.00  0.00     0.165 HD
ENDBRANCH  21  22
ENDBRANCH  19  21
ENDBRANCH   1  19
TORSDOF 6
ENDMDL
MODEL 4
REMARK VINA RESULT:      -7.7      3.633      5.179
REMARK  6 active torsions:
REMARK  status: ('A' for Active; 'I' for Inactive)
REMARK    1  A    between atoms: C4_7  and  C5_8 
REMARK    2  A    between atoms: C5_8  and  N2_9 
REMARK    3  A    between atoms: N2_9  and  C6_10 
REMARK    4  A    between atoms: C10_15  and  C11_16 
REMARK    5  A    between atoms: C12_17  and  N4_18 
REMARK    6  A    between atoms: N4_18  and  C13_19 
ROOT
HETATM    1  C6  UNL     1      24.166  -0.001  53.632  1.00  0.00     0.057 A 
HETATM    2  C7  UNL     1      23.207  -0.884  54.068  1.00  0.00     0.033 A 
HETATM    3  C8  UNL     1      21.862  -0.615  53.952  1.00  0.00     0.022 A 
HETATM    4  C9  UNL     1      21.561   0.612  53.362  1.00  0.00     0.117 A 
HETATM    5  N3  UNL     1      22.511   1.468  52.938  1.00  0.00    -0.259 NA
HETATM    6  C10 UNL     1      23.823   1.203  53.053  1.00  0.00     0.084 A 
ENDROOT
BRANCH   6   7
HETATM    7  C11 UNL     1      24.803   2.169  52.577  1.00  0.00     0.051 C 
HETATM    8  C12 UNL     1      24.702   2.663  51.355  1.00  0.00     0.090 C 
BRANCH   8   9
HETATM    9  N4  UNL     1      23.704   2.346  50.412  1.00  0.00    -0.366 N 
HETATM   10  H15 UNL     1      23.209   1.457  50.625  1.00  0.00     0.165 HD
BRANCH   9  11
HETATM   11  C13 UNL     1      23.168   2.911  49.222  1.00  0.00     0.033 A 
HETATM   12  C14 UNL     1      22.461   2.284  48.208  1.00  0.00     0.032 A 
HETATM   13  C15 UNL     1      22.018   2.990  47.129  1.00  0.00     0.046 A 
HETATM   14  C16 UNL     1      22.272   4.325  47.047  1.00  0.00     0.138 A 
HETATM   15  F1  UNL     1      21.788   4.943  45.929  1.00  0.00    -0.204 F 
HETATM   16  C17 UNL     1      22.965   5.004  48.015  1.00  0.00     0.074 A 
HETATM   17 CL1  UNL     1      23.246   6.723  47.827  1.00  0.00    -0.081 Cl
HETATM   18  C18 UNL     1      23.415   4.275  49.115  1.00  0.00     0.056 A 
ENDBRANCH   9  11
ENDBRANCH   8   9
ENDBRANCH   6   7
BRANCH   1  19
HETATM   19  N2  UNL     1      25.535  -0.354  53.789  1.00  0.00    -0.386 N 
HETATM   20  H9  UNL     1      26.092  -0.884  53.085  1.00  0.00     0.159 HD
BRANCH  19  21
HETATM   21  C5  UNL     1      26.275   0.010  54.979  1.00  0.00     0.147 C 
BRANCH  21  22
HETATM   22  C4  UNL     1      27.763  -0.086  54.836  1.00  0.00     0.133 C 
HETATM   23  C2  UNL     1      28.179  -0.500  53.433  1.00  0.00     0.154 C 
HETATM   24  C1  UNL     1      29.659  -0.781  53.450  1.00  0.00     0.042 C 
HETATM   25  O1  UNL     1      27.961   0.704  52.719  1.00  0.00    -0.297 OA
HETATM   26  C3  UNL     1      28.468   1.742  53.511  1.00  0.00     0.361 C 
HETATM   27  O2  UNL     1      28.962   2.821  53.077  1.00  0.00    -0.238 OA
HETATM   28  N1  UNL     1      28.279   1.277  54.851  1.00  0.00    -0.328 N 
HETATM   29  H5  UNL     1      28.506   1.891  55.662  1.00  0.00     0.165 HD
ENDBRANCH  21  22
ENDBRANCH  19  21
ENDBRANCH   1  19
TORSDOF 6
ENDMDL
MODEL 5
REMARK VINA RESULT:      -7.7      4.433      6.374
REMARK  6 active torsions:
REMARK  status: ('A' for Active; 'I' for Inactive)
REMARK    1  A    between atoms: C4_7  and  C5_8 
REMARK    2  A    between atoms: C5_8  and  N2_9 
REMARK    3  A    between atoms: N2_9  and  C6_10 
REMARK    4  A    between atoms: C10_15  and  C11_16 
REMARK    5  A    between atoms: C12_17  and  N4_18 
REMARK    6  A    between atoms: N4_18  and  C13_19 
ROOT
HETATM    1  C6  UNL     1      22.484   2.441  51.525  1.00  0.00     0.057 A 
HETATM    2  C7  UNL     1      22.316   1.253  50.852  1.00  0.00     0.033 A 
HETATM    3  C8  UNL     1      21.640   1.183  49.656  1.00  0.00     0.022 A 
HETATM    4  C9  UNL     1      21.147   2.401  49.191  1.00  0.00     0.117 A 
HETATM    5  N3  UNL     1      21.318   3.558  49.859  1.00  0.00    -0.259 NA
HETATM    6  C10 UNL     1      21.978   3.624  51.028  1.00  0.00     0.084 A 
ENDROOT
BRANCH   6   7
HETATM    7  C11 UNL     1      22.131   4.905  51.703  1.00  0.00     0.051 C 
HETATM    8  C12 UNL     1      22.893   5.845  51.172  1.00  0.00     0.090 C 
BRANCH   8   9
HETATM    9  N4  UNL     1      23.611   5.745  49.965  1.00  0.00    -0.366 N 
HETATM   10  H15 UNL     1      23.046   6.004  49.131  1.00  0.00     0.165 HD
BRANCH   9  11
HETATM   11  C13 UNL     1      24.923   5.382  49.551  1.00  0.00     0.033 A 
HETATM   12  C14 UNL     1      25.582   4.176  49.722  1.00  0.00     0.032 A 
HETATM   13  C15 UNL     1      26.852   4.003  49.254  1.00  0.00     0.046 A 
HETATM   14  C16 UNL     1      27.478   5.028  48.612  1.00  0.00     0.138 A 
HETATM   15  F1  UNL     1      28.746   4.758  48.181  1.00  0.00    -0.204 F 
HETATM   16  C17 UNL     1      26.880   6.245  48.410  1.00  0.00     0.074 A 
HETATM   17 CL1  UNL     1      27.761   7.507  47.572  1.00  0.00    -0.081 Cl
HETATM   18  C18 UNL     1      25.583   6.414  48.891  1.00  0.00     0.056 A 
ENDBRANCH   9  11
ENDBRANCH   8   9
ENDBRANCH   6   7
BRANCH   1  19
HETATM   19  N2  UNL     1      23.195   2.429  52.756  1.00  0.00    -0.386 N 
HETATM   20  H9  UNL     1      22.770   2.201  53.681  1.00  0.00     0.159 HD
BRANCH  19  21
HETATM   21  C5  UNL     1      24.607   2.744  52.814  1.00  0.00     0.147 C 
BRANCH  21  22
HETATM   22  C4  UNL     1      25.469   1.633  53.328  1.00  0.00     0.133 C 
HETATM   23  C2  UNL     1      26.180   0.892  52.207  1.00  0.00     0.154 C 
HETATM   24  C1  UNL     1      26.836  -0.327  52.797  1.00  0.00     0.042 C 
HETATM   25  O1  UNL     1      27.192   1.824  51.867  1.00  0.00    -0.297 OA
HETATM   26  C3  UNL     1      27.721   2.305  53.071  1.00  0.00     0.361 C 
HETATM   27  O2  UNL     1      28.913   2.686  53.248  1.00  0.00    -0.238 OA
HETATM   28  N1  UNL     1      26.616   2.252  53.979  1.00  0.00    -0.328 N 
HETATM   29  H5  UNL     1      26.708   2.625  54.947  1.00  0.00     0.165 HD
ENDBRANCH  21  22
ENDBRANCH  19  21
ENDBRANCH   1  19
TORSDOF 6
ENDMDL
MODEL 6
REMARK VINA RESULT:      -7.7      4.609      6.623
REMARK  6 active torsions:
REMARK  status: ('A' for Active; 'I' for Inactive)
REMARK    1  A    between atoms: C4_7  and  C5_8 
REMARK    2  A    between atoms: C5_8  and  N2_9 
REMARK    3  A    between atoms: N2_9  and  C6_10 
REMARK    4  A    between atoms: C10_15  and  C11_16 
REMARK    5  A    between atoms: C12_17  and  N4_18 
REMARK    6  A    between atoms: N4_18  and  C13_19 
ROOT
HETATM    1  C6  UNL     1      22.374   1.656  51.880  1.00  0.00     0.057 A 
HETATM    2  C7  UNL     1      21.853   0.595  51.179  1.00  0.00     0.033 A 
HETATM    3  C8  UNL     1      21.214   0.762  49.972  1.00  0.00     0.022 A 
HETATM    4  C9  UNL     1      21.143   2.082  49.526  1.00  0.00     0.117 A 
HETATM    5  N3  UNL     1      21.658   3.113  50.223  1.00  0.00    -0.259 NA
HETATM    6  C10 UNL     1      22.280   2.947  51.402  1.00  0.00     0.084 A 
ENDROOT
BRANCH   6   7
HETATM    7  C11 UNL     1      22.816   4.102  52.108  1.00  0.00     0.051 C 
HETATM    8  C12 UNL     1      23.918   4.689  51.673  1.00  0.00     0.090 C 
BRANCH   8   9
HETATM    9  N4  UNL     1      24.671   4.306  50.546  1.00  0.00    -0.366 N 
HETATM   10  H15 UNL     1      24.373   3.393  50.147  1.00  0.00     0.165 HD
BRANCH   9  11
HETATM   11  C13 UNL     1      25.751   4.826  49.779  1.00  0.00     0.033 A 
HETATM   12  C14 UNL     1      26.869   4.165  49.299  1.00  0.00     0.032 A 
HETATM   13  C15 UNL     1      27.813   4.829  48.572  1.00  0.00     0.046 A 
HETATM   14  C16 UNL     1      27.654   6.157  48.316  1.00  0.00     0.138 A 
HETATM   15  F1  UNL     1      28.651   6.733  47.581  1.00  0.00    -0.204 F 
HETATM   16  C17 UNL     1      26.570   6.868  48.762  1.00  0.00     0.074 A 
HETATM   17 CL1  UNL     1      26.447   8.575  48.384  1.00  0.00    -0.081 Cl
HETATM   18  C18 UNL     1      25.610   6.182  49.504  1.00  0.00     0.056 A 
ENDBRANCH   9  11
ENDBRANCH   8   9
ENDBRANCH   6   7
BRANCH   1  19
HETATM   19  N2  UNL     1      23.018   1.400  53.121  1.00  0.00    -0.386 N 
HETATM   20  H9  UNL     1      22.859   1.949  53.994  1.00  0.00     0.159 HD
BRANCH  19  21
HETATM   21  C5  UNL     1      23.974   0.322  53.266  1.00  0.00     0.147 C 
BRANCH  21  22
HETATM   22  C4  UNL     1      25.321   0.606  52.676  1.00  0.00     0.133 C 
HETATM   23  C2  UNL     1      25.938   1.877  53.238  1.00  0.00     0.154 C 
HETATM   24  C1  UNL     1      27.171   2.191  52.433  1.00  0.00     0.042 C 
HETATM   25  O1  UNL     1      26.343   1.436  54.522  1.00  0.00    -0.297 OA
HETATM   26  C3  UNL     1      26.934   0.178  54.352  1.00  0.00     0.361 C 
HETATM   27  O2  UNL     1      27.862  -0.298  55.064  1.00  0.00    -0.238 OA
HETATM   28  N1  UNL     1      26.242  -0.379  53.229  1.00  0.00    -0.328 N 
HETATM   29  H5  UNL     1      26.433  -1.355  52.921  1.00  0.00     0.165 HD
ENDBRANCH  21  22
ENDBRANCH  19  21
ENDBRANCH   1  19
TORSDOF 6
ENDMDL
MODEL 7
REMARK VINA RESULT:      -7.6      6.280      8.079
REMARK  6 active torsions:
REMARK  status: ('A' for Active; 'I' for Inactive)
REMARK    1  A    between atoms: C4_7  and  C5_8 
REMARK    2  A    between atoms: C5_8  and  N2_9 
REMARK    3  A    between atoms: N2_9  and  C6_10 
REMARK    4  A    between atoms: C10_15  and  C11_16 
REMARK    5  A    between atoms: C12_17  and  N4_18 
REMARK    6  A    between atoms: N4_18  and  C13_19 
ROOT
HETATM    1  C6  UNL     1      26.346   7.195  49.664  1.00  0.00     0.057 A 
HETATM    2  C7  UNL     1      25.608   8.204  50.235  1.00  0.00     0.033 A 
HETATM    3  C8  UNL     1      24.328   7.999  50.697  1.00  0.00     0.022 A 
HETATM    4  C9  UNL     1      23.851   6.698  50.537  1.00  0.00     0.117 A 
HETATM    5  N3  UNL     1      24.585   5.718  49.976  1.00  0.00    -0.259 NA
HETATM    6  C10 UNL     1      25.835   5.921  49.525  1.00  0.00     0.084 A 
ENDROOT
BRANCH   6   7
HETATM    7  C11 UNL     1      26.578   4.822  48.928  1.00  0.00     0.051 C 
HETATM    8  C12 UNL     1      26.819   3.728  49.631  1.00  0.00     0.090 C 
BRANCH   8   9
HETATM    9  N4  UNL     1      26.418   3.493  50.960  1.00  0.00    -0.366 N 
HETATM   10  H15 UNL     1      26.675   4.265  51.607  1.00  0.00     0.165 HD
BRANCH   9  11
HETATM   11  C13 UNL     1      25.744   2.473  51.688  1.00  0.00     0.033 A 
HETATM   12  C14 UNL     1      24.508   2.526  52.312  1.00  0.00     0.032 A 
HETATM   13  C15 UNL     1      24.014   1.440  52.972  1.00  0.00     0.046 A 
HETATM   14  C16 UNL     1      24.742   0.290  53.017  1.00  0.00     0.138 A 
HETATM   15  F1  UNL     1      24.162  -0.741  53.701  1.00  0.00    -0.204 F 
HETATM   16  C17 UNL     1      25.971   0.173  52.421  1.00  0.00     0.074 A 
HETATM   17 CL1  UNL     1      26.839  -1.346  52.531  1.00  0.00    -0.081 Cl
HETATM   18  C18 UNL     1      26.470   1.288  51.749  1.00  0.00     0.056 A 
ENDBRANCH   9  11
ENDBRANCH   8   9
ENDBRANCH   6   7
BRANCH   1  19
HETATM   19  N2  UNL     1      27.662   7.489  49.211  1.00  0.00    -0.386 N 
HETATM   20  H9  UNL     1      28.308   6.791  48.782  1.00  0.00     0.159 HD
BRANCH  19  21
HETATM   21  C5  UNL     1      28.217   8.821  49.320  1.00  0.00     0.147 C 
BRANCH  21  22
HETATM   22  C4  UNL     1      29.709   8.882  49.202  1.00  0.00     0.133 C 
HETATM   23  C2  UNL     1      30.158   9.290  47.808  1.00  0.00     0.154 C 
HETATM   24  C1  UNL     1      31.651   9.110  47.729  1.00  0.00     0.042 C 
HETATM   25  O1  UNL     1      29.877  10.679  47.829  1.00  0.00    -0.297 OA
HETATM   26  C3  UNL     1      30.317  11.164  49.067  1.00  0.00     0.361 C 
HETATM   27  O2  UNL     1      30.752  12.330  49.285  1.00  0.00    -0.238 OA
HETATM   28  N1  UNL     1      30.146  10.053  49.953  1.00  0.00    -0.328 N 
HETATM   29  H5  UNL     1      30.331  10.155  50.973  1.00  0.00     0.165 HD
ENDBRANCH  21  22
ENDBRANCH  19  21
ENDBRANCH   1  19
TORSDOF 6
ENDMDL
MODEL 8
REMARK VINA RESULT:      -7.5      4.462      7.505
REMARK  6 active torsions:
REMARK  status: ('A' for Active; 'I' for Inactive)
REMARK    1  A    between atoms: C4_7  and  C5_8 
REMARK    2  A    between atoms: C5_8  and  N2_9 
REMARK    3  A    between atoms: N2_9  and  C6_10 
REMARK    4  A    between atoms: C10_15  and  C11_16 
REMARK    5  A    between atoms: C12_17  and  N4_18 
REMARK    6  A    between atoms: N4_18  and  C13_19 
ROOT
HETATM    1  C6  UNL     1      23.879   3.920  50.226  1.00  0.00     0.057 A 
HETATM    2  C7  UNL     1      23.522   3.575  48.944  1.00  0.00     0.033 A 
HETATM    3  C8  UNL     1      22.734   2.479  48.676  1.00  0.00     0.022 A 
HETATM    4  C9  UNL     1      22.335   1.759  49.802  1.00  0.00     0.117 A 
HETATM    5  N3  UNL     1      22.691   2.108  51.053  1.00  0.00    -0.259 NA
HETATM    6  C10 UNL     1      23.461   3.178  51.311  1.00  0.00     0.084 A 
ENDROOT
BRANCH   6   7
HETATM    7  C11 UNL     1      23.813   3.504  52.686  1.00  0.00     0.051 C 
HETATM    8  C12 UNL     1      24.840   2.906  53.264  1.00  0.00     0.090 C 
BRANCH   8   9
HETATM    9  N4  UNL     1      25.677   1.940  52.672  1.00  0.00    -0.366 N 
HETATM   10  H15 UNL     1      25.335   1.617  51.744  1.00  0.00     0.165 HD
BRANCH   9  11
HETATM   11  C13 UNL     1      26.886   1.261  52.991  1.00  0.00     0.033 A 
HETATM   12  C14 UNL     1      28.078   1.789  53.460  1.00  0.00     0.032 A 
HETATM   13  C15 UNL     1      29.146   0.981  53.715  1.00  0.00     0.046 A 
HETATM   14  C16 UNL     1      29.039  -0.361  53.507  1.00  0.00     0.138 A 
HETATM   15  F1  UNL     1      30.162  -1.086  53.791  1.00  0.00    -0.204 F 
HETATM   16  C17 UNL     1      27.888  -0.946  53.045  1.00  0.00     0.074 A 
HETATM   17 CL1  UNL     1      27.841  -2.681  52.806  1.00  0.00    -0.081 Cl
HETATM   18  C18 UNL     1      26.801  -0.112  52.786  1.00  0.00     0.056 A 
ENDBRANCH   9  11
ENDBRANCH   8   9
ENDBRANCH   6   7
BRANCH   1  19
HETATM   19  N2  UNL     1      24.696   5.068  50.417  1.00  0.00    -0.386 N 
HETATM   20  H9  UNL     1      24.413   5.909  50.967  1.00  0.00     0.159 HD
BRANCH  19  21
HETATM   21  C5  UNL     1      26.022   5.154  49.843  1.00  0.00     0.147 C 
BRANCH  21  22
HETATM   22  C4  UNL     1      26.186   6.240  48.824  1.00  0.00     0.133 C 
HETATM   23  C2  UNL     1      24.990   7.177  48.786  1.00  0.00     0.154 C 
HETATM   24  C1  UNL     1      25.149   8.087  47.597  1.00  0.00     0.042 C 
HETATM   25  O1  UNL     1      25.205   7.938  49.962  1.00  0.00    -0.297 OA
HETATM   26  C3  UNL     1      26.568   8.259  49.995  1.00  0.00     0.361 C 
HETATM   27  O2  UNL     1      27.063   9.304  50.505  1.00  0.00    -0.238 OA
HETATM   28  N1  UNL     1      27.198   7.154  49.339  1.00  0.00    -0.328 N 
HETATM   29  H5  UNL     1      28.236   7.094  49.283  1.00  0.00     0.165 HD
ENDBRANCH  21  22
ENDBRANCH  19  21
ENDBRANCH   1  19
TORSDOF 6
ENDMDL
MODEL 9
REMARK VINA RESULT:      -7.5      2.454      3.191
REMARK  6 active torsions:
REMARK  status: ('A' for Active; 'I' for Inactive)
REMARK    1  A    between atoms: C4_7  and  C5_8 
REMARK    2  A    between atoms: C5_8  and  N2_9 
REMARK    3  A    between atoms: N2_9  and  C6_10 
REMARK    4  A    between atoms: C10_15  and  C11_16 
REMARK    5  A    between atoms: C12_17  and  N4_18 
REMARK    6  A    between atoms: N4_18  and  C13_19 
ROOT
HETATM    1  C6  UNL     1      25.938   2.831  51.184  1.00  0.00     0.057 A 
HETATM    2  C7  UNL     1      26.274   3.398  49.977  1.00  0.00     0.033 A 
HETATM    3  C8  UNL     1      25.437   4.274  49.325  1.00  0.00     0.022 A 
HETATM    4  C9  UNL     1      24.236   4.535  49.985  1.00  0.00     0.117 A 
HETATM    5  N3  UNL     1      23.919   3.973  51.168  1.00  0.00    -0.259 NA
HETATM    6  C10 UNL     1      24.738   3.117  51.802  1.00  0.00     0.084 A 
ENDROOT
BRANCH   6   7
HETATM    7  C11 UNL     1      24.339   2.542  53.078  1.00  0.00     0.051 C 
HETATM    8  C12 UNL     1      23.464   1.552  53.112  1.00  0.00     0.090 C 
BRANCH   8   9
HETATM    9  N4  UNL     1      22.841   0.959  51.997  1.00  0.00    -0.366 N 
HETATM   10  H15 UNL     1      23.495   0.398  51.414  1.00  0.00     0.165 HD
BRANCH   9  11
HETATM   11  C13 UNL     1      21.538   0.906  51.427  1.00  0.00     0.033 A 
HETATM   12  C14 UNL     1      20.402   0.285  51.920  1.00  0.00     0.032 A 
HETATM   13  C15 UNL     1      19.226   0.339  51.231  1.00  0.00     0.046 A 
HETATM   14  C16 UNL     1      19.168   1.009  50.048  1.00  0.00     0.138 A 
HETATM   15  F1  UNL     1      17.947   1.006  49.434  1.00  0.00    -0.204 F 
HETATM   16  C17 UNL     1      20.256   1.644  49.507  1.00  0.00     0.074 A 
HETATM   17 CL1  UNL     1      20.090   2.483  47.977  1.00  0.00    -0.081 Cl
HETATM   18  C18 UNL     1      21.455   1.584  50.216  1.00  0.00     0.056 A 
ENDBRANCH   9  11
ENDBRANCH   8   9
ENDBRANCH   6   7
BRANCH   1  19
HETATM   19  N2  UNL     1      26.858   1.934  51.792  1.00  0.00    -0.386 N 
HETATM   20  H9  UNL     1      27.713   2.228  52.312  1.00  0.00     0.159 HD
BRANCH  19  21
HETATM   21  C5  UNL     1      26.667   0.501  51.730  1.00  0.00     0.147 C 
BRANCH  21  22
HETATM   22  C4  UNL     1      27.506  -0.279  52.696  1.00  0.00     0.133 C 
HETATM   23  C2  UNL     1      28.168   0.615  53.733  1.00  0.00     0.154 C 
HETATM   24  C1  UNL     1      29.150  -0.220  54.509  1.00  0.00     0.042 C 
HETATM   25  O1  UNL     1      27.068   0.911  54.576  1.00  0.00    -0.297 OA
HETATM   26  C3  UNL     1      26.372  -0.288  54.772  1.00  0.00     0.361 C 
HETATM   27  O2  UNL     1      25.720  -0.596  55.809  1.00  0.00    -0.238 OA
HETATM   28  N1  UNL     1      26.588  -1.014  53.557  1.00  0.00    -0.328 N 
HETATM   29  H5  UNL     1      26.117  -1.929  53.396  1.00  0.00     0.165 HD
ENDBRANCH  21  22
ENDBRANCH  19  21
ENDBRANCH   1  19
TORSDOF 6
ENDMDL
