MODEL 1
REMARK VINA RESULT:      -9.1      0.000      0.000
REMARK  5 active torsions:
REMARK  status: ('A' for Active; 'I' for Inactive)
REMARK    1  A    between atoms: C4_5  and  N2_6 
REMARK    2  A    between atoms: N2_6  and  C5_7 
REMARK    3  A    between atoms: N3_17  and  C14_18 
REMARK    4  A    between atoms: C14_18  and  C15_19 
REMARK    5  A    between atoms: C19_25  and  O2_26 
ROOT
HETATM    1  N1  UNL     1      27.144  -2.120  52.723  1.00  0.00    -0.191 NA
HETATM    2  C1  UNL     1      26.695  -1.076  52.509  1.00  0.00     0.100 C 
HETATM    3  C2  UNL     1      26.127   0.226  52.219  1.00  0.00     0.053 A 
HETATM    4  C3  UNL     1      26.799   1.190  51.562  1.00  0.00     0.025 A 
HETATM    5  C4  UNL     1      26.177   2.504  51.290  1.00  0.00     0.130 A 
HETATM    6  C11 UNL     1      24.810   2.607  51.798  1.00  0.00     0.011 A 
HETATM    7  C12 UNL     1      24.099   1.701  52.448  1.00  0.00    -0.030 A 
HETATM    8  C13 UNL     1      22.673   1.989  52.906  1.00  0.00     0.159 C 
HETATM    9  N3  UNL     1      21.978   0.820  53.203  1.00  0.00    -0.379 N 
HETATM   10  C19 UNL     1      22.663  -0.264  53.816  1.00  0.00     0.241 C 
HETATM   11  C20 UNL     1      24.057  -0.476  53.338  1.00  0.00     0.039 C 
HETATM   12  C21 UNL     1      24.775   0.435  52.682  1.00  0.00    -0.008 A 
ENDROOT
BRANCH   5  13
HETATM   13  N2  UNL     1      26.241   2.844  49.888  1.00  0.00    -0.379 N 
HETATM   14  H3  UNL     1      26.173   2.051  49.215  1.00  0.00     0.160 HD
BRANCH  13  15
HETATM   15  C5  UNL     1      26.386   4.145  49.341  1.00  0.00     0.029 A 
HETATM   16  C6  UNL     1      25.344   5.036  49.197  1.00  0.00     0.029 A 
HETATM   17  C7  UNL     1      25.501   6.311  48.666  1.00  0.00     0.004 A 
HETATM   18  C8  UNL     1      26.760   6.691  48.266  1.00  0.00     0.019 A 
HETATM   19  C9  UNL     1      27.836   5.837  48.389  1.00  0.00     0.013 A 
HETATM   20 BR1  UNL     1      29.581   6.363  47.836  1.00  0.00    -0.051 Br
HETATM   21  C10 UNL     1      27.597   4.605  48.921  1.00  0.00     0.048 A 
ENDBRANCH  13  15
ENDBRANCH   5  13
BRANCH  10  22
HETATM   22  O2  UNL     1      21.888  -1.416  53.582  1.00  0.00    -0.373 OA
HETATM   23  H20 UNL     1      21.739  -1.502  52.600  1.00  0.00     0.212 HD
ENDBRANCH  10  22
BRANCH   9  24
HETATM   24  C14 UNL     1      20.614   0.666  52.979  1.00  0.00     0.145 C 
BRANCH  24  25
HETATM   25  C15 UNL     1      20.179   0.674  51.565  1.00  0.00     0.102 C 
HETATM   26  C16 UNL     1      19.660   1.917  50.968  1.00  0.00     0.036 C 
HETATM   27  C17 UNL     1      20.800   2.408  50.072  1.00  0.00     0.105 C 
HETATM   28  C18 UNL     1      21.324   1.131  49.536  1.00  0.00     0.218 C 
HETATM   29  O1  UNL     1      21.742   0.649  48.454  1.00  0.00    -0.274 OA
HETATM   30  N4  UNL     1      21.292   0.289  50.694  1.00  0.00    -0.355 N 
HETATM   31  H18 UNL     1      21.893  -0.519  51.015  1.00  0.00     0.162 HD
ENDBRANCH  24  25
ENDBRANCH   9  24
TORSDOF 5
ENDMDL
MODEL 2
REMARK VINA RESULT:      -9.1      3.806      7.492
REMARK  5 active torsions:
REMARK  status: ('A' for Active; 'I' for Inactive)
REMARK    1  A    between atoms: C4_5  and  N2_6 
REMARK    2  A    between atoms: N2_6  and  C5_7 
REMARK    3  A    between atoms: N3_17  and  C14_18 
REMARK    4  A    between atoms: C14_18  and  C15_19 
REMARK    5  A    between atoms: C19_25  and  O2_26 
ROOT
HETATM    1  N1  UNL     1      25.235  -1.244  56.402  1.00  0.00    -0.191 NA
HETATM    2  C1  UNL     1      24.489  -1.050  55.540  1.00  0.00     0.100 C 
HETATM    3  C2  UNL     1      23.543  -0.792  54.472  1.00  0.00     0.053 A 
HETATM    4  C3  UNL     1      22.327  -1.367  54.414  1.00  0.00     0.025 A 
HETATM    5  C4  UNL     1      21.396  -1.072  53.303  1.00  0.00     0.130 A 
HETATM    6  C11 UNL     1      21.941  -0.123  52.335  1.00  0.00     0.011 A 
HETATM    7  C12 UNL     1      23.122   0.474  52.336  1.00  0.00    -0.030 A 
HETATM    8  C13 UNL     1      23.523   1.444  51.231  1.00  0.00     0.159 C 
HETATM    9  N3  UNL     1      24.597   2.244  51.607  1.00  0.00    -0.379 N 
HETATM   10  C19 UNL     1      25.633   1.691  52.409  1.00  0.00     0.241 C 
HETATM   11  C20 UNL     1      25.174   0.736  53.455  1.00  0.00     0.039 C 
HETATM   12  C21 UNL     1      23.985   0.134  53.457  1.00  0.00    -0.008 A 
ENDROOT
BRANCH   5  13
HETATM   13  N2  UNL     1      20.107  -0.641  53.789  1.00  0.00    -0.379 N 
HETATM   14  H3  UNL     1      20.089  -0.209  54.737  1.00  0.00     0.160 HD
BRANCH  13  15
HETATM   15  C5  UNL     1      18.867  -0.749  53.105  1.00  0.00     0.029 A 
HETATM   16  C6  UNL     1      17.877  -1.642  53.453  1.00  0.00     0.029 A 
HETATM   17  C7  UNL     1      16.664  -1.734  52.779  1.00  0.00     0.004 A 
HETATM   18  C8  UNL     1      16.454  -0.888  51.716  1.00  0.00     0.019 A 
HETATM   19  C9  UNL     1      17.413   0.025  51.329  1.00  0.00     0.013 A 
HETATM   20 BR1  UNL     1      17.122   1.196  49.856  1.00  0.00    -0.051 Br
HETATM   21  C10 UNL     1      18.573   0.050  52.043  1.00  0.00     0.048 A 
ENDBRANCH  13  15
ENDBRANCH   5  13
BRANCH  10  22
HETATM   22  O2  UNL     1      26.307   2.776  53.002  1.00  0.00    -0.373 OA
HETATM   23  H20 UNL     1      26.399   2.594  53.978  1.00  0.00     0.212 HD
ENDBRANCH  10  22
BRANCH   9  24
HETATM   24  C14 UNL     1      24.748   3.564  51.195  1.00  0.00     0.145 C 
BRANCH  24  25
HETATM   25  C15 UNL     1      25.284   3.764  49.831  1.00  0.00     0.102 C 
HETATM   26  C16 UNL     1      24.867   4.940  49.048  1.00  0.00     0.036 C 
HETATM   27  C17 UNL     1      26.081   5.871  49.093  1.00  0.00     0.105 C 
HETATM   28  C18 UNL     1      27.198   4.902  49.008  1.00  0.00     0.218 C 
HETATM   29  O1  UNL     1      28.312   4.775  48.441  1.00  0.00    -0.274 OA
HETATM   30  N4  UNL     1      26.745   3.853  49.871  1.00  0.00    -0.355 N 
HETATM   31  H18 UNL     1      27.249   3.167  50.497  1.00  0.00     0.162 HD
ENDBRANCH  24  25
ENDBRANCH   9  24
TORSDOF 5
ENDMDL
MODEL 3
REMARK VINA RESULT:      -8.9      1.386      1.636
REMARK  5 active torsions:
REMARK  status: ('A' for Active; 'I' for Inactive)
REMARK    1  A    between atoms: C4_5  and  N2_6 
REMARK    2  A    between atoms: N2_6  and  C5_7 
REMARK    3  A    between atoms: N3_17  and  C14_18 
REMARK    4  A    between atoms: C14_18  and  C15_19 
REMARK    5  A    between atoms: C19_25  and  O2_26 
ROOT
HETATM    1  N1  UNL     1      27.394  -1.837  53.006  1.00  0.00    -0.191 NA
HETATM    2  C1  UNL     1      26.882  -0.838  52.726  1.00  0.00     0.100 C 
HETATM    3  C2  UNL     1      26.236   0.405  52.355  1.00  0.00     0.053 A 
HETATM    4  C3  UNL     1      26.871   1.394  51.698  1.00  0.00     0.025 A 
HETATM    5  C4  UNL     1      26.169   2.647  51.341  1.00  0.00     0.130 A 
HETATM    6  C11 UNL     1      24.771   2.662  51.769  1.00  0.00     0.011 A 
HETATM    7  C12 UNL     1      24.093   1.727  52.414  1.00  0.00    -0.030 A 
HETATM    8  C13 UNL     1      22.626   1.920  52.781  1.00  0.00     0.159 C 
HETATM    9  N3  UNL     1      22.004   0.712  53.085  1.00  0.00    -0.379 N 
HETATM   10  C19 UNL     1      22.731  -0.294  53.777  1.00  0.00     0.241 C 
HETATM   11  C20 UNL     1      24.163  -0.415  53.385  1.00  0.00     0.039 C 
HETATM   12  C21 UNL     1      24.848   0.525  52.734  1.00  0.00    -0.008 A 
ENDROOT
BRANCH   5  13
HETATM   13  N2  UNL     1      26.288   2.941  49.933  1.00  0.00    -0.379 N 
HETATM   14  H3  UNL     1      26.269   2.125  49.286  1.00  0.00     0.160 HD
BRANCH  13  15
HETATM   15  C5  UNL     1      26.428   4.227  49.349  1.00  0.00     0.029 A 
HETATM   16  C6  UNL     1      25.385   5.113  49.191  1.00  0.00     0.029 A 
HETATM   17  C7  UNL     1      25.536   6.373  48.623  1.00  0.00     0.004 A 
HETATM   18  C8  UNL     1      26.792   6.742  48.201  1.00  0.00     0.019 A 
HETATM   19  C9  UNL     1      27.869   5.891  48.337  1.00  0.00     0.013 A 
HETATM   20 BR1  UNL     1      29.608   6.402  47.752  1.00  0.00    -0.051 Br
HETATM   21  C10 UNL     1      27.635   4.675  48.905  1.00  0.00     0.048 A 
ENDBRANCH  13  15
ENDBRANCH   5  13
BRANCH  10  22
HETATM   22  O2  UNL     1      22.059  -1.509  53.546  1.00  0.00    -0.373 OA
HETATM   23  H20 UNL     1      22.482  -1.960  52.763  1.00  0.00     0.212 HD
ENDBRANCH  10  22
BRANCH   9  24
HETATM   24  C14 UNL     1      20.670   0.446  52.792  1.00  0.00     0.145 C 
BRANCH  24  25
HETATM   25  C15 UNL     1      20.088   1.198  51.660  1.00  0.00     0.102 C 
HETATM   26  C16 UNL     1      19.128   0.535  50.760  1.00  0.00     0.036 C 
HETATM   27  C17 UNL     1      17.771   1.119  51.161  1.00  0.00     0.105 C 
HETATM   28  C18 UNL     1      18.131   2.526  51.452  1.00  0.00     0.218 C 
HETATM   29  O1  UNL     1      17.683   3.685  51.264  1.00  0.00    -0.274 OA
HETATM   30  N4  UNL     1      19.370   2.375  52.153  1.00  0.00    -0.355 N 
HETATM   31  H18 UNL     1      19.836   2.933  52.921  1.00  0.00     0.162 HD
ENDBRANCH  24  25
ENDBRANCH   9  24
TORSDOF 5
ENDMDL
MODEL 4
REMARK VINA RESULT:      -8.9      5.010      8.998
REMARK  5 active torsions:
REMARK  status: ('A' for Active; 'I' for Inactive)
REMARK    1  A    between atoms: C4_5  and  N2_6 
REMARK    2  A    between atoms: N2_6  and  C5_7 
REMARK    3  A    between atoms: N3_17  and  C14_18 
REMARK    4  A    between atoms: C14_18  and  C15_19 
REMARK    5  A    between atoms: C19_25  and  O2_26 
ROOT
HETATM    1  N1  UNL     1      21.279   2.933  50.587  1.00  0.00    -0.191 NA
HETATM    2  C1  UNL     1      21.383   2.172  51.452  1.00  0.00     0.100 C 
HETATM    3  C2  UNL     1      21.512   1.201  52.521  1.00  0.00     0.053 A 
HETATM    4  C3  UNL     1      20.452   0.620  53.116  1.00  0.00     0.025 A 
HETATM    5  C4  UNL     1      20.633  -0.366  54.204  1.00  0.00     0.130 A 
HETATM    6  C11 UNL     1      22.038  -0.613  54.525  1.00  0.00     0.011 A 
HETATM    7  C12 UNL     1      23.118  -0.077  53.980  1.00  0.00    -0.030 A 
HETATM    8  C13 UNL     1      24.518  -0.459  54.449  1.00  0.00     0.159 C 
HETATM    9  N3  UNL     1      25.491  -0.106  53.519  1.00  0.00    -0.379 N 
HETATM   10  C19 UNL     1      25.347   1.101  52.782  1.00  0.00     0.241 C 
HETATM   11  C20 UNL     1      23.952   1.425  52.373  1.00  0.00     0.039 C 
HETATM   12  C21 UNL     1      22.863   0.885  52.919  1.00  0.00    -0.008 A 
ENDROOT
BRANCH   5  13
HETATM   13  N2  UNL     1      19.935  -1.598  53.927  1.00  0.00    -0.379 N 
HETATM   14  H3  UNL     1      20.459  -2.480  54.114  1.00  0.00     0.160 HD
BRANCH  13  15
HETATM   15  C5  UNL     1      18.613  -1.726  53.427  1.00  0.00     0.029 A 
HETATM   16  C6  UNL     1      17.971  -0.744  52.705  1.00  0.00     0.029 A 
HETATM   17  C7  UNL     1      16.677  -0.882  52.214  1.00  0.00     0.004 A 
HETATM   18  C8  UNL     1      16.016  -2.061  52.469  1.00  0.00     0.019 A 
HETATM   19  C9  UNL     1      16.615  -3.075  53.187  1.00  0.00     0.013 A 
HETATM   20 BR1  UNL     1      15.699  -4.707  53.541  1.00  0.00    -0.051 Br
HETATM   21  C10 UNL     1      17.885  -2.858  53.631  1.00  0.00     0.048 A 
ENDBRANCH  13  15
ENDBRANCH   5  13
BRANCH  10  22
HETATM   22  O2  UNL     1      26.171   0.980  51.646  1.00  0.00    -0.373 OA
HETATM   23  H20 UNL     1      26.990   0.472  51.902  1.00  0.00     0.212 HD
ENDBRANCH  10  22
BRANCH   9  24
HETATM   24  C14 UNL     1      26.644  -0.852  53.301  1.00  0.00     0.145 C 
BRANCH  24  25
HETATM   25  C15 UNL     1      27.792  -0.551  54.184  1.00  0.00     0.102 C 
HETATM   26  C16 UNL     1      29.154  -0.928  53.766  1.00  0.00     0.036 C 
HETATM   27  C17 UNL     1      29.801   0.395  53.352  1.00  0.00     0.105 C 
HETATM   28  C18 UNL     1      29.236   1.325  54.357  1.00  0.00     0.218 C 
HETATM   29  O1  UNL     1      29.600   2.287  55.080  1.00  0.00    -0.274 OA
HETATM   30  N4  UNL     1      27.875   0.890  54.431  1.00  0.00    -0.355 N 
HETATM   31  H18 UNL     1      26.966   1.396  54.623  1.00  0.00     0.162 HD
ENDBRANCH  24  25
ENDBRANCH   9  24
TORSDOF 5
ENDMDL
MODEL 5
REMARK VINA RESULT:      -8.9      3.171      6.452
REMARK  5 active torsions:
REMARK  status: ('A' for Active; 'I' for Inactive)
REMARK    1  A    between atoms: C4_5  and  N2_6 
REMARK    2  A    between atoms: N2_6  and  C5_7 
REMARK    3  A    between atoms: N3_17  and  C14_18 
REMARK    4  A    between atoms: C14_18  and  C15_19 
REMARK    5  A    between atoms: C19_25  and  O2_26 
ROOT
HETATM    1  N1  UNL     1      23.739   8.272  48.510  1.00  0.00    -0.191 NA
HETATM    2  C1  UNL     1      24.642   7.551  48.518  1.00  0.00     0.100 C 
HETATM    3  C2  UNL     1      25.783   6.656  48.548  1.00  0.00     0.053 A 
HETATM    4  C3  UNL     1      27.003   7.008  48.102  1.00  0.00     0.025 A 
HETATM    5  C4  UNL     1      28.137   6.059  48.152  1.00  0.00     0.130 A 
HETATM    6  C11 UNL     1      27.775   4.764  48.725  1.00  0.00     0.011 A 
HETATM    7  C12 UNL     1      26.600   4.359  49.179  1.00  0.00    -0.030 A 
HETATM    8  C13 UNL     1      26.407   2.957  49.746  1.00  0.00     0.159 C 
HETATM    9  N3  UNL     1      25.250   2.862  50.513  1.00  0.00    -0.379 N 
HETATM   10  C19 UNL     1      24.089   3.580  50.117  1.00  0.00     0.241 C 
HETATM   11  C20 UNL     1      24.350   4.933  49.552  1.00  0.00     0.039 C 
HETATM   12  C21 UNL     1      25.532   5.344  49.095  1.00  0.00    -0.008 A 
ENDROOT
BRANCH   5  13
HETATM   13  N2  UNL     1      29.278   6.629  48.828  1.00  0.00    -0.379 N 
HETATM   14  H3  UNL     1      29.075   7.330  49.571  1.00  0.00     0.160 HD
BRANCH  13  15
HETATM   15  C5  UNL     1      30.643   6.328  48.579  1.00  0.00     0.029 A 
HETATM   16  C6  UNL     1      31.694   7.025  49.137  1.00  0.00     0.029 A 
HETATM   17  C7  UNL     1      33.027   6.717  48.890  1.00  0.00     0.004 A 
HETATM   18  C8  UNL     1      33.299   5.665  48.048  1.00  0.00     0.019 A 
HETATM   19  C9  UNL     1      32.283   4.936  47.465  1.00  0.00     0.013 A 
HETATM   20 BR1  UNL     1      32.660   3.480  46.297  1.00  0.00    -0.051 Br
HETATM   21  C10 UNL     1      31.004   5.303  47.759  1.00  0.00     0.048 A 
ENDBRANCH  13  15
ENDBRANCH   5  13
BRANCH  10  22
HETATM   22  O2  UNL     1      23.266   3.679  51.256  1.00  0.00    -0.373 OA
HETATM   23  H20 UNL     1      23.446   4.553  51.700  1.00  0.00     0.212 HD
ENDBRANCH  10  22
BRANCH   9  24
HETATM   24  C14 UNL     1      25.143   2.050  51.637  1.00  0.00     0.145 C 
BRANCH  24  25
HETATM   25  C15 UNL     1      26.416   1.610  52.248  1.00  0.00     0.102 C 
HETATM   26  C16 UNL     1      26.689   1.911  53.664  1.00  0.00     0.036 C 
HETATM   27  C17 UNL     1      26.493   0.572  54.377  1.00  0.00     0.105 C 
HETATM   28  C18 UNL     1      27.051  -0.375  53.384  1.00  0.00     0.218 C 
HETATM   29  O1  UNL     1      27.771  -1.404  53.345  1.00  0.00    -0.274 OA
HETATM   30  N4  UNL     1      26.544   0.154  52.155  1.00  0.00    -0.355 N 
HETATM   31  H18 UNL     1      26.262  -0.293  51.239  1.00  0.00     0.162 HD
ENDBRANCH  24  25
ENDBRANCH   9  24
TORSDOF 5
ENDMDL
MODEL 6
REMARK VINA RESULT:      -8.8      1.763      2.152
REMARK  5 active torsions:
REMARK  status: ('A' for Active; 'I' for Inactive)
REMARK    1  A    between atoms: C4_5  and  N2_6 
REMARK    2  A    between atoms: N2_6  and  C5_7 
REMARK    3  A    between atoms: N3_17  and  C14_18 
REMARK    4  A    between atoms: C14_18  and  C15_19 
REMARK    5  A    between atoms: C19_25  and  O2_26 
ROOT
HETATM    1  N1  UNL     1      27.478  -1.682  53.073  1.00  0.00    -0.191 NA
HETATM    2  C1  UNL     1      26.949  -0.702  52.762  1.00  0.00     0.100 C 
HETATM    3  C2  UNL     1      26.284   0.520  52.352  1.00  0.00     0.053 A 
HETATM    4  C3  UNL     1      26.915   1.515  51.699  1.00  0.00     0.025 A 
HETATM    5  C4  UNL     1      26.193   2.743  51.301  1.00  0.00     0.130 A 
HETATM    6  C11 UNL     1      24.783   2.729  51.685  1.00  0.00     0.011 A 
HETATM    7  C12 UNL     1      24.109   1.787  52.324  1.00  0.00    -0.030 A 
HETATM    8  C13 UNL     1      22.626   1.948  52.643  1.00  0.00     0.159 C 
HETATM    9  N3  UNL     1      22.025   0.730  52.946  1.00  0.00    -0.379 N 
HETATM   10  C19 UNL     1      22.756  -0.246  53.676  1.00  0.00     0.241 C 
HETATM   11  C20 UNL     1      24.201  -0.337  53.330  1.00  0.00     0.039 C 
HETATM   12  C21 UNL     1      24.883   0.610  52.686  1.00  0.00    -0.008 A 
ENDROOT
BRANCH   5  13
HETATM   13  N2  UNL     1      26.349   3.019  49.893  1.00  0.00    -0.379 N 
HETATM   14  H3  UNL     1      26.291   2.201  49.251  1.00  0.00     0.160 HD
BRANCH  13  15
HETATM   15  C5  UNL     1      26.572   4.290  49.302  1.00  0.00     0.029 A 
HETATM   16  C6  UNL     1      27.786   4.691  48.786  1.00  0.00     0.029 A 
HETATM   17  C7  UNL     1      27.991   5.937  48.203  1.00  0.00     0.004 A 
HETATM   18  C8  UNL     1      26.925   6.802  48.144  1.00  0.00     0.019 A 
HETATM   19  C9  UNL     1      25.689   6.448  48.646  1.00  0.00     0.013 A 
HETATM   20 BR1  UNL     1      24.212   7.648  48.565  1.00  0.00    -0.051 Br
HETATM   21  C10 UNL     1      25.573   5.209  49.200  1.00  0.00     0.048 A 
ENDBRANCH  13  15
ENDBRANCH   5  13
BRANCH  10  22
HETATM   22  O2  UNL     1      22.122  -1.482  53.444  1.00  0.00    -0.373 OA
HETATM   23  H20 UNL     1      21.320  -1.323  52.873  1.00  0.00     0.212 HD
ENDBRANCH  10  22
BRANCH   9  24
HETATM   24  C14 UNL     1      20.709   0.426  52.617  1.00  0.00     0.145 C 
BRANCH  24  25
HETATM   25  C15 UNL     1      20.098   1.242  51.545  1.00  0.00     0.102 C 
HETATM   26  C16 UNL     1      19.121   0.629  50.628  1.00  0.00     0.036 C 
HETATM   27  C17 UNL     1      17.772   1.182  51.093  1.00  0.00     0.105 C 
HETATM   28  C18 UNL     1      18.134   2.571  51.459  1.00  0.00     0.218 C 
HETATM   29  O1  UNL     1      17.678   3.737  51.351  1.00  0.00    -0.274 OA
HETATM   30  N4  UNL     1      19.388   2.384  52.123  1.00  0.00    -0.355 N 
HETATM   31  H18 UNL     1      19.870   2.897  52.912  1.00  0.00     0.162 HD
ENDBRANCH  24  25
ENDBRANCH   9  24
TORSDOF 5
ENDMDL
MODEL 7
REMARK VINA RESULT:      -8.4      3.346      6.324
REMARK  5 active torsions:
REMARK  status: ('A' for Active; 'I' for Inactive)
REMARK    1  A    between atoms: C4_5  and  N2_6 
REMARK    2  A    between atoms: N2_6  and  C5_7 
REMARK    3  A    between atoms: N3_17  and  C14_18 
REMARK    4  A    between atoms: C14_18  and  C15_19 
REMARK    5  A    between atoms: C19_25  and  O2_26 
ROOT
HETATM    1  N1  UNL     1      25.047   9.047  47.460  1.00  0.00    -0.191 NA
HETATM    2  C1  UNL     1      25.753   8.167  47.710  1.00  0.00     0.100 C 
HETATM    3  C2  UNL     1      26.645   7.072  48.041  1.00  0.00     0.053 A 
HETATM    4  C3  UNL     1      27.968   7.104  47.793  1.00  0.00     0.025 A 
HETATM    5  C4  UNL     1      28.838   5.962  48.150  1.00  0.00     0.130 A 
HETATM    6  C11 UNL     1      28.110   4.861  48.776  1.00  0.00     0.011 A 
HETATM    7  C12 UNL     1      26.818   4.770  49.046  1.00  0.00    -0.030 A 
HETATM    8  C13 UNL     1      26.230   3.530  49.710  1.00  0.00     0.159 C 
HETATM    9  N3  UNL     1      24.974   3.780  50.255  1.00  0.00    -0.379 N 
HETATM   10  C19 UNL     1      24.080   4.655  49.580  1.00  0.00     0.241 C 
HETATM   11  C20 UNL     1      24.723   5.834  48.937  1.00  0.00     0.039 C 
HETATM   12  C21 UNL     1      26.024   5.928  48.665  1.00  0.00    -0.008 A 
ENDROOT
BRANCH   5  13
HETATM   13  N2  UNL     1      29.957   6.378  48.962  1.00  0.00    -0.379 N 
HETATM   14  H3  UNL     1      29.727   6.807  49.883  1.00  0.00     0.160 HD
BRANCH  13  15
HETATM   15  C5  UNL     1      31.332   6.262  48.628  1.00  0.00     0.029 A 
HETATM   16  C6  UNL     1      32.233   7.301  48.722  1.00  0.00     0.029 A 
HETATM   17  C7  UNL     1      33.579   7.173  48.398  1.00  0.00     0.004 A 
HETATM   18  C8  UNL     1      34.022   5.946  47.964  1.00  0.00     0.019 A 
HETATM   19  C9  UNL     1      33.160   4.874  47.853  1.00  0.00     0.013 A 
HETATM   20 BR1  UNL     1      33.774   3.175  47.250  1.00  0.00    -0.051 Br
HETATM   21  C10 UNL     1      31.857   5.084  48.190  1.00  0.00     0.048 A 
ENDBRANCH  13  15
ENDBRANCH   5  13
BRANCH  10  22
HETATM   22  O2  UNL     1      23.132   5.077  50.532  1.00  0.00    -0.373 OA
HETATM   23  H20 UNL     1      22.678   5.893  50.184  1.00  0.00     0.212 HD
ENDBRANCH  10  22
BRANCH   9  24
HETATM   24  C14 UNL     1      24.512   3.172  51.418  1.00  0.00     0.145 C 
BRANCH  24  25
HETATM   25  C15 UNL     1      24.068   1.767  51.287  1.00  0.00     0.102 C 
HETATM   26  C16 UNL     1      24.138   0.868  52.452  1.00  0.00     0.036 C 
HETATM   27  C17 UNL     1      22.685   0.733  52.912  1.00  0.00     0.105 C 
HETATM   28  C18 UNL     1      21.968   0.711  51.616  1.00  0.00     0.218 C 
HETATM   29  O1  UNL     1      21.016   0.106  51.061  1.00  0.00    -0.274 OA
HETATM   30  N4  UNL     1      22.663   1.719  50.876  1.00  0.00    -0.355 N 
HETATM   31  H18 UNL     1      22.361   2.398  50.123  1.00  0.00     0.162 HD
ENDBRANCH  24  25
ENDBRANCH   9  24
TORSDOF 5
ENDMDL
MODEL 8
REMARK VINA RESULT:      -8.4      4.622      8.745
REMARK  5 active torsions:
REMARK  status: ('A' for Active; 'I' for Inactive)
REMARK    1  A    between atoms: C4_5  and  N2_6 
REMARK    2  A    between atoms: N2_6  and  C5_7 
REMARK    3  A    between atoms: N3_17  and  C14_18 
REMARK    4  A    between atoms: C14_18  and  C15_19 
REMARK    5  A    between atoms: C19_25  and  O2_26 
ROOT
HETATM    1  N1  UNL     1      21.447   5.787  50.374  1.00  0.00    -0.191 NA
HETATM    2  C1  UNL     1      21.351   4.761  50.901  1.00  0.00     0.100 C 
HETATM    3  C2  UNL     1      21.233   3.466  51.541  1.00  0.00     0.053 A 
HETATM    4  C3  UNL     1      20.066   2.803  51.646  1.00  0.00     0.025 A 
HETATM    5  C4  UNL     1      19.995   1.483  52.309  1.00  0.00     0.130 A 
HETATM    6  C11 UNL     1      21.290   1.019  52.801  1.00  0.00     0.011 A 
HETATM    7  C12 UNL     1      22.467   1.619  52.728  1.00  0.00    -0.030 A 
HETATM    8  C13 UNL     1      23.724   0.977  53.304  1.00  0.00     0.159 C 
HETATM    9  N3  UNL     1      24.883   1.555  52.792  1.00  0.00    -0.379 N 
HETATM   10  C19 UNL     1      24.912   2.953  52.537  1.00  0.00     0.241 C 
HETATM   11  C20 UNL     1      23.646   3.519  51.995  1.00  0.00     0.039 C 
HETATM   12  C21 UNL     1      22.460   2.915  52.066  1.00  0.00    -0.008 A 
ENDROOT
BRANCH   5  13
HETATM   13  N2  UNL     1      19.373   0.494  51.460  1.00  0.00    -0.379 N 
HETATM   14  H3  UNL     1      19.775   0.384  50.505  1.00  0.00     0.160 HD
BRANCH  13  15
HETATM   15  C5  UNL     1      18.273  -0.336  51.799  1.00  0.00     0.029 A 
HETATM   16  C6  UNL     1      18.274  -1.211  52.864  1.00  0.00     0.029 A 
HETATM   17  C7  UNL     1      17.187  -2.015  53.190  1.00  0.00     0.004 A 
HETATM   18  C8  UNL     1      16.063  -1.925  52.405  1.00  0.00     0.019 A 
HETATM   19  C9  UNL     1      16.011  -1.065  51.327  1.00  0.00     0.013 A 
HETATM   20 BR1  UNL     1      14.453  -0.941  50.239  1.00  0.00    -0.051 Br
HETATM   21  C10 UNL     1      17.119  -0.312  51.077  1.00  0.00     0.048 A 
ENDBRANCH  13  15
ENDBRANCH   5  13
BRANCH  10  22
HETATM   22  O2  UNL     1      25.970   3.176  51.634  1.00  0.00    -0.373 OA
HETATM   23  H20 UNL     1      26.597   2.403  51.686  1.00  0.00     0.212 HD
ENDBRANCH  10  22
BRANCH   9  24
HETATM   24  C14 UNL     1      26.054   0.840  52.560  1.00  0.00     0.145 C 
BRANCH  24  25
HETATM   25  C15 UNL     1      26.949   0.660  53.724  1.00  0.00     0.102 C 
HETATM   26  C16 UNL     1      27.983  -0.388  53.694  1.00  0.00     0.036 C 
HETATM   27  C17 UNL     1      29.289   0.378  53.474  1.00  0.00     0.105 C 
HETATM   28  C18 UNL     1      29.057   1.594  54.287  1.00  0.00     0.218 C 
HETATM   29  O1  UNL     1      29.677   2.344  55.083  1.00  0.00    -0.274 OA
HETATM   30  N4  UNL     1      27.691   1.895  53.985  1.00  0.00    -0.355 N 
HETATM   31  H18 UNL     1      27.149   2.801  53.922  1.00  0.00     0.162 HD
ENDBRANCH  24  25
ENDBRANCH   9  24
TORSDOF 5
ENDMDL
MODEL 9
REMARK VINA RESULT:      -8.3      4.147      7.451
REMARK  5 active torsions:
REMARK  status: ('A' for Active; 'I' for Inactive)
REMARK    1  A    between atoms: C4_5  and  N2_6 
REMARK    2  A    between atoms: N2_6  and  C5_7 
REMARK    3  A    between atoms: N3_17  and  C14_18 
REMARK    4  A    between atoms: C14_18  and  C15_19 
REMARK    5  A    between atoms: C19_25  and  O2_26 
ROOT
HETATM    1  N1  UNL     1      26.617   1.477  54.360  1.00  0.00    -0.191 NA
HETATM    2  C1  UNL     1      25.694   1.382  53.671  1.00  0.00     0.100 C 
HETATM    3  C2  UNL     1      24.525   1.277  52.818  1.00  0.00     0.053 A 
HETATM    4  C3  UNL     1      23.469   0.497  53.115  1.00  0.00     0.025 A 
HETATM    5  C4  UNL     1      22.298   0.423  52.213  1.00  0.00     0.130 A 
HETATM    6  C11 UNL     1      22.434   1.267  51.028  1.00  0.00     0.011 A 
HETATM    7  C12 UNL     1      23.442   2.052  50.682  1.00  0.00    -0.030 A 
HETATM    8  C13 UNL     1      23.408   2.867  49.393  1.00  0.00     0.159 C 
HETATM    9  N3  UNL     1      24.344   3.897  49.406  1.00  0.00    -0.379 N 
HETATM   10  C19 UNL     1      25.608   3.684  50.021  1.00  0.00     0.241 C 
HETATM   11  C20 UNL     1      25.572   2.863  51.263  1.00  0.00     0.039 C 
HETATM   12  C21 UNL     1      24.558   2.073  51.614  1.00  0.00    -0.008 A 
ENDROOT
BRANCH   5  13
HETATM   13  N2  UNL     1      21.068   0.701  52.914  1.00  0.00    -0.379 N 
HETATM   14  H3  UNL     1      21.093   1.482  53.604  1.00  0.00     0.160 HD
BRANCH  13  15
HETATM   15  C5  UNL     1      19.834   0.017  52.757  1.00  0.00     0.029 A 
HETATM   16  C6  UNL     1      19.386  -0.961  53.618  1.00  0.00     0.029 A 
HETATM   17  C7  UNL     1      18.173  -1.620  53.458  1.00  0.00     0.004 A 
HETATM   18  C8  UNL     1      17.389  -1.270  52.384  1.00  0.00     0.019 A 
HETATM   19  C9  UNL     1      17.791  -0.296  51.493  1.00  0.00     0.013 A 
HETATM   20 BR1  UNL     1      16.705   0.188  50.006  1.00  0.00    -0.051 Br
HETATM   21  C10 UNL     1      18.994   0.301  51.724  1.00  0.00     0.048 A 
ENDBRANCH  13  15
ENDBRANCH   5  13
BRANCH  10  22
HETATM   22  O2  UNL     1      26.144   4.957  50.295  1.00  0.00    -0.373 OA
HETATM   23  H20 UNL     1      26.237   5.452  49.435  1.00  0.00     0.212 HD
ENDBRANCH  10  22
BRANCH   9  24
HETATM   24  C14 UNL     1      24.133   5.129  48.796  1.00  0.00     0.145 C 
BRANCH  24  25
HETATM   25  C15 UNL     1      23.013   5.936  49.326  1.00  0.00     0.102 C 
HETATM   26  C16 UNL     1      22.961   6.258  50.763  1.00  0.00     0.036 C 
HETATM   27  C17 UNL     1      23.364   7.733  50.832  1.00  0.00     0.105 C 
HETATM   28  C18 UNL     1      22.714   8.273  49.616  1.00  0.00     0.218 C 
HETATM   29  O1  UNL     1      22.070   9.287  49.247  1.00  0.00    -0.274 OA
HETATM   30  N4  UNL     1      22.971   7.240  48.660  1.00  0.00    -0.355 N 
HETATM   31  H18 UNL     1      23.126   7.247  47.614  1.00  0.00     0.162 HD
ENDBRANCH  24  25
ENDBRANCH   9  24
TORSDOF 5
ENDMDL
