MODEL 1
REMARK VINA RESULT:      -8.3      0.000      0.000
REMARK  4 active torsions:
REMARK  status: ('A' for Active; 'I' for Inactive)
REMARK    1  A    between atoms: C9_11  and  C10_12 
REMARK    2  A    between atoms: C10_12  and  C11_14 
REMARK    3  A    between atoms: C12_15  and  C13_16 
REMARK    4  A    between atoms: C13_16  and  N3_17 
ROOT
HETATM    1  C1  UNL     1      21.432   4.272  52.330  1.00  0.00     0.015 C 
HETATM    2  C2  UNL     1      22.230   3.452  51.373  1.00  0.00     0.014 C 
HETATM    3  C3  UNL     1      22.780   2.186  52.020  1.00  0.00     0.051 C 
HETATM    4  C4  UNL     1      24.218   2.272  52.393  1.00  0.00     0.215 C 
HETATM    5  C5  UNL     1      24.520   1.042  53.166  1.00  0.00     0.086 C 
HETATM    6  N1  UNL     1      24.751   0.063  53.773  1.00  0.00    -0.195 NA
HETATM    7  N2  UNL     1      25.164   2.285  51.323  1.00  0.00    -0.274 NA
HETATM    8  C6  UNL     1      25.287   2.949  50.245  1.00  0.00     0.038 C 
HETATM    9  C7  UNL     1      26.421   3.248  49.413  1.00  0.00     0.030 C 
HETATM   10  C8  UNL     1      26.798   4.456  49.089  1.00  0.00     0.037 C 
HETATM   11  C9  UNL     1      26.497   5.856  49.253  1.00  0.00     0.101 C 
HETATM   12  N4  UNL     1      25.705   6.501  49.918  1.00  0.00    -0.282 NA
HETATM   13  C18 UNL     1      24.694   6.562  50.830  1.00  0.00     0.177 C 
HETATM   14  C19 UNL     1      23.785   5.430  51.035  1.00  0.00    -0.001 C 
HETATM   15  C20 UNL     1      23.350   4.217  50.741  1.00  0.00    -0.069 C 
HETATM   16  C21 UNL     1      24.120   3.583  49.613  1.00  0.00     0.062 C 
HETATM   17  C22 UNL     1      23.336   2.512  48.892  1.00  0.00     0.021 C 
ENDROOT
BRANCH  11  18
HETATM   18  C10 UNL     1      27.396   6.779  48.491  1.00  0.00     0.199 C 
HETATM   19  O1  UNL     1      26.843   7.859  48.057  1.00  0.00    -0.286 OA
BRANCH  18  20
HETATM   20  C11 UNL     1      28.809   6.636  48.163  1.00  0.00     0.055 C 
HETATM   21  C12 UNL     1      29.917   5.909  47.950  1.00  0.00     0.007 C 
BRANCH  21  22
HETATM   22  C13 UNL     1      31.301   6.234  47.599  1.00  0.00     0.300 C 
BRANCH  22  23
HETATM   23  N3  UNL     1      32.298   5.561  48.434  1.00  0.00     0.096 N 
HETATM   24  C14 UNL     1      33.550   6.324  48.354  1.00  0.00     0.299 C 
HETATM   25  C15 UNL     1      34.701   5.555  48.926  1.00  0.00     0.198 C 
HETATM   26  O2  UNL     1      35.017   4.470  48.136  1.00  0.00    -0.388 OA
HETATM   27  C16 UNL     1      34.002   4.217  47.249  1.00  0.00     0.198 C 
HETATM   28  C17 UNL     1      32.620   4.251  47.870  1.00  0.00     0.299 C 
ENDBRANCH  22  23
ENDBRANCH  21  22
ENDBRANCH  18  20
ENDBRANCH  11  18
TORSDOF 4
ENDMDL
MODEL 2
REMARK VINA RESULT:      -8.2      6.142      9.302
REMARK  4 active torsions:
REMARK  status: ('A' for Active; 'I' for Inactive)
REMARK    1  A    between atoms: C9_11  and  C10_12 
REMARK    2  A    between atoms: C10_12  and  C11_14 
REMARK    3  A    between atoms: C12_15  and  C13_16 
REMARK    4  A    between atoms: C13_16  and  N3_17 
ROOT
HETATM    1  C1  UNL     1      16.871   3.749  50.007  1.00  0.00     0.015 C 
HETATM    2  C2  UNL     1      16.595   2.297  50.211  1.00  0.00     0.014 C 
HETATM    3  C3  UNL     1      15.235   2.055  50.856  1.00  0.00     0.051 C 
HETATM    4  C4  UNL     1      15.302   1.751  52.312  1.00  0.00     0.215 C 
HETATM    5  C5  UNL     1      13.900   1.734  52.796  1.00  0.00     0.086 C 
HETATM    6  N1  UNL     1      12.786   1.719  53.169  1.00  0.00    -0.195 NA
HETATM    7  N2  UNL     1      15.842   0.482  52.682  1.00  0.00    -0.274 NA
HETATM    8  C6  UNL     1      16.897  -0.164  52.384  1.00  0.00     0.038 C 
HETATM    9  C7  UNL     1      17.618  -1.209  53.057  1.00  0.00     0.030 C 
HETATM   10  C8  UNL     1      18.883  -1.145  53.375  1.00  0.00     0.037 C 
HETATM   11  C9  UNL     1      20.058  -0.311  53.323  1.00  0.00     0.101 C 
HETATM   12  N4  UNL     1      20.296   0.833  52.977  1.00  0.00    -0.282 NA
HETATM   13  C18 UNL     1      19.880   2.035  52.486  1.00  0.00     0.177 C 
HETATM   14  C19 UNL     1      18.680   2.142  51.650  1.00  0.00    -0.001 C 
HETATM   15  C20 UNL     1      17.657   1.607  51.008  1.00  0.00    -0.069 C 
HETATM   16  C21 UNL     1      17.616   0.106  51.130  1.00  0.00     0.062 C 
HETATM   17  C22 UNL     1      16.861  -0.558  50.002  1.00  0.00     0.021 C 
ENDROOT
BRANCH  11  18
HETATM   18  C10 UNL     1      21.295  -0.943  53.881  1.00  0.00     0.199 C 
HETATM   19  O1  UNL     1      21.098  -1.880  54.744  1.00  0.00    -0.286 OA
BRANCH  18  20
HETATM   20  C11 UNL     1      22.695  -0.654  53.594  1.00  0.00     0.055 C 
HETATM   21  C12 UNL     1      23.779   0.137  53.617  1.00  0.00     0.007 C 
BRANCH  21  22
HETATM   22  C13 UNL     1      25.158  -0.005  53.147  1.00  0.00     0.300 C 
BRANCH  22  23
HETATM   23  N3  UNL     1      26.091   0.947  53.753  1.00  0.00     0.096 N 
HETATM   24  C14 UNL     1      27.146   1.239  52.772  1.00  0.00     0.299 C 
HETATM   25  C15 UNL     1      28.298   1.958  53.401  1.00  0.00     0.198 C 
HETATM   26  O2  UNL     1      28.984   1.137  54.271  1.00  0.00    -0.388 OA
HETATM   27  C16 UNL     1      28.239   0.023  54.559  1.00  0.00     0.198 C 
HETATM   28  C17 UNL     1      26.787   0.319  54.876  1.00  0.00     0.299 C 
ENDBRANCH  22  23
ENDBRANCH  21  22
ENDBRANCH  18  20
ENDBRANCH  11  18
TORSDOF 4
ENDMDL
MODEL 3
REMARK VINA RESULT:      -8.2      1.689      2.692
REMARK  4 active torsions:
REMARK  status: ('A' for Active; 'I' for Inactive)
REMARK    1  A    between atoms: C9_11  and  C10_12 
REMARK    2  A    between atoms: C10_12  and  C11_14 
REMARK    3  A    between atoms: C12_15  and  C13_16 
REMARK    4  A    between atoms: C13_16  and  N3_17 
ROOT
HETATM    1  C1  UNL     1      24.322   0.591  53.080  1.00  0.00     0.015 C 
HETATM    2  C2  UNL     1      23.617   1.863  52.745  1.00  0.00     0.014 C 
HETATM    3  C3  UNL     1      22.240   1.614  52.139  1.00  0.00     0.051 C 
HETATM    4  C4  UNL     1      22.194   1.764  50.659  1.00  0.00     0.215 C 
HETATM    5  C5  UNL     1      20.846   1.307  50.239  1.00  0.00     0.086 C 
HETATM    6  N1  UNL     1      19.775   0.948  49.916  1.00  0.00    -0.195 NA
HETATM    7  N2  UNL     1      22.320   3.088  50.140  1.00  0.00    -0.274 NA
HETATM    8  C6  UNL     1      23.134   4.048  50.325  1.00  0.00     0.038 C 
HETATM    9  C7  UNL     1      23.497   5.182  49.519  1.00  0.00     0.030 C 
HETATM   10  C8  UNL     1      24.718   5.466  49.153  1.00  0.00     0.037 C 
HETATM   11  C9  UNL     1      26.091   5.033  49.236  1.00  0.00     0.101 C 
HETATM   12  N4  UNL     1      26.668   4.056  49.684  1.00  0.00    -0.282 NA
HETATM   13  C18 UNL     1      26.641   2.846  50.311  1.00  0.00     0.177 C 
HETATM   14  C19 UNL     1      25.540   2.477  51.206  1.00  0.00    -0.001 C 
HETATM   15  C20 UNL     1      24.410   2.747  51.836  1.00  0.00    -0.069 C 
HETATM   16  C21 UNL     1      23.916   4.144  51.567  1.00  0.00     0.062 C 
HETATM   17  C22 UNL     1      23.010   4.671  52.654  1.00  0.00     0.021 C 
ENDROOT
BRANCH  11  18
HETATM   18  C10 UNL     1      27.071   5.941  48.562  1.00  0.00     0.199 C 
HETATM   19  O1  UNL     1      26.634   7.121  48.283  1.00  0.00    -0.286 OA
BRANCH  18  20
HETATM   20  C11 UNL     1      28.453   5.688  48.172  1.00  0.00     0.055 C 
HETATM   21  C12 UNL     1      29.773   5.649  48.413  1.00  0.00     0.007 C 
BRANCH  21  22
HETATM   22  C13 UNL     1      30.947   5.284  47.618  1.00  0.00     0.300 C 
BRANCH  22  23
HETATM   23  N3  UNL     1      32.133   4.977  48.419  1.00  0.00     0.096 N 
HETATM   24  C14 UNL     1      33.085   6.087  48.269  1.00  0.00     0.299 C 
HETATM   25  C15 UNL     1      34.437   5.728  48.801  1.00  0.00     0.198 C 
HETATM   26  O2  UNL     1      35.044   4.768  48.018  1.00  0.00    -0.388 OA
HETATM   27  C16 UNL     1      34.124   4.187  47.183  1.00  0.00     0.198 C 
HETATM   28  C17 UNL     1      32.823   3.813  47.865  1.00  0.00     0.299 C 
ENDBRANCH  22  23
ENDBRANCH  21  22
ENDBRANCH  18  20
ENDBRANCH  11  18
TORSDOF 4
ENDMDL
MODEL 4
REMARK VINA RESULT:      -8.1      4.602      9.012
REMARK  4 active torsions:
REMARK  status: ('A' for Active; 'I' for Inactive)
REMARK    1  A    between atoms: C9_11  and  C10_12 
REMARK    2  A    between atoms: C10_12  and  C11_14 
REMARK    3  A    between atoms: C12_15  and  C13_16 
REMARK    4  A    between atoms: C13_16  and  N3_17 
ROOT
HETATM    1  C1  UNL     1      27.256   4.373  48.986  1.00  0.00     0.015 C 
HETATM    2  C2  UNL     1      26.017   5.150  48.694  1.00  0.00     0.014 C 
HETATM    3  C3  UNL     1      26.207   6.644  48.931  1.00  0.00     0.051 C 
HETATM    4  C4  UNL     1      25.630   7.132  50.213  1.00  0.00     0.215 C 
HETATM    5  C5  UNL     1      26.070   8.542  50.355  1.00  0.00     0.086 C 
HETATM    6  N1  UNL     1      26.420   9.659  50.457  1.00  0.00    -0.195 NA
HETATM    7  N2  UNL     1      24.206   7.172  50.307  1.00  0.00    -0.274 NA
HETATM    8  C6  UNL     1      23.270   6.344  50.071  1.00  0.00     0.038 C 
HETATM    9  C7  UNL     1      21.918   6.243  50.551  1.00  0.00     0.030 C 
HETATM   10  C8  UNL     1      21.422   5.188  51.140  1.00  0.00     0.037 C 
HETATM   11  C9  UNL     1      21.726   3.852  51.589  1.00  0.00     0.101 C 
HETATM   12  N4  UNL     1      22.730   3.164  51.650  1.00  0.00    -0.282 NA
HETATM   13  C18 UNL     1      24.069   2.997  51.451  1.00  0.00     0.177 C 
HETATM   14  C19 UNL     1      24.791   3.778  50.443  1.00  0.00    -0.001 C 
HETATM   15  C20 UNL     1      24.830   4.668  49.467  1.00  0.00    -0.069 C 
HETATM   16  C21 UNL     1      23.471   5.226  49.136  1.00  0.00     0.062 C 
HETATM   17  C22 UNL     1      23.380   5.767  47.729  1.00  0.00     0.021 C 
ENDROOT
BRANCH  11  18
HETATM   18  C10 UNL     1      20.568   3.121  52.194  1.00  0.00     0.199 C 
HETATM   19  O1  UNL     1      19.484   3.805  52.319  1.00  0.00    -0.286 OA
BRANCH  18  20
HETATM   20  C11 UNL     1      20.486   1.744  52.668  1.00  0.00     0.055 C 
HETATM   21  C12 UNL     1      20.563   0.804  53.623  1.00  0.00     0.007 C 
BRANCH  21  22
HETATM   22  C13 UNL     1      20.378  -0.648  53.645  1.00  0.00     0.300 C 
BRANCH  22  23
HETATM   23  N3  UNL     1      21.599  -1.397  53.944  1.00  0.00     0.096 N 
HETATM   24  C14 UNL     1      22.142  -0.899  55.215  1.00  0.00     0.299 C 
HETATM   25  C15 UNL     1      23.537  -1.388  55.448  1.00  0.00     0.198 C 
HETATM   26  O2  UNL     1      24.421  -0.818  54.556  1.00  0.00    -0.388 OA
HETATM   27  C16 UNL     1      23.739  -0.232  53.521  1.00  0.00     0.198 C 
HETATM   28  C17 UNL     1      22.629  -1.092  52.951  1.00  0.00     0.299 C 
ENDBRANCH  22  23
ENDBRANCH  21  22
ENDBRANCH  18  20
ENDBRANCH  11  18
TORSDOF 4
ENDMDL
MODEL 5
REMARK VINA RESULT:      -8.0      3.265      4.136
REMARK  4 active torsions:
REMARK  status: ('A' for Active; 'I' for Inactive)
REMARK    1  A    between atoms: C9_11  and  C10_12 
REMARK    2  A    between atoms: C10_12  and  C11_14 
REMARK    3  A    between atoms: C12_15  and  C13_16 
REMARK    4  A    between atoms: C13_16  and  N3_17 
ROOT
HETATM    1  C1  UNL     1      24.094   0.548  53.349  1.00  0.00     0.015 C 
HETATM    2  C2  UNL     1      23.489   1.827  52.879  1.00  0.00     0.014 C 
HETATM    3  C3  UNL     1      22.138   1.610  52.206  1.00  0.00     0.051 C 
HETATM    4  C4  UNL     1      22.189   1.651  50.719  1.00  0.00     0.215 C 
HETATM    5  C5  UNL     1      20.845   1.238  50.246  1.00  0.00     0.086 C 
HETATM    6  N1  UNL     1      19.776   0.915  49.882  1.00  0.00    -0.195 NA
HETATM    7  N2  UNL     1      22.425   2.923  50.115  1.00  0.00    -0.274 NA
HETATM    8  C6  UNL     1      23.282   3.849  50.283  1.00  0.00     0.038 C 
HETATM    9  C7  UNL     1      23.760   4.897  49.423  1.00  0.00     0.030 C 
HETATM   10  C8  UNL     1      25.015   5.085  49.117  1.00  0.00     0.037 C 
HETATM   11  C9  UNL     1      26.352   4.585  49.319  1.00  0.00     0.101 C 
HETATM   12  N4  UNL     1      26.842   3.615  49.871  1.00  0.00    -0.282 NA
HETATM   13  C18 UNL     1      26.706   2.458  50.580  1.00  0.00     0.177 C 
HETATM   14  C19 UNL     1      25.533   2.218  51.427  1.00  0.00    -0.001 C 
HETATM   15  C20 UNL     1      24.386   2.597  51.962  1.00  0.00    -0.069 C 
HETATM   16  C21 UNL     1      23.993   3.994  51.563  1.00  0.00     0.062 C 
HETATM   17  C22 UNL     1      23.056   4.650  52.549  1.00  0.00     0.021 C 
ENDROOT
BRANCH  11  18
HETATM   18  C10 UNL     1      27.424   5.385  48.646  1.00  0.00     0.199 C 
HETATM   19  O1  UNL     1      28.535   4.764  48.443  1.00  0.00    -0.286 OA
BRANCH  18  20
HETATM   20  C11 UNL     1      27.398   6.768  48.187  1.00  0.00     0.055 C 
HETATM   21  C12 UNL     1      27.652   7.732  47.287  1.00  0.00     0.007 C 
BRANCH  21  22
HETATM   22  C13 UNL     1      27.421   9.177  47.245  1.00  0.00     0.300 C 
BRANCH  22  23
HETATM   23  N3  UNL     1      28.633   9.976  47.440  1.00  0.00     0.096 N 
HETATM   24  C14 UNL     1      29.779   9.193  46.958  1.00  0.00     0.299 C 
HETATM   25  C15 UNL     1      31.079   9.797  47.390  1.00  0.00     0.198 C 
HETATM   26  O2  UNL     1      31.253   9.685  48.754  1.00  0.00    -0.388 OA
HETATM   27  C16 UNL     1      30.066   9.357  49.358  1.00  0.00     0.198 C 
HETATM   28  C17 UNL     1      28.882  10.167  48.868  1.00  0.00     0.299 C 
ENDBRANCH  22  23
ENDBRANCH  21  22
ENDBRANCH  18  20
ENDBRANCH  11  18
TORSDOF 4
ENDMDL
MODEL 6
REMARK VINA RESULT:      -7.9      3.330      8.782
REMARK  4 active torsions:
REMARK  status: ('A' for Active; 'I' for Inactive)
REMARK    1  A    between atoms: C9_11  and  C10_12 
REMARK    2  A    between atoms: C10_12  and  C11_14 
REMARK    3  A    between atoms: C12_15  and  C13_16 
REMARK    4  A    between atoms: C13_16  and  N3_17 
ROOT
HETATM    1  C1  UNL     1      30.654  11.363  48.660  1.00  0.00     0.015 C 
HETATM    2  C2  UNL     1      31.204   9.977  48.680  1.00  0.00     0.014 C 
HETATM    3  C3  UNL     1      32.082   9.690  47.466  1.00  0.00     0.051 C 
HETATM    4  C4  UNL     1      31.409   8.890  46.408  1.00  0.00     0.215 C 
HETATM    5  C5  UNL     1      32.335   8.874  45.249  1.00  0.00     0.086 C 
HETATM    6  N1  UNL     1      33.077   8.864  44.337  1.00  0.00    -0.195 NA
HETATM    7  N2  UNL     1      31.153   7.516  46.702  1.00  0.00    -0.274 NA
HETATM    8  C6  UNL     1      30.615   6.893  47.672  1.00  0.00     0.038 C 
HETATM    9  C7  UNL     1      29.997   5.599  47.773  1.00  0.00     0.030 C 
HETATM   10  C8  UNL     1      28.781   5.395  48.203  1.00  0.00     0.037 C 
HETATM   11  C9  UNL     1      27.596   6.045  48.702  1.00  0.00     0.101 C 
HETATM   12  N4  UNL     1      27.235   7.201  48.846  1.00  0.00    -0.282 NA
HETATM   13  C18 UNL     1      27.467   8.539  48.733  1.00  0.00     0.177 C 
HETATM   14  C19 UNL     1      28.831   9.076  48.715  1.00  0.00    -0.001 C 
HETATM   15  C20 UNL     1      30.142   8.929  48.787  1.00  0.00    -0.069 C 
HETATM   16  C21 UNL     1      30.553   7.497  49.012  1.00  0.00     0.062 C 
HETATM   17  C22 UNL     1      31.915   7.366  49.651  1.00  0.00     0.021 C 
ENDROOT
BRANCH  11  18
HETATM   18  C10 UNL     1      26.488   5.113  49.083  1.00  0.00     0.199 C 
HETATM   19  O1  UNL     1      25.309   5.466  48.702  1.00  0.00    -0.286 OA
BRANCH  18  20
HETATM   20  C11 UNL     1      26.546   3.860  49.827  1.00  0.00     0.055 C 
HETATM   21  C12 UNL     1      26.060   2.973  50.709  1.00  0.00     0.007 C 
BRANCH  21  22
HETATM   22  C13 UNL     1      26.518   1.677  51.212  1.00  0.00     0.300 C 
BRANCH  22  23
HETATM   23  N3  UNL     1      26.590   1.600  52.673  1.00  0.00     0.096 N 
HETATM   24  C14 UNL     1      27.895   1.031  53.036  1.00  0.00     0.299 C 
HETATM   25  C15 UNL     1      27.941   0.635  54.479  1.00  0.00     0.198 C 
HETATM   26  O2  UNL     1      27.118  -0.443  54.727  1.00  0.00    -0.388 OA
HETATM   27  C16 UNL     1      26.259  -0.636  53.676  1.00  0.00     0.198 C 
HETATM   28  C17 UNL     1      25.609   0.637  53.172  1.00  0.00     0.299 C 
ENDBRANCH  22  23
ENDBRANCH  21  22
ENDBRANCH  18  20
ENDBRANCH  11  18
TORSDOF 4
ENDMDL
MODEL 7
REMARK VINA RESULT:      -7.9      3.610      8.091
REMARK  4 active torsions:
REMARK  status: ('A' for Active; 'I' for Inactive)
REMARK    1  A    between atoms: C9_11  and  C10_12 
REMARK    2  A    between atoms: C10_12  and  C11_14 
REMARK    3  A    between atoms: C12_15  and  C13_16 
REMARK    4  A    between atoms: C13_16  and  N3_17 
ROOT
HETATM    1  C1  UNL     1      30.476   8.389  46.121  1.00  0.00     0.015 C 
HETATM    2  C2  UNL     1      29.024   8.705  46.242  1.00  0.00     0.014 C 
HETATM    3  C3  UNL     1      28.783  10.062  46.894  1.00  0.00     0.051 C 
HETATM    4  C4  UNL     1      28.392   9.985  48.327  1.00  0.00     0.215 C 
HETATM    5  C5  UNL     1      28.387  11.380  48.831  1.00  0.00     0.086 C 
HETATM    6  N1  UNL     1      28.382  12.489  49.220  1.00  0.00    -0.195 NA
HETATM    7  N2  UNL     1      27.088   9.478  48.614  1.00  0.00    -0.274 NA
HETATM    8  C6  UNL     1      26.431   8.447  48.262  1.00  0.00     0.038 C 
HETATM    9  C7  UNL     1      25.327   7.748  48.861  1.00  0.00     0.030 C 
HETATM   10  C8  UNL     1      25.335   6.477  49.162  1.00  0.00     0.037 C 
HETATM   11  C9  UNL     1      26.137   5.279  49.141  1.00  0.00     0.101 C 
HETATM   12  N4  UNL     1      27.292   5.012  48.860  1.00  0.00    -0.282 NA
HETATM   13  C18 UNL     1      28.533   5.398  48.447  1.00  0.00     0.177 C 
HETATM   14  C19 UNL     1      28.723   6.606  47.637  1.00  0.00    -0.001 C 
HETATM   15  C20 UNL     1      28.257   7.654  46.981  1.00  0.00    -0.069 C 
HETATM   16  C21 UNL     1      26.754   7.738  47.015  1.00  0.00     0.062 C 
HETATM   17  C22 UNL     1      26.180   8.527  45.862  1.00  0.00     0.021 C 
ENDROOT
BRANCH  11  18
HETATM   18  C10 UNL     1      25.437   4.054  49.643  1.00  0.00     0.199 C 
HETATM   19  O1  UNL     1      24.425   3.668  48.945  1.00  0.00    -0.286 OA
BRANCH  18  20
HETATM   20  C11 UNL     1      25.731   3.230  50.809  1.00  0.00     0.055 C 
HETATM   21  C12 UNL     1      25.588   2.123  51.555  1.00  0.00     0.007 C 
BRANCH  21  22
HETATM   22  C13 UNL     1      26.156   1.666  52.825  1.00  0.00     0.300 C 
BRANCH  22  23
HETATM   23  N3  UNL     1      27.414   0.931  52.682  1.00  0.00     0.096 N 
HETATM   24  C14 UNL     1      27.161  -0.476  53.020  1.00  0.00     0.299 C 
HETATM   25  C15 UNL     1      28.438  -1.238  53.195  1.00  0.00     0.198 C 
HETATM   26  O2  UNL     1      29.115  -0.825  54.323  1.00  0.00    -0.388 OA
HETATM   27  C16 UNL     1      28.605   0.365  54.774  1.00  0.00     0.198 C 
HETATM   28  C17 UNL     1      28.378   1.390  53.680  1.00  0.00     0.299 C 
ENDBRANCH  22  23
ENDBRANCH  21  22
ENDBRANCH  18  20
ENDBRANCH  11  18
TORSDOF 4
ENDMDL
MODEL 8
REMARK VINA RESULT:      -7.9      5.459     11.321
REMARK  4 active torsions:
REMARK  status: ('A' for Active; 'I' for Inactive)
REMARK    1  A    between atoms: C9_11  and  C10_12 
REMARK    2  A    between atoms: C10_12  and  C11_14 
REMARK    3  A    between atoms: C12_15  and  C13_16 
REMARK    4  A    between atoms: C13_16  and  N3_17 
ROOT
HETATM    1  C1  UNL     1      26.647   3.234  49.955  1.00  0.00     0.015 C 
HETATM    2  C2  UNL     1      25.203   3.460  49.656  1.00  0.00     0.014 C 
HETATM    3  C3  UNL     1      24.834   4.939  49.689  1.00  0.00     0.051 C 
HETATM    4  C4  UNL     1      24.144   5.363  50.938  1.00  0.00     0.215 C 
HETATM    5  C5  UNL     1      24.037   6.841  50.870  1.00  0.00     0.086 C 
HETATM    6  N1  UNL     1      23.952   8.011  50.806  1.00  0.00    -0.195 NA
HETATM    7  N2  UNL     1      22.807   4.897  51.126  1.00  0.00    -0.274 NA
HETATM    8  C6  UNL     1      22.236   3.762  51.062  1.00  0.00     0.038 C 
HETATM    9  C7  UNL     1      21.027   3.249  51.645  1.00  0.00     0.030 C 
HETATM   10  C8  UNL     1      20.966   2.181  52.396  1.00  0.00     0.037 C 
HETATM   11  C9  UNL     1      21.749   1.124  52.986  1.00  0.00     0.101 C 
HETATM   12  N4  UNL     1      22.937   0.863  53.063  1.00  0.00    -0.282 NA
HETATM   13  C18 UNL     1      24.238   1.165  52.792  1.00  0.00     0.177 C 
HETATM   14  C19 UNL     1      24.602   2.002  51.645  1.00  0.00    -0.001 C 
HETATM   15  C20 UNL     1      24.292   2.697  50.565  1.00  0.00    -0.069 C 
HETATM   16  C21 UNL     1      22.817   2.672  50.263  1.00  0.00     0.062 C 
HETATM   17  C22 UNL     1      22.506   2.937  48.809  1.00  0.00     0.021 C 
ENDROOT
BRANCH  11  18
HETATM   18  C10 UNL     1      20.953   0.119  53.759  1.00  0.00     0.199 C 
HETATM   19  O1  UNL     1      21.501  -0.306  54.845  1.00  0.00    -0.286 OA
BRANCH  18  20
HETATM   20  C11 UNL     1      19.646  -0.455  53.463  1.00  0.00     0.055 C 
HETATM   21  C12 UNL     1      18.553  -0.604  52.697  1.00  0.00     0.007 C 
BRANCH  21  22
HETATM   22  C13 UNL     1      17.324  -1.389  52.812  1.00  0.00     0.300 C 
BRANCH  22  23
HETATM   23  N3  UNL     1      16.257  -0.957  51.907  1.00  0.00     0.096 N 
HETATM   24  C14 UNL     1      16.654   0.327  51.314  1.00  0.00     0.299 C 
HETATM   25  C15 UNL     1      15.507   0.989  50.616  1.00  0.00     0.198 C 
HETATM   26  O2  UNL     1      14.551   1.412  51.516  1.00  0.00    -0.388 OA
HETATM   27  C16 UNL     1      14.760   0.826  52.739  1.00  0.00     0.198 C 
HETATM   28  C17 UNL     1      15.045  -0.661  52.668  1.00  0.00     0.299 C 
ENDBRANCH  22  23
ENDBRANCH  21  22
ENDBRANCH  18  20
ENDBRANCH  11  18
TORSDOF 4
ENDMDL
MODEL 9
REMARK VINA RESULT:      -7.8      1.384      1.833
REMARK  4 active torsions:
REMARK  status: ('A' for Active; 'I' for Inactive)
REMARK    1  A    between atoms: C9_11  and  C10_12 
REMARK    2  A    between atoms: C10_12  and  C11_14 
REMARK    3  A    between atoms: C12_15  and  C13_16 
REMARK    4  A    between atoms: C13_16  and  N3_17 
ROOT
HETATM    1  C1  UNL     1      20.607   3.536  52.073  1.00  0.00     0.015 C 
HETATM    2  C2  UNL     1      21.599   3.019  51.086  1.00  0.00     0.014 C 
HETATM    3  C3  UNL     1      22.270   1.736  51.564  1.00  0.00     0.051 C 
HETATM    4  C4  UNL     1      23.642   1.937  52.107  1.00  0.00     0.215 C 
HETATM    5  C5  UNL     1      24.052   0.635  52.687  1.00  0.00     0.086 C 
HETATM    6  N1  UNL     1      24.371  -0.401  53.139  1.00  0.00    -0.195 NA
HETATM    7  N2  UNL     1      24.665   2.270  51.169  1.00  0.00    -0.274 NA
HETATM    8  C6  UNL     1      24.784   3.134  50.242  1.00  0.00     0.038 C 
HETATM    9  C7  UNL     1      25.929   3.726  49.607  1.00  0.00     0.030 C 
HETATM   10  C8  UNL     1      26.152   5.011  49.539  1.00  0.00     0.037 C 
HETATM   11  C9  UNL     1      25.634   6.306  49.906  1.00  0.00     0.101 C 
HETATM   12  N4  UNL     1      24.700   6.709  50.577  1.00  0.00    -0.282 NA
HETATM   13  C18 UNL     1      23.615   6.467  51.367  1.00  0.00     0.177 C 
HETATM   14  C19 UNL     1      22.868   5.209  51.270  1.00  0.00    -0.001 C 
HETATM   15  C20 UNL     1      22.644   4.026  50.726  1.00  0.00    -0.069 C 
HETATM   16  C21 UNL     1      23.596   3.717  49.600  1.00  0.00     0.062 C 
HETATM   17  C22 UNL     1      23.045   2.706  48.621  1.00  0.00     0.021 C 
ENDROOT
BRANCH  11  18
HETATM   18  C10 UNL     1      26.450   7.463  49.420  1.00  0.00     0.199 C 
HETATM   19  O1  UNL     1      26.132   8.611  49.911  1.00  0.00    -0.286 OA
BRANCH  18  20
HETATM   20  C11 UNL     1      27.554   7.484  48.468  1.00  0.00     0.055 C 
HETATM   21  C12 UNL     1      28.515   6.891  47.742  1.00  0.00     0.007 C 
BRANCH  21  22
HETATM   22  C13 UNL     1      29.525   7.371  46.797  1.00  0.00     0.300 C 
BRANCH  22  23
HETATM   23  N3  UNL     1      30.875   6.873  47.069  1.00  0.00     0.096 N 
HETATM   24  C14 UNL     1      30.755   5.593  47.781  1.00  0.00     0.299 C 
HETATM   25  C15 UNL     1      32.065   5.162  48.362  1.00  0.00     0.198 C 
HETATM   26  O2  UNL     1      32.449   5.990  49.396  1.00  0.00    -0.388 OA
HETATM   27  C16 UNL     1      31.705   7.142  49.383  1.00  0.00     0.198 C 
HETATM   28  C17 UNL     1      31.557   7.762  48.008  1.00  0.00     0.299 C 
ENDBRANCH  22  23
ENDBRANCH  21  22
ENDBRANCH  18  20
ENDBRANCH  11  18
TORSDOF 4
ENDMDL
