MODEL 1
REMARK VINA RESULT:      -8.4      0.000      0.000
REMARK  5 active torsions:
REMARK  status: ('A' for Active; 'I' for Inactive)
REMARK    1  A    between atoms: C2_2  and  C3_4 
REMARK    2  A    between atoms: C4_6  and  C5_7 
REMARK    3  A    between atoms: C5_7  and  N1_10 
REMARK    4  A    between atoms: N1_10  and  C8_11 
REMARK    5  A    between atoms: C13_18  and  N4_19 
REMARK       I    between atoms: N4_19  and  C14_20 
ROOT
HETATM    1  C8  UNL     1      23.797  -0.100  53.476  1.00  0.00     0.142 A 
HETATM    2  N2  UNL     1      24.394  -0.723  54.482  1.00  0.00    -0.224 NA
HETATM    3  C9  UNL     1      23.736  -1.453  55.411  1.00  0.00     0.236 A 
HETATM    4  N3  UNL     1      22.384  -1.571  55.330  1.00  0.00    -0.241 NA
HETATM    5  C10 UNL     1      21.723  -0.952  54.316  1.00  0.00     0.072 A 
HETATM    6  C11 UNL     1      20.354  -1.061  54.217  1.00  0.00     0.035 A 
HETATM    7  C12 UNL     1      19.755  -0.409  53.164  1.00  0.00     0.032 A 
HETATM    8  C13 UNL     1      20.410   0.335  52.213  1.00  0.00     0.035 A 
HETATM    9  C16 UNL     1      21.772   0.402  52.374  1.00  0.00     0.047 A 
HETATM   10  C17 UNL     1      22.430  -0.217  53.391  1.00  0.00     0.041 A 
ENDROOT
BRANCH   1  11
HETATM   11  N1  UNL     1      24.603   0.633  52.552  1.00  0.00    -0.340 N 
HETATM   12  H8  UNL     1      24.440   0.809  51.539  1.00  0.00     0.167 HD
BRANCH  11  13
HETATM   13  C5  UNL     1      25.822   1.208  53.096  1.00  0.00     0.031 C 
HETATM   14  C6  UNL     1      25.441   2.436  53.329  1.00  0.00    -0.002 C 
HETATM   15  C7  UNL     1      24.152   3.109  53.136  1.00  0.00     0.038 C 
BRANCH  13  16
HETATM   16  C4  UNL     1      26.509  -0.062  52.942  1.00  0.00     0.056 C 
HETATM   17  C3  UNL     1      27.534  -0.858  52.997  1.00  0.00     0.069 C 
HETATM   18 CL1  UNL     1      27.175  -2.486  52.481  1.00  0.00    -0.081 Cl
BRANCH  17  19
HETATM   19  C2  UNL     1      28.814  -0.360  53.455  1.00  0.00     0.099 A 
HETATM   20  C1  UNL     1      29.761  -1.304  53.466  1.00  0.00     0.252 A 
HETATM   21  F1  UNL     1      29.993   0.094  53.875  1.00  0.00    -0.365 F 
ENDBRANCH  17  19
ENDBRANCH  13  16
ENDBRANCH  11  13
ENDBRANCH   1  11
BRANCH   8  22
HETATM   22  N4  UNL     1      19.823   1.018  51.122  1.00  0.00    -0.327 N 
HETATM   23  C14 UNL     1      19.217   2.268  51.062  1.00  0.00     0.218 C 
HETATM   24  C15 UNL     1      18.628   2.903  49.854  1.00  0.00     0.117 C 
HETATM   25  O1  UNL     1      19.144   2.955  52.106  1.00  0.00    -0.274 OA
HETATM   26  H12 UNL     1      19.810   0.564  50.176  1.00  0.00     0.169 HD
ENDBRANCH   8  22
TORSDOF 5
ENDMDL
MODEL 2
REMARK VINA RESULT:      -8.1      2.987      5.389
REMARK  5 active torsions:
REMARK  status: ('A' for Active; 'I' for Inactive)
REMARK    1  A    between atoms: C2_2  and  C3_4 
REMARK    2  A    between atoms: C4_6  and  C5_7 
REMARK    3  A    between atoms: C5_7  and  N1_10 
REMARK    4  A    between atoms: N1_10  and  C8_11 
REMARK    5  A    between atoms: C13_18  and  N4_19 
REMARK       I    between atoms: N4_19  and  C14_20 
ROOT
HETATM    1  C8  UNL     1      22.048   0.587  51.832  1.00  0.00     0.142 A 
HETATM    2  N2  UNL     1      20.731   0.720  51.783  1.00  0.00    -0.224 NA
HETATM    3  C9  UNL     1      19.898   0.332  52.776  1.00  0.00     0.236 A 
HETATM    4  N3  UNL     1      20.419  -0.230  53.899  1.00  0.00    -0.241 NA
HETATM    5  C10 UNL     1      21.765  -0.388  54.000  1.00  0.00     0.072 A 
HETATM    6  C11 UNL     1      22.311  -0.953  55.131  1.00  0.00     0.035 A 
HETATM    7  C12 UNL     1      23.681  -1.079  55.161  1.00  0.00     0.032 A 
HETATM    8  C13 UNL     1      24.538  -0.689  54.162  1.00  0.00     0.035 A 
HETATM    9  C16 UNL     1      23.925  -0.135  53.064  1.00  0.00     0.047 A 
HETATM   10  C17 UNL     1      22.578   0.019  52.966  1.00  0.00     0.041 A 
ENDROOT
BRANCH   1  11
HETATM   11  N1  UNL     1      22.822   1.045  50.722  1.00  0.00    -0.340 N 
HETATM   12  H8  UNL     1      23.525   0.526  50.157  1.00  0.00     0.167 HD
BRANCH  11  13
HETATM   13  C5  UNL     1      22.605   2.428  50.328  1.00  0.00     0.031 C 
HETATM   14  C6  UNL     1      21.833   2.276  49.286  1.00  0.00    -0.002 C 
HETATM   15  C7  UNL     1      21.285   1.075  48.646  1.00  0.00     0.038 C 
BRANCH  13  16
HETATM   16  C4  UNL     1      23.438   2.887  51.426  1.00  0.00     0.056 C 
HETATM   17  C3  UNL     1      24.559   3.225  51.988  1.00  0.00     0.069 C 
HETATM   18 CL1  UNL     1      24.378   3.709  53.655  1.00  0.00    -0.081 Cl
BRANCH  17  19
HETATM   19  C2  UNL     1      25.793   3.175  51.233  1.00  0.00     0.099 A 
HETATM   20  C1  UNL     1      26.397   1.984  51.309  1.00  0.00     0.252 A 
HETATM   21  F1  UNL     1      26.928   3.125  50.539  1.00  0.00    -0.365 F 
ENDBRANCH  17  19
ENDBRANCH  13  16
ENDBRANCH  11  13
ENDBRANCH   1  11
BRANCH   8  22
HETATM   22  N4  UNL     1      25.948  -0.807  54.163  1.00  0.00    -0.327 N 
HETATM   23  C14 UNL     1      26.929   0.123  54.490  1.00  0.00     0.218 C 
HETATM   24  C15 UNL     1      28.397  -0.101  54.461  1.00  0.00     0.117 C 
HETATM   25  O1  UNL     1      26.579   1.270  54.849  1.00  0.00    -0.274 OA
HETATM   26  H12 UNL     1      26.390  -1.716  53.883  1.00  0.00     0.169 HD
ENDBRANCH   8  22
TORSDOF 5
ENDMDL
MODEL 3
REMARK VINA RESULT:      -8.0      3.439      6.067
REMARK  5 active torsions:
REMARK  status: ('A' for Active; 'I' for Inactive)
REMARK    1  A    between atoms: C2_2  and  C3_4 
REMARK    2  A    between atoms: C4_6  and  C5_7 
REMARK    3  A    between atoms: C5_7  and  N1_10 
REMARK    4  A    between atoms: N1_10  and  C8_11 
REMARK    5  A    between atoms: C13_18  and  N4_19 
REMARK       I    between atoms: N4_19  and  C14_20 
ROOT
HETATM    1  C8  UNL     1      22.255   0.513  52.150  1.00  0.00     0.142 A 
HETATM    2  N2  UNL     1      20.940   0.614  52.279  1.00  0.00    -0.224 NA
HETATM    3  C9  UNL     1      20.256   0.184  53.364  1.00  0.00     0.236 A 
HETATM    4  N3  UNL     1      20.934  -0.390  54.394  1.00  0.00    -0.241 NA
HETATM    5  C10 UNL     1      22.285  -0.518  54.310  1.00  0.00     0.072 A 
HETATM    6  C11 UNL     1      22.988  -1.094  55.344  1.00  0.00     0.035 A 
HETATM    7  C12 UNL     1      24.352  -1.187  55.189  1.00  0.00     0.032 A 
HETATM    8  C13 UNL     1      25.060  -0.754  54.095  1.00  0.00     0.035 A 
HETATM    9  C16 UNL     1      24.295  -0.190  53.103  1.00  0.00     0.047 A 
HETATM   10  C17 UNL     1      22.943  -0.067  53.189  1.00  0.00     0.041 A 
ENDROOT
BRANCH   1  11
HETATM   11  N1  UNL     1      22.864   1.015  50.959  1.00  0.00    -0.340 N 
HETATM   12  H8  UNL     1      23.556   0.552  50.333  1.00  0.00     0.167 HD
BRANCH  11  13
HETATM   13  C5  UNL     1      22.472   2.359  50.567  1.00  0.00     0.031 C 
HETATM   14  C6  UNL     1      21.720   2.110  49.528  1.00  0.00    -0.002 C 
HETATM   15  C7  UNL     1      21.325   0.849  48.891  1.00  0.00     0.038 C 
BRANCH  13  16
HETATM   16  C4  UNL     1      23.246   2.920  51.660  1.00  0.00     0.056 C 
HETATM   17  C3  UNL     1      23.774   3.885  52.351  1.00  0.00     0.069 C 
HETATM   18 CL1  UNL     1      24.676   3.329  53.737  1.00  0.00    -0.081 Cl
BRANCH  17  19
HETATM   19  C2  UNL     1      23.583   5.260  51.941  1.00  0.00     0.099 A 
HETATM   20  C1  UNL     1      24.290   5.577  50.852  1.00  0.00     0.252 A 
HETATM   21  F1  UNL     1      23.409   6.524  51.561  1.00  0.00    -0.365 F 
ENDBRANCH  17  19
ENDBRANCH  13  16
ENDBRANCH  11  13
ENDBRANCH   1  11
BRANCH   8  22
HETATM   22  N4  UNL     1      26.459  -0.837  53.906  1.00  0.00    -0.327 N 
HETATM   23  C14 UNL     1      27.477   0.014  54.324  1.00  0.00     0.218 C 
HETATM   24  C15 UNL     1      28.931  -0.164  54.075  1.00  0.00     0.117 C 
HETATM   25  O1  UNL     1      27.177   1.039  54.978  1.00  0.00    -0.274 OA
HETATM   26  H12 UNL     1      26.861  -1.646  53.374  1.00  0.00     0.169 HD
ENDBRANCH   8  22
TORSDOF 5
ENDMDL
MODEL 4
REMARK VINA RESULT:      -7.9      3.719      4.617
REMARK  5 active torsions:
REMARK  status: ('A' for Active; 'I' for Inactive)
REMARK    1  A    between atoms: C2_2  and  C3_4 
REMARK    2  A    between atoms: C4_6  and  C5_7 
REMARK    3  A    between atoms: C5_7  and  N1_10 
REMARK    4  A    between atoms: N1_10  and  C8_11 
REMARK    5  A    between atoms: C13_18  and  N4_19 
REMARK       I    between atoms: N4_19  and  C14_20 
ROOT
HETATM    1  C8  UNL     1      24.667   1.870  52.909  1.00  0.00     0.142 A 
HETATM    2  N2  UNL     1      24.748   0.575  53.179  1.00  0.00    -0.224 NA
HETATM    3  C9  UNL     1      23.676  -0.247  53.247  1.00  0.00     0.236 A 
HETATM    4  N3  UNL     1      22.433   0.260  53.030  1.00  0.00    -0.241 NA
HETATM    5  C10 UNL     1      22.296   1.583  52.749  1.00  0.00     0.072 A 
HETATM    6  C11 UNL     1      21.046   2.115  52.524  1.00  0.00     0.035 A 
HETATM    7  C12 UNL     1      20.986   3.460  52.244  1.00  0.00     0.032 A 
HETATM    8  C13 UNL     1      22.064   4.307  52.171  1.00  0.00     0.035 A 
HETATM    9  C16 UNL     1      23.279   3.709  52.406  1.00  0.00     0.047 A 
HETATM   10  C17 UNL     1      23.412   2.386  52.689  1.00  0.00     0.041 A 
ENDROOT
BRANCH   1  11
HETATM   11  N1  UNL     1      25.874   2.632  52.855  1.00  0.00    -0.340 N 
HETATM   12  H8  UNL     1      26.139   3.477  53.403  1.00  0.00     0.167 HD
BRANCH  11  13
HETATM   13  C5  UNL     1      26.870   2.172  51.901  1.00  0.00     0.031 C 
HETATM   14  C6  UNL     1      27.742   1.612  52.695  1.00  0.00    -0.002 C 
HETATM   15  C7  UNL     1      27.765   1.443  54.153  1.00  0.00     0.038 C 
BRANCH  13  16
HETATM   16  C4  UNL     1      26.090   2.714  50.802  1.00  0.00     0.056 C 
HETATM   17  C3  UNL     1      25.911   3.409  49.719  1.00  0.00     0.069 C 
HETATM   18 CL1  UNL     1      24.267   3.366  49.134  1.00  0.00    -0.081 Cl
BRANCH  17  19
HETATM   19  C2  UNL     1      27.022   4.119  49.121  1.00  0.00     0.099 A 
HETATM   20  C1  UNL     1      26.720   5.384  48.813  1.00  0.00     0.252 A 
HETATM   21  F1  UNL     1      28.042   4.775  48.571  1.00  0.00    -0.365 F 
ENDBRANCH  17  19
ENDBRANCH  13  16
ENDBRANCH  11  13
ENDBRANCH   1  11
BRANCH   8  22
HETATM   22  N4  UNL     1      22.035   5.692  51.886  1.00  0.00    -0.327 N 
HETATM   23  C14 UNL     1      21.873   6.360  50.678  1.00  0.00     0.218 C 
HETATM   24  C15 UNL     1      21.854   7.833  50.483  1.00  0.00     0.117 C 
HETATM   25  O1  UNL     1      21.725   5.690  49.631  1.00  0.00    -0.274 OA
HETATM   26  H12 UNL     1      22.147   6.382  52.669  1.00  0.00     0.169 HD
ENDBRANCH   8  22
TORSDOF 5
ENDMDL
MODEL 5
REMARK VINA RESULT:      -7.8      2.431      3.475
REMARK  5 active torsions:
REMARK  status: ('A' for Active; 'I' for Inactive)
REMARK    1  A    between atoms: C2_2  and  C3_4 
REMARK    2  A    between atoms: C4_6  and  C5_7 
REMARK    3  A    between atoms: C5_7  and  N1_10 
REMARK    4  A    between atoms: N1_10  and  C8_11 
REMARK    5  A    between atoms: C13_18  and  N4_19 
REMARK       I    between atoms: N4_19  and  C14_20 
ROOT
HETATM    1  C8  UNL     1      24.785  -0.570  53.638  1.00  0.00     0.142 A 
HETATM    2  N2  UNL     1      25.272  -0.971  54.803  1.00  0.00    -0.224 NA
HETATM    3  C9  UNL     1      24.502  -1.323  55.859  1.00  0.00     0.236 A 
HETATM    4  N3  UNL     1      23.149  -1.270  55.743  1.00  0.00    -0.241 NA
HETATM    5  C10 UNL     1      22.599  -0.864  54.568  1.00  0.00     0.072 A 
HETATM    6  C11 UNL     1      21.230  -0.806  54.431  1.00  0.00     0.035 A 
HETATM    7  C12 UNL     1      20.747  -0.388  53.212  1.00  0.00     0.032 A 
HETATM    8  C13 UNL     1      21.515  -0.029  52.132  1.00  0.00     0.035 A 
HETATM    9  C16 UNL     1      22.870  -0.111  52.340  1.00  0.00     0.047 A 
HETATM   10  C17 UNL     1      23.417  -0.514  53.518  1.00  0.00     0.041 A 
ENDROOT
BRANCH   1  11
HETATM   11  N1  UNL     1      25.702  -0.235  52.595  1.00  0.00    -0.340 N 
HETATM   12  H8  UNL     1      25.756  -0.613  51.627  1.00  0.00     0.167 HD
BRANCH  11  13
HETATM   13  C5  UNL     1      26.701   0.766  52.930  1.00  0.00     0.031 C 
HETATM   14  C6  UNL     1      27.751   0.017  53.136  1.00  0.00    -0.002 C 
HETATM   15  C7  UNL     1      27.943  -1.435  53.052  1.00  0.00     0.038 C 
BRANCH  13  16
HETATM   16  C4  UNL     1      25.718   1.824  52.770  1.00  0.00     0.056 C 
HETATM   17  C3  UNL     1      25.055   2.721  52.104  1.00  0.00     0.069 C 
HETATM   18 CL1  UNL     1      23.895   3.587  53.077  1.00  0.00    -0.081 Cl
BRANCH  17  19
HETATM   19  C2  UNL     1      25.317   2.916  50.694  1.00  0.00     0.099 A 
HETATM   20  C1  UNL     1      24.323   3.557  50.069  1.00  0.00     0.252 A 
HETATM   21  F1  UNL     1      25.554   3.098  49.396  1.00  0.00    -0.365 F 
ENDBRANCH  17  19
ENDBRANCH  13  16
ENDBRANCH  11  13
ENDBRANCH   1  11
BRANCH   8  22
HETATM   22  N4  UNL     1      21.048   0.405  50.869  1.00  0.00    -0.327 N 
HETATM   23  C14 UNL     1      20.811   1.688  50.389  1.00  0.00     0.218 C 
HETATM   24  C15 UNL     1      20.319   2.043  49.032  1.00  0.00     0.117 C 
HETATM   25  O1  UNL     1      21.022   2.665  51.143  1.00  0.00    -0.274 OA
HETATM   26  H12 UNL     1      20.828  -0.305  50.129  1.00  0.00     0.169 HD
ENDBRANCH   8  22
TORSDOF 5
ENDMDL
MODEL 6
REMARK VINA RESULT:      -7.5      4.820      7.319
REMARK  5 active torsions:
REMARK  status: ('A' for Active; 'I' for Inactive)
REMARK    1  A    between atoms: C2_2  and  C3_4 
REMARK    2  A    between atoms: C4_6  and  C5_7 
REMARK    3  A    between atoms: C5_7  and  N1_10 
REMARK    4  A    between atoms: N1_10  and  C8_11 
REMARK    5  A    between atoms: C13_18  and  N4_19 
REMARK       I    between atoms: N4_19  and  C14_20 
ROOT
HETATM    1  C8  UNL     1      22.715   4.161  50.108  1.00  0.00     0.142 A 
HETATM    2  N2  UNL     1      21.459   4.329  50.497  1.00  0.00    -0.224 NA
HETATM    3  C9  UNL     1      20.969   5.497  50.972  1.00  0.00     0.236 A 
HETATM    4  N3  UNL     1      21.791   6.575  51.065  1.00  0.00    -0.241 NA
HETATM    5  C10 UNL     1      23.089   6.456  50.679  1.00  0.00     0.072 A 
HETATM    6  C11 UNL     1      23.937   7.537  50.764  1.00  0.00     0.035 A 
HETATM    7  C12 UNL     1      25.235   7.341  50.353  1.00  0.00     0.032 A 
HETATM    8  C13 UNL     1      25.747   6.163  49.869  1.00  0.00     0.035 A 
HETATM    9  C16 UNL     1      24.846   5.127  49.812  1.00  0.00     0.047 A 
HETATM   10  C17 UNL     1      23.549   5.250  50.202  1.00  0.00     0.041 A 
ENDROOT
BRANCH   1  11
HETATM   11  N1  UNL     1      23.111   2.880  49.615  1.00  0.00    -0.340 N 
HETATM   12  H8  UNL     1      23.690   2.652  48.780  1.00  0.00     0.167 HD
BRANCH  11  13
HETATM   13  C5  UNL     1      22.638   1.736  50.377  1.00  0.00     0.031 C 
HETATM   14  C6  UNL     1      21.790   1.206  49.537  1.00  0.00    -0.002 C 
HETATM   15  C7  UNL     1      21.391   1.594  48.180  1.00  0.00     0.038 C 
BRANCH  13  16
HETATM   16  C4  UNL     1      23.498   2.102  51.489  1.00  0.00     0.056 C 
HETATM   17  C3  UNL     1      24.561   2.014  52.230  1.00  0.00     0.069 C 
HETATM   18 CL1  UNL     1      24.570   3.141  53.563  1.00  0.00    -0.081 Cl
BRANCH  17  19
HETATM   19  C2  UNL     1      25.590   1.048  51.910  1.00  0.00     0.099 A 
HETATM   20  C1  UNL     1      26.714   1.619  51.462  1.00  0.00     0.252 A 
HETATM   21  F1  UNL     1      26.540   0.162  51.614  1.00  0.00    -0.365 F 
ENDBRANCH  17  19
ENDBRANCH  13  16
ENDBRANCH  11  13
ENDBRANCH   1  11
BRANCH   8  22
HETATM   22  N4  UNL     1      27.075   5.930  49.441  1.00  0.00    -0.327 N 
HETATM   23  C14 UNL     1      27.767   6.426  48.341  1.00  0.00     0.218 C 
HETATM   24  C15 UNL     1      29.174   6.120  47.977  1.00  0.00     0.117 C 
HETATM   25  O1  UNL     1      27.180   7.210  47.561  1.00  0.00    -0.274 OA
HETATM   26  H12 UNL     1      27.692   5.290  49.998  1.00  0.00     0.169 HD
ENDBRANCH   8  22
TORSDOF 5
ENDMDL
MODEL 7
REMARK VINA RESULT:      -7.5      4.075      6.352
REMARK  5 active torsions:
REMARK  status: ('A' for Active; 'I' for Inactive)
REMARK    1  A    between atoms: C2_2  and  C3_4 
REMARK    2  A    between atoms: C4_6  and  C5_7 
REMARK    3  A    between atoms: C5_7  and  N1_10 
REMARK    4  A    between atoms: N1_10  and  C8_11 
REMARK    5  A    between atoms: C13_18  and  N4_19 
REMARK       I    between atoms: N4_19  and  C14_20 
ROOT
HETATM    1  C8  UNL     1      22.968   3.108  51.817  1.00  0.00     0.142 A 
HETATM    2  N2  UNL     1      21.798   2.749  51.310  1.00  0.00    -0.224 NA
HETATM    3  C9  UNL     1      21.302   1.492  51.379  1.00  0.00     0.236 A 
HETATM    4  N3  UNL     1      22.027   0.524  52.001  1.00  0.00    -0.241 NA
HETATM    5  C10 UNL     1      23.234   0.841  52.539  1.00  0.00     0.072 A 
HETATM    6  C11 UNL     1      23.981  -0.125  53.175  1.00  0.00     0.035 A 
HETATM    7  C12 UNL     1      25.191   0.271  53.696  1.00  0.00     0.032 A 
HETATM    8  C13 UNL     1      25.707   1.542  53.634  1.00  0.00     0.035 A 
HETATM    9  C16 UNL     1      24.910   2.453  52.986  1.00  0.00     0.047 A 
HETATM   10  C17 UNL     1      23.704   2.132  52.446  1.00  0.00     0.041 A 
ENDROOT
BRANCH   1  11
HETATM   11  N1  UNL     1      23.379   4.470  51.688  1.00  0.00    -0.340 N 
HETATM   12  H8  UNL     1      23.614   5.156  52.436  1.00  0.00     0.167 HD
BRANCH  11  13
HETATM   13  C5  UNL     1      23.476   4.975  50.328  1.00  0.00     0.031 C 
HETATM   14  C6  UNL     1      22.404   5.717  50.257  1.00  0.00    -0.002 C 
HETATM   15  C7  UNL     1      21.359   6.018  51.242  1.00  0.00     0.038 C 
BRANCH  13  16
HETATM   16  C4  UNL     1      24.709   4.234  50.125  1.00  0.00     0.056 C 
HETATM   17  C3  UNL     1      25.916   4.063  49.678  1.00  0.00     0.069 C 
HETATM   18 CL1  UNL     1      26.590   2.506  50.084  1.00  0.00    -0.081 Cl
BRANCH  17  19
HETATM   19  C2  UNL     1      26.566   5.115  48.925  1.00  0.00     0.099 A 
HETATM   20  C1  UNL     1      27.829   4.815  48.604  1.00  0.00     0.252 A 
HETATM   21  F1  UNL     1      27.167   6.081  48.233  1.00  0.00    -0.365 F 
ENDBRANCH  17  19
ENDBRANCH  13  16
ENDBRANCH  11  13
ENDBRANCH   1  11
BRANCH   8  22
HETATM   22  N4  UNL     1      26.946   1.978  54.158  1.00  0.00    -0.327 N 
HETATM   23  C14 UNL     1      28.241   1.552  53.884  1.00  0.00     0.218 C 
HETATM   24  C15 UNL     1      29.489   2.081  54.492  1.00  0.00     0.117 C 
HETATM   25  O1  UNL     1      28.411   0.635  53.049  1.00  0.00    -0.274 OA
HETATM   26  H12 UNL     1      26.963   2.746  54.873  1.00  0.00     0.169 HD
ENDBRANCH   8  22
TORSDOF 5
ENDMDL
MODEL 8
REMARK VINA RESULT:      -7.4      4.187      6.721
REMARK  5 active torsions:
REMARK  status: ('A' for Active; 'I' for Inactive)
REMARK    1  A    between atoms: C2_2  and  C3_4 
REMARK    2  A    between atoms: C4_6  and  C5_7 
REMARK    3  A    between atoms: C5_7  and  N1_10 
REMARK    4  A    between atoms: N1_10  and  C8_11 
REMARK    5  A    between atoms: C13_18  and  N4_19 
REMARK       I    between atoms: N4_19  and  C14_20 
ROOT
HETATM    1  C8  UNL     1      22.531   2.809  51.752  1.00  0.00     0.142 A 
HETATM    2  N2  UNL     1      21.261   3.184  51.812  1.00  0.00    -0.224 NA
HETATM    3  C9  UNL     1      20.313   2.520  52.511  1.00  0.00     0.236 A 
HETATM    4  N3  UNL     1      20.657   1.400  53.202  1.00  0.00    -0.241 NA
HETATM    5  C10 UNL     1      21.948   0.973  53.173  1.00  0.00     0.072 A 
HETATM    6  C11 UNL     1      22.316  -0.157  53.867  1.00  0.00     0.035 A 
HETATM    7  C12 UNL     1      23.639  -0.527  53.793  1.00  0.00     0.032 A 
HETATM    8  C13 UNL     1      24.612   0.137  53.088  1.00  0.00     0.035 A 
HETATM    9  C16 UNL     1      24.174   1.255  52.420  1.00  0.00     0.047 A 
HETATM   10  C17 UNL     1      22.882   1.677  52.448  1.00  0.00     0.041 A 
ENDROOT
BRANCH   1  11
HETATM   11  N1  UNL     1      23.440   3.601  50.986  1.00  0.00    -0.340 N 
HETATM   12  H8  UNL     1      24.469   3.713  51.104  1.00  0.00     0.167 HD
BRANCH  11  13
HETATM   13  C5  UNL     1      22.853   4.361  49.896  1.00  0.00     0.031 C 
HETATM   14  C6  UNL     1      23.137   5.584  50.258  1.00  0.00    -0.002 C 
HETATM   15  C7  UNL     1      23.861   6.112  51.419  1.00  0.00     0.038 C 
BRANCH  13  16
HETATM   16  C4  UNL     1      22.405   3.134  49.261  1.00  0.00     0.056 C 
HETATM   17  C3  UNL     1      22.086   2.383  48.250  1.00  0.00     0.069 C 
HETATM   18 CL1  UNL     1      21.590   0.775  48.713  1.00  0.00    -0.081 Cl
BRANCH  17  19
HETATM   19  C2  UNL     1      22.163   2.908  46.904  1.00  0.00     0.099 A 
HETATM   20  C1  UNL     1      21.100   3.652  46.578  1.00  0.00     0.252 A 
HETATM   21  F1  UNL     1      22.230   3.394  45.665  1.00  0.00    -0.365 F 
ENDBRANCH  17  19
ENDBRANCH  13  16
ENDBRANCH  11  13
ENDBRANCH   1  11
BRANCH   8  22
HETATM   22  N4  UNL     1      25.978  -0.218  52.991  1.00  0.00    -0.327 N 
HETATM   23  C14 UNL     1      27.040   0.043  53.851  1.00  0.00     0.218 C 
HETATM   24  C15 UNL     1      28.451  -0.380  53.659  1.00  0.00     0.117 C 
HETATM   25  O1  UNL     1      26.824   0.693  54.899  1.00  0.00    -0.274 OA
HETATM   26  H12 UNL     1      26.311  -0.768  52.162  1.00  0.00     0.169 HD
ENDBRANCH   8  22
TORSDOF 5
ENDMDL
MODEL 9
REMARK VINA RESULT:      -7.3      2.927      3.624
REMARK  5 active torsions:
REMARK  status: ('A' for Active; 'I' for Inactive)
REMARK    1  A    between atoms: C2_2  and  C3_4 
REMARK    2  A    between atoms: C4_6  and  C5_7 
REMARK    3  A    between atoms: C5_7  and  N1_10 
REMARK    4  A    between atoms: N1_10  and  C8_11 
REMARK    5  A    between atoms: C13_18  and  N4_19 
REMARK       I    between atoms: N4_19  and  C14_20 
ROOT
HETATM    1  C8  UNL     1      24.259   2.015  52.619  1.00  0.00     0.142 A 
HETATM    2  N2  UNL     1      24.205   0.722  52.905  1.00  0.00    -0.224 NA
HETATM    3  C9  UNL     1      23.052   0.021  53.001  1.00  0.00     0.236 A 
HETATM    4  N3  UNL     1      21.867   0.656  52.797  1.00  0.00    -0.241 NA
HETATM    5  C10 UNL     1      21.868   1.983  52.501  1.00  0.00     0.072 A 
HETATM    6  C11 UNL     1      20.679   2.643  52.289  1.00  0.00     0.035 A 
HETATM    7  C12 UNL     1      20.758   3.984  51.992  1.00  0.00     0.032 A 
HETATM    8  C13 UNL     1      21.920   4.709  51.890  1.00  0.00     0.035 A 
HETATM    9  C16 UNL     1      23.067   3.987  52.114  1.00  0.00     0.047 A 
HETATM   10  C17 UNL     1      23.063   2.661  52.413  1.00  0.00     0.041 A 
ENDROOT
BRANCH   1  11
HETATM   11  N1  UNL     1      25.539   2.642  52.536  1.00  0.00    -0.340 N 
HETATM   12  H8  UNL     1      25.825   3.591  52.857  1.00  0.00     0.167 HD
BRANCH  11  13
HETATM   13  C5  UNL     1      26.590   1.854  51.912  1.00  0.00     0.031 C 
HETATM   14  C6  UNL     1      26.625   2.380  50.717  1.00  0.00    -0.002 C 
HETATM   15  C7  UNL     1      25.859   3.476  50.112  1.00  0.00     0.038 C 
BRANCH  13  16
HETATM   16  C4  UNL     1      26.765   1.091  53.135  1.00  0.00     0.056 C 
HETATM   17  C3  UNL     1      27.345   0.217  53.902  1.00  0.00     0.069 C 
HETATM   18 CL1  UNL     1      26.590   0.062  55.467  1.00  0.00    -0.081 Cl
BRANCH  17  19
HETATM   19  C2  UNL     1      28.500  -0.513  53.424  1.00  0.00     0.099 A 
HETATM   20  C1  UNL     1      29.646   0.148  53.622  1.00  0.00     0.252 A 
HETATM   21  F1  UNL     1      29.566  -1.181  52.986  1.00  0.00    -0.365 F 
ENDBRANCH  17  19
ENDBRANCH  13  16
ENDBRANCH  11  13
ENDBRANCH   1  11
BRANCH   8  22
HETATM   22  N4  UNL     1      22.035   6.086  51.588  1.00  0.00    -0.327 N 
HETATM   23  C14 UNL     1      22.525   6.721  50.453  1.00  0.00     0.218 C 
HETATM   24  C15 UNL     1      22.601   8.188  50.229  1.00  0.00     0.117 C 
HETATM   25  O1  UNL     1      22.952   6.022  49.506  1.00  0.00    -0.274 OA
HETATM   26  H12 UNL     1      21.715   6.797  52.291  1.00  0.00     0.169 HD
ENDBRANCH   8  22
TORSDOF 5
ENDMDL
