MODEL 1
REMARK VINA RESULT:      -9.5      0.000      0.000
REMARK  4 active torsions:
REMARK  status: ('A' for Active; 'I' for Inactive)
REMARK    1  A    between atoms: C10_12  and  C11_13 
REMARK    2  A    between atoms: C11_13  and  C12_14 
REMARK       I    between atoms: C12_14  and  N2_16 
REMARK    3  A    between atoms: N2_16  and  C13_17 
REMARK    4  A    between atoms: C17_21  and  C18_22 
ROOT
HETATM    1  C12 UNL     1      26.610   3.767  49.426  1.00  0.00     0.247 C 
HETATM    2  O1  UNL     1      26.626   2.533  49.203  1.00  0.00    -0.268 OA
HETATM    3  N2  UNL     1      26.078   3.790  50.759  1.00  0.00    -0.324 N 
HETATM    4  H13 UNL     1      25.861   4.577  51.440  1.00  0.00     0.169 HD
ENDROOT
BRANCH   1   5
HETATM    5  C11 UNL     1      26.905   5.061  48.883  1.00  0.00     0.093 C 
BRANCH   5   6
HETATM    6  C10 UNL     1      27.285   6.281  48.608  1.00  0.00     0.013 A 
HETATM    7  S1  UNL     1      25.994   7.377  49.231  1.00  0.00    -0.102 SA
HETATM    8  C2  UNL     1      24.382   7.161  48.541  1.00  0.00    -0.002 C 
HETATM    9  N1  UNL     1      25.696   7.312  50.900  1.00  0.00    -0.368 N 
HETATM   10  C6  UNL     1      26.831   8.959  48.778  1.00  0.00     0.054 A 
HETATM   11  C1  UNL     1      24.162   6.340  47.547  1.00  0.00     0.032 C 
HETATM   12  C3  UNL     1      23.330   7.949  49.122  1.00  0.00     0.016 C 
HETATM   13  C4  UNL     1      23.401   8.108  50.434  1.00  0.00    -0.006 C 
HETATM   14  C5  UNL     1      24.402   7.586  51.347  1.00  0.00     0.154 C 
HETATM   15  H7  UNL     1      26.450   7.753  51.456  1.00  0.00     0.167 HD
HETATM   16  C7  UNL     1      27.983   8.981  48.183  1.00  0.00     0.007 A 
HETATM   17  C8  UNL     1      28.834   7.896  47.763  1.00  0.00     0.002 A 
HETATM   18  C9  UNL     1      28.511   6.654  47.957  1.00  0.00     0.019 A 
ENDBRANCH   5   6
ENDBRANCH   1   5
BRANCH   3  19
HETATM   19  C13 UNL     1      25.684   2.658  51.567  1.00  0.00     0.035 A 
HETATM   20  C14 UNL     1      24.380   2.245  51.727  1.00  0.00     0.029 A 
HETATM   21  C15 UNL     1      24.092   1.140  52.527  1.00  0.00     0.003 A 
HETATM   22  C16 UNL     1      25.106   0.441  53.172  1.00  0.00     0.008 A 
HETATM   23  C17 UNL     1      26.404   0.887  52.985  1.00  0.00    -0.048 A 
HETATM   24  C24 UNL     1      26.716   1.979  52.198  1.00  0.00     0.037 A 
BRANCH  23  25
HETATM   25  C18 UNL     1      27.537   0.193  53.638  1.00  0.00     0.046 C 
HETATM   26  C19 UNL     1      27.732  -1.177  53.040  1.00  0.00     0.052 C 
HETATM   27  C20 UNL     1      28.893  -1.781  53.166  1.00  0.00    -0.020 C 
HETATM   28  C21 UNL     1      29.894  -1.175  53.744  1.00  0.00    -0.021 C 
HETATM   29  C22 UNL     1      29.978   0.286  53.562  1.00  0.00    -0.007 C 
HETATM   30  C23 UNL     1      28.804   0.923  53.513  1.00  0.00    -0.017 C 
ENDBRANCH  23  25
ENDBRANCH   3  19
TORSDOF 4
ENDMDL
MODEL 2
REMARK VINA RESULT:      -9.4      3.258      5.572
REMARK  4 active torsions:
REMARK  status: ('A' for Active; 'I' for Inactive)
REMARK    1  A    between atoms: C10_12  and  C11_13 
REMARK    2  A    between atoms: C11_13  and  C12_14 
REMARK       I    between atoms: C12_14  and  N2_16 
REMARK    3  A    between atoms: N2_16  and  C13_17 
REMARK    4  A    between atoms: C17_21  and  C18_22 
ROOT
HETATM    1  C12 UNL     1      24.493   3.084  51.802  1.00  0.00     0.247 C 
HETATM    2  O1  UNL     1      24.127   3.194  52.996  1.00  0.00    -0.268 OA
HETATM    3  N2  UNL     1      24.001   1.770  51.493  1.00  0.00    -0.324 N 
HETATM    4  H13 UNL     1      24.028   1.175  50.612  1.00  0.00     0.169 HD
ENDROOT
BRANCH   1   5
HETATM    5  C11 UNL     1      25.166   3.735  50.716  1.00  0.00     0.093 C 
BRANCH   5   6
HETATM    6  C10 UNL     1      25.906   4.446  49.906  1.00  0.00     0.013 A 
HETATM    7  S1  UNL     1      25.063   6.027  49.691  1.00  0.00    -0.102 SA
HETATM    8  C2  UNL     1      23.438   5.962  48.998  1.00  0.00    -0.002 C 
HETATM    9  N1  UNL     1      24.831   6.951  51.096  1.00  0.00    -0.368 N 
HETATM   10  C6  UNL     1      26.343   6.797  48.606  1.00  0.00     0.054 A 
HETATM   11  C1  UNL     1      22.924   4.846  48.551  1.00  0.00     0.032 C 
HETATM   12  C3  UNL     1      22.721   7.206  48.939  1.00  0.00     0.016 C 
HETATM   13  C4  UNL     1      22.896   8.009  49.976  1.00  0.00    -0.006 C 
HETATM   14  C5  UNL     1      23.714   7.786  51.155  1.00  0.00     0.154 C 
HETATM   15  H7  UNL     1      25.710   7.376  51.441  1.00  0.00     0.167 HD
HETATM   16  C7  UNL     1      27.415   6.160  48.250  1.00  0.00     0.007 A 
HETATM   17  C8  UNL     1      27.853   4.825  48.570  1.00  0.00     0.002 A 
HETATM   18  C9  UNL     1      27.157   4.036  49.331  1.00  0.00     0.019 A 
ENDBRANCH   5   6
ENDBRANCH   1   5
BRANCH   3  19
HETATM   19  C13 UNL     1      23.289   0.870  52.371  1.00  0.00     0.035 A 
HETATM   20  C14 UNL     1      23.903   0.024  53.267  1.00  0.00     0.029 A 
HETATM   21  C15 UNL     1      23.136  -0.811  54.077  1.00  0.00     0.003 A 
HETATM   22  C16 UNL     1      21.747  -0.806  53.995  1.00  0.00     0.008 A 
HETATM   23  C17 UNL     1      21.167   0.059  53.082  1.00  0.00    -0.048 A 
HETATM   24  C24 UNL     1      21.906   0.897  52.268  1.00  0.00     0.037 A 
BRANCH  23  25
HETATM   25  C18 UNL     1      19.695   0.122  52.940  1.00  0.00     0.046 C 
HETATM   26  C19 UNL     1      19.311   0.286  51.491  1.00  0.00     0.052 C 
HETATM   27  C20 UNL     1      18.101  -0.045  51.100  1.00  0.00    -0.020 C 
HETATM   28  C21 UNL     1      17.256  -0.578  51.940  1.00  0.00    -0.021 C 
HETATM   29  C22 UNL     1      17.823  -1.449  52.987  1.00  0.00    -0.007 C 
HETATM   30  C23 UNL     1      19.019  -1.076  53.452  1.00  0.00    -0.017 C 
ENDBRANCH  23  25
ENDBRANCH   3  19
TORSDOF 4
ENDMDL
MODEL 3
REMARK VINA RESULT:      -9.3      1.807      3.669
REMARK  4 active torsions:
REMARK  status: ('A' for Active; 'I' for Inactive)
REMARK    1  A    between atoms: C10_12  and  C11_13 
REMARK    2  A    between atoms: C11_13  and  C12_14 
REMARK       I    between atoms: C12_14  and  N2_16 
REMARK    3  A    between atoms: N2_16  and  C13_17 
REMARK    4  A    between atoms: C17_21  and  C18_22 
ROOT
HETATM    1  C12 UNL     1      26.504   3.201  50.331  1.00  0.00     0.247 C 
HETATM    2  O1  UNL     1      26.882   2.006  50.288  1.00  0.00    -0.268 OA
HETATM    3  N2  UNL     1      25.880   3.237  51.624  1.00  0.00    -0.324 N 
HETATM    4  H13 UNL     1      25.398   4.007  52.176  1.00  0.00     0.169 HD
ENDROOT
BRANCH   1   5
HETATM    5  C11 UNL     1      26.469   4.447  49.622  1.00  0.00     0.093 C 
BRANCH   5   6
HETATM    6  C10 UNL     1      26.683   5.583  49.011  1.00  0.00     0.013 A 
HETATM    7  S1  UNL     1      25.292   6.658  49.418  1.00  0.00    -0.102 SA
HETATM    8  C2  UNL     1      23.692   6.091  48.927  1.00  0.00    -0.002 C 
HETATM    9  N1  UNL     1      25.073   7.011  51.064  1.00  0.00    -0.368 N 
HETATM   10  C6  UNL     1      25.907   8.143  48.509  1.00  0.00     0.054 A 
HETATM   11  C1  UNL     1      23.535   5.016  48.201  1.00  0.00     0.032 C 
HETATM   12  C3  UNL     1      22.575   6.888  49.357  1.00  0.00     0.016 C 
HETATM   13  C4  UNL     1      22.680   7.399  50.573  1.00  0.00    -0.006 C 
HETATM   14  C5  UNL     1      23.774   7.252  51.516  1.00  0.00     0.154 C 
HETATM   15  H7  UNL     1      25.789   7.664  51.429  1.00  0.00     0.167 HD
HETATM   16  C7  UNL     1      27.023   8.130  47.847  1.00  0.00     0.007 A 
HETATM   17  C8  UNL     1      27.983   7.071  47.664  1.00  0.00     0.002 A 
HETATM   18  C9  UNL     1      27.825   5.899  48.198  1.00  0.00     0.019 A 
ENDBRANCH   5   6
ENDBRANCH   1   5
BRANCH   3  19
HETATM   19  C13 UNL     1      25.754   2.150  52.569  1.00  0.00     0.035 A 
HETATM   20  C14 UNL     1      26.701   1.845  53.521  1.00  0.00     0.029 A 
HETATM   21  C15 UNL     1      26.496   0.777  54.392  1.00  0.00     0.003 A 
HETATM   22  C16 UNL     1      25.341   0.006  54.317  1.00  0.00     0.008 A 
HETATM   23  C17 UNL     1      24.412   0.345  53.347  1.00  0.00    -0.048 A 
HETATM   24  C24 UNL     1      24.592   1.398  52.471  1.00  0.00     0.037 A 
BRANCH  23  25
HETATM   25  C18 UNL     1      23.157  -0.429  53.208  1.00  0.00     0.046 C 
HETATM   26  C19 UNL     1      22.649  -0.859  54.560  1.00  0.00     0.052 C 
HETATM   27  C20 UNL     1      21.383  -1.179  54.705  1.00  0.00    -0.020 C 
HETATM   28  C21 UNL     1      20.552  -1.061  53.706  1.00  0.00    -0.021 C 
HETATM   29  C22 UNL     1      20.801   0.047  52.764  1.00  0.00    -0.007 C 
HETATM   30  C23 UNL     1      22.089   0.329  52.546  1.00  0.00    -0.017 C 
ENDBRANCH  23  25
ENDBRANCH   3  19
TORSDOF 4
ENDMDL
MODEL 4
REMARK VINA RESULT:      -9.3      2.114      3.754
REMARK  4 active torsions:
REMARK  status: ('A' for Active; 'I' for Inactive)
REMARK    1  A    between atoms: C10_12  and  C11_13 
REMARK    2  A    between atoms: C11_13  and  C12_14 
REMARK       I    between atoms: C12_14  and  N2_16 
REMARK    3  A    between atoms: N2_16  and  C13_17 
REMARK    4  A    between atoms: C17_21  and  C18_22 
ROOT
HETATM    1  C12 UNL     1      26.427   3.594  50.081  1.00  0.00     0.247 C 
HETATM    2  O1  UNL     1      26.837   2.493  49.644  1.00  0.00    -0.268 OA
HETATM    3  N2  UNL     1      26.107   3.241  51.436  1.00  0.00    -0.324 N 
HETATM    4  H13 UNL     1      25.727   3.796  52.260  1.00  0.00     0.169 HD
ENDROOT
BRANCH   1   5
HETATM    5  C11 UNL     1      26.181   4.968  49.754  1.00  0.00     0.093 C 
BRANCH   5   6
HETATM    6  C10 UNL     1      25.759   6.198  49.605  1.00  0.00     0.013 A 
HETATM    7  S1  UNL     1      24.087   6.254  50.279  1.00  0.00    -0.102 SA
HETATM    8  C2  UNL     1      22.896   5.195  49.513  1.00  0.00    -0.002 C 
HETATM    9  N1  UNL     1      23.926   5.867  51.923  1.00  0.00    -0.368 N 
HETATM   10  C6  UNL     1      23.815   8.060  50.004  1.00  0.00     0.054 A 
HETATM   11  C1  UNL     1      23.180   4.502  48.442  1.00  0.00     0.032 C 
HETATM   12  C3  UNL     1      21.597   5.151  50.126  1.00  0.00     0.016 C 
HETATM   13  C4  UNL     1      21.593   5.195  51.448  1.00  0.00    -0.006 C 
HETATM   14  C5  UNL     1      22.731   5.280  52.345  1.00  0.00     0.154 C 
HETATM   15  H7  UNL     1      24.287   6.613  52.544  1.00  0.00     0.167 HD
HETATM   16  C7  UNL     1      24.717   8.814  49.456  1.00  0.00     0.007 A 
HETATM   17  C8  UNL     1      26.033   8.487  48.969  1.00  0.00     0.002 A 
HETATM   18  C9  UNL     1      26.511   7.282  49.037  1.00  0.00     0.019 A 
ENDBRANCH   5   6
ENDBRANCH   1   5
BRANCH   3  19
HETATM   19  C13 UNL     1      26.242   1.945  52.061  1.00  0.00     0.035 A 
HETATM   20  C14 UNL     1      27.452   1.362  52.368  1.00  0.00     0.029 A 
HETATM   21  C15 UNL     1      27.487   0.106  52.971  1.00  0.00     0.003 A 
HETATM   22  C16 UNL     1      26.313  -0.576  53.271  1.00  0.00     0.008 A 
HETATM   23  C17 UNL     1      25.117   0.044  52.948  1.00  0.00    -0.048 A 
HETATM   24  C24 UNL     1      25.055   1.288  52.349  1.00  0.00     0.037 A 
BRANCH  23  25
HETATM   25  C18 UNL     1      23.826  -0.619  53.239  1.00  0.00     0.046 C 
HETATM   26  C19 UNL     1      23.764  -1.043  54.685  1.00  0.00     0.052 C 
HETATM   27  C20 UNL     1      22.596  -1.261  55.247  1.00  0.00    -0.020 C 
HETATM   28  C21 UNL     1      21.492  -1.048  54.583  1.00  0.00    -0.021 C 
HETATM   29  C22 UNL     1      21.508   0.061  53.611  1.00  0.00    -0.007 C 
HETATM   30  C23 UNL     1      22.667   0.242  52.972  1.00  0.00    -0.017 C 
ENDBRANCH  23  25
ENDBRANCH   3  19
TORSDOF 4
ENDMDL
MODEL 5
REMARK VINA RESULT:      -9.0      2.478      8.282
REMARK  4 active torsions:
REMARK  status: ('A' for Active; 'I' for Inactive)
REMARK    1  A    between atoms: C10_12  and  C11_13 
REMARK    2  A    between atoms: C11_13  and  C12_14 
REMARK       I    between atoms: C12_14  and  N2_16 
REMARK    3  A    between atoms: N2_16  and  C13_17 
REMARK    4  A    between atoms: C17_21  and  C18_22 
ROOT
HETATM    1  C12 UNL     1      24.108   2.221  51.273  1.00  0.00     0.247 C 
HETATM    2  O1  UNL     1      23.743   2.435  50.092  1.00  0.00    -0.268 OA
HETATM    3  N2  UNL     1      24.565   3.528  51.653  1.00  0.00    -0.324 N 
HETATM    4  H13 UNL     1      24.972   3.921  52.553  1.00  0.00     0.169 HD
ENDROOT
BRANCH   1   5
HETATM    5  C11 UNL     1      24.226   1.230  52.302  1.00  0.00     0.093 C 
BRANCH   5   6
HETATM    6  C10 UNL     1      24.100   0.390  53.297  1.00  0.00     0.013 A 
HETATM    7  S1  UNL     1      25.755   0.134  53.968  1.00  0.00    -0.102 SA
HETATM    8  C2  UNL     1      26.955  -0.542  52.860  1.00  0.00    -0.002 C 
HETATM    9  N1  UNL     1      26.541   1.511  54.573  1.00  0.00    -0.368 N 
HETATM   10  C6  UNL     1      25.247  -0.986  55.345  1.00  0.00     0.054 A 
HETATM   11  C1  UNL     1      26.632  -0.949  51.660  1.00  0.00     0.032 C 
HETATM   12  C3  UNL     1      28.300  -0.634  53.357  1.00  0.00     0.016 C 
HETATM   13  C4  UNL     1      28.692   0.376  54.118  1.00  0.00    -0.006 C 
HETATM   14  C5  UNL     1      27.936   1.554  54.504  1.00  0.00     0.154 C 
HETATM   15  H7  UNL     1      26.141   1.835  55.471  1.00  0.00     0.167 HD
HETATM   16  C7  UNL     1      24.011  -1.332  55.529  1.00  0.00     0.007 A 
HETATM   17  C8  UNL     1      22.825  -0.974  54.792  1.00  0.00     0.002 A 
HETATM   18  C9  UNL     1      22.867  -0.183  53.764  1.00  0.00     0.019 A 
ENDBRANCH   5   6
ENDBRANCH   1   5
BRANCH   3  19
HETATM   19  C13 UNL     1      24.577   4.724  50.841  1.00  0.00     0.035 A 
HETATM   20  C14 UNL     1      23.595   5.689  50.881  1.00  0.00     0.029 A 
HETATM   21  C15 UNL     1      23.689   6.813  50.062  1.00  0.00     0.003 A 
HETATM   22  C16 UNL     1      24.765   6.979  49.197  1.00  0.00     0.008 A 
HETATM   23  C17 UNL     1      25.732   5.987  49.187  1.00  0.00    -0.048 A 
HETATM   24  C24 UNL     1      25.662   4.864  49.989  1.00  0.00     0.037 A 
BRANCH  23  25
HETATM   25  C18 UNL     1      26.908   6.095  48.295  1.00  0.00     0.046 C 
HETATM   26  C19 UNL     1      27.556   7.449  48.437  1.00  0.00     0.052 C 
HETATM   27  C20 UNL     1      28.809   7.610  48.072  1.00  0.00    -0.020 C 
HETATM   28  C21 UNL     1      29.511   6.593  47.653  1.00  0.00    -0.021 C 
HETATM   29  C22 UNL     1      29.214   5.284  48.265  1.00  0.00    -0.007 C 
HETATM   30  C23 UNL     1      27.929   5.076  48.567  1.00  0.00    -0.017 C 
ENDBRANCH  23  25
ENDBRANCH   3  19
TORSDOF 4
ENDMDL
MODEL 6
REMARK VINA RESULT:      -8.9      2.539      3.860
REMARK  4 active torsions:
REMARK  status: ('A' for Active; 'I' for Inactive)
REMARK    1  A    between atoms: C10_12  and  C11_13 
REMARK    2  A    between atoms: C11_13  and  C12_14 
REMARK       I    between atoms: C12_14  and  N2_16 
REMARK    3  A    between atoms: N2_16  and  C13_17 
REMARK    4  A    between atoms: C17_21  and  C18_22 
ROOT
HETATM    1  C12 UNL     1      22.386   1.979  49.684  1.00  0.00     0.247 C 
HETATM    2  O1  UNL     1      21.925   0.820  49.805  1.00  0.00    -0.268 OA
HETATM    3  N2  UNL     1      22.953   2.178  50.989  1.00  0.00    -0.324 N 
HETATM    4  H13 UNL     1      23.479   2.986  51.435  1.00  0.00     0.169 HD
ENDROOT
BRANCH   1   5
HETATM    5  C11 UNL     1      22.545   3.092  48.794  1.00  0.00     0.093 C 
BRANCH   5   6
HETATM    6  C10 UNL     1      22.457   4.053  47.911  1.00  0.00     0.013 A 
HETATM    7  S1  UNL     1      23.255   5.497  48.639  1.00  0.00    -0.102 SA
HETATM    8  C2  UNL     1      22.557   6.104  50.145  1.00  0.00    -0.002 C 
HETATM    9  N1  UNL     1      24.898   5.329  49.033  1.00  0.00    -0.368 N 
HETATM   10  C6  UNL     1      23.044   6.607  47.179  1.00  0.00     0.054 A 
HETATM   11  C1  UNL     1      21.451   5.612  50.638  1.00  0.00     0.032 C 
HETATM   12  C3  UNL     1      23.264   7.178  50.787  1.00  0.00     0.016 C 
HETATM   13  C4  UNL     1      24.584   7.100  50.731  1.00  0.00    -0.006 C 
HETATM   14  C5  UNL     1      25.395   6.070  50.107  1.00  0.00     0.154 C 
HETATM   15  H7  UNL     1      25.508   5.315  48.196  1.00  0.00     0.167 HD
HETATM   16  C7  UNL     1      22.448   6.212  46.097  1.00  0.00     0.007 A 
HETATM   17  C8  UNL     1      21.856   4.939  45.772  1.00  0.00     0.002 A 
HETATM   18  C9  UNL     1      21.860   3.946  46.608  1.00  0.00     0.019 A 
ENDBRANCH   5   6
ENDBRANCH   1   5
BRANCH   3  19
HETATM   19  C13 UNL     1      22.954   1.249  52.097  1.00  0.00     0.035 A 
HETATM   20  C14 UNL     1      21.817   0.843  52.759  1.00  0.00     0.029 A 
HETATM   21  C15 UNL     1      21.911  -0.058  53.818  1.00  0.00     0.003 A 
HETATM   22  C16 UNL     1      23.144  -0.557  54.223  1.00  0.00     0.008 A 
HETATM   23  C17 UNL     1      24.264  -0.126  53.532  1.00  0.00    -0.048 A 
HETATM   24  C24 UNL     1      24.197   0.766  52.479  1.00  0.00     0.037 A 
BRANCH  23  25
HETATM   25  C18 UNL     1      25.610  -0.616  53.904  1.00  0.00     0.046 C 
HETATM   26  C19 UNL     1      26.407  -0.957  52.670  1.00  0.00     0.052 C 
HETATM   27  C20 UNL     1      27.719  -1.008  52.739  1.00  0.00    -0.020 C 
HETATM   28  C21 UNL     1      28.335  -0.698  53.847  1.00  0.00    -0.021 C 
HETATM   29  C22 UNL     1      27.717   0.352  54.678  1.00  0.00    -0.007 C 
HETATM   30  C23 UNL     1      26.381   0.362  54.681  1.00  0.00    -0.017 C 
ENDBRANCH  23  25
ENDBRANCH   3  19
TORSDOF 4
ENDMDL
MODEL 7
REMARK VINA RESULT:      -8.6      2.604      3.473
REMARK  4 active torsions:
REMARK  status: ('A' for Active; 'I' for Inactive)
REMARK    1  A    between atoms: C10_12  and  C11_13 
REMARK    2  A    between atoms: C11_13  and  C12_14 
REMARK       I    between atoms: C12_14  and  N2_16 
REMARK    3  A    between atoms: N2_16  and  C13_17 
REMARK    4  A    between atoms: C17_21  and  C18_22 
ROOT
HETATM    1  C12 UNL     1      25.316   3.269  49.989  1.00  0.00     0.247 C 
HETATM    2  O1  UNL     1      25.424   2.337  50.820  1.00  0.00    -0.268 OA
HETATM    3  N2  UNL     1      23.942   3.121  49.598  1.00  0.00    -0.324 N 
HETATM    4  H13 UNL     1      23.319   3.654  48.922  1.00  0.00     0.169 HD
ENDROOT
BRANCH   1   5
HETATM    5  C11 UNL     1      26.004   4.345  49.337  1.00  0.00     0.093 C 
BRANCH   5   6
HETATM    6  C10 UNL     1      26.747   5.353  48.961  1.00  0.00     0.013 A 
HETATM    7  S1  UNL     1      25.793   6.849  49.289  1.00  0.00    -0.102 SA
HETATM    8  C2  UNL     1      24.247   6.994  48.446  1.00  0.00    -0.002 C 
HETATM    9  N1  UNL     1      25.362   7.124  50.908  1.00  0.00    -0.368 N 
HETATM   10  C6  UNL     1      27.092   8.045  48.748  1.00  0.00     0.054 A 
HETATM   11  C1  UNL     1      23.872   6.128  47.542  1.00  0.00     0.032 C 
HETATM   12  C3  UNL     1      23.433   8.125  48.799  1.00  0.00     0.016 C 
HETATM   13  C4  UNL     1      23.447   8.454  50.081  1.00  0.00    -0.006 C 
HETATM   14  C5  UNL     1      24.175   7.816  51.162  1.00  0.00     0.154 C 
HETATM   15  H7  UNL     1      26.167   7.414  51.490  1.00  0.00     0.167 HD
HETATM   16  C7  UNL     1      28.242   7.651  48.295  1.00  0.00     0.007 A 
HETATM   17  C8  UNL     1      28.764   6.320  48.113  1.00  0.00     0.002 A 
HETATM   18  C9  UNL     1      28.075   5.263  48.418  1.00  0.00     0.019 A 
ENDBRANCH   5   6
ENDBRANCH   1   5
BRANCH   3  19
HETATM   19  C13 UNL     1      22.996   2.136  50.072  1.00  0.00     0.035 A 
HETATM   20  C14 UNL     1      21.978   1.616  49.304  1.00  0.00     0.029 A 
HETATM   21  C15 UNL     1      21.110   0.668  49.845  1.00  0.00     0.003 A 
HETATM   22  C16 UNL     1      21.256   0.235  51.158  1.00  0.00     0.008 A 
HETATM   23  C17 UNL     1      22.291   0.781  51.898  1.00  0.00    -0.048 A 
HETATM   24  C24 UNL     1      23.164   1.721  51.385  1.00  0.00     0.037 A 
BRANCH  23  25
HETATM   25  C18 UNL     1      22.510   0.366  53.302  1.00  0.00     0.046 C 
HETATM   26  C19 UNL     1      21.611  -0.790  53.657  1.00  0.00     0.052 C 
HETATM   27  C20 UNL     1      21.920  -1.563  54.675  1.00  0.00    -0.020 C 
HETATM   28  C21 UNL     1      23.031  -1.377  55.333  1.00  0.00    -0.021 C 
HETATM   29  C22 UNL     1      24.188  -0.892  54.557  1.00  0.00    -0.007 C 
HETATM   30  C23 UNL     1      23.894  -0.041  53.570  1.00  0.00    -0.017 C 
ENDBRANCH  23  25
ENDBRANCH   3  19
TORSDOF 4
ENDMDL
MODEL 8
REMARK VINA RESULT:      -8.6      2.265      3.985
REMARK  4 active torsions:
REMARK  status: ('A' for Active; 'I' for Inactive)
REMARK    1  A    between atoms: C10_12  and  C11_13 
REMARK    2  A    between atoms: C11_13  and  C12_14 
REMARK       I    between atoms: C12_14  and  N2_16 
REMARK    3  A    between atoms: N2_16  and  C13_17 
REMARK    4  A    between atoms: C17_21  and  C18_22 
ROOT
HETATM    1  C12 UNL     1      26.058   6.438  49.276  1.00  0.00     0.247 C 
HETATM    2  O1  UNL     1      25.496   6.452  50.397  1.00  0.00    -0.268 OA
HETATM    3  N2  UNL     1      26.036   5.032  48.984  1.00  0.00    -0.324 N 
HETATM    4  H13 UNL     1      26.376   4.458  48.156  1.00  0.00     0.169 HD
ENDROOT
BRANCH   1   5
HETATM    5  C11 UNL     1      26.665   7.244  48.258  1.00  0.00     0.093 C 
BRANCH   5   6
HETATM    6  C10 UNL     1      27.240   7.765  47.205  1.00  0.00     0.013 A 
HETATM    7  S1  UNL     1      29.017   7.732  47.519  1.00  0.00    -0.102 SA
HETATM    8  C2  UNL     1      29.582   8.636  48.928  1.00  0.00    -0.002 C 
HETATM    9  N1  UNL     1      29.708   6.200  47.758  1.00  0.00    -0.368 N 
HETATM   10  C6  UNL     1      29.527   8.430  45.888  1.00  0.00     0.054 A 
HETATM   11  C1  UNL     1      28.778   9.388  49.631  1.00  0.00     0.032 C 
HETATM   12  C3  UNL     1      30.978   8.510  49.246  1.00  0.00     0.016 C 
HETATM   13  C4  UNL     1      31.494   7.305  49.065  1.00  0.00    -0.006 C 
HETATM   14  C5  UNL     1      30.826   6.107  48.590  1.00  0.00     0.154 C 
HETATM   15  H7  UNL     1      29.771   5.651  46.882  1.00  0.00     0.167 HD
HETATM   16  C7  UNL     1      28.660   8.771  44.985  1.00  0.00     0.007 A 
HETATM   17  C8  UNL     1      27.221   8.703  45.005  1.00  0.00     0.002 A 
HETATM   18  C9  UNL     1      26.568   8.242  46.028  1.00  0.00     0.019 A 
ENDBRANCH   5   6
ENDBRANCH   1   5
BRANCH   3  19
HETATM   19  C13 UNL     1      25.499   3.972  49.808  1.00  0.00     0.035 A 
HETATM   20  C14 UNL     1      24.153   3.732  49.970  1.00  0.00     0.029 A 
HETATM   21  C15 UNL     1      23.724   2.686  50.785  1.00  0.00     0.003 A 
HETATM   22  C16 UNL     1      24.640   1.873  51.443  1.00  0.00     0.008 A 
HETATM   23  C17 UNL     1      25.984   2.145  51.254  1.00  0.00    -0.048 A 
HETATM   24  C24 UNL     1      26.435   3.176  50.452  1.00  0.00     0.037 A 
BRANCH  23  25
HETATM   25  C18 UNL     1      27.017   1.320  51.921  1.00  0.00     0.046 C 
HETATM   26  C19 UNL     1      27.238   1.793  53.335  1.00  0.00     0.052 C 
HETATM   27  C20 UNL     1      27.780   0.979  54.213  1.00  0.00    -0.020 C 
HETATM   28  C21 UNL     1      28.063  -0.253  53.887  1.00  0.00    -0.021 C 
HETATM   29  C22 UNL     1      27.162  -0.905  52.920  1.00  0.00    -0.007 C 
HETATM   30  C23 UNL     1      26.668  -0.104  51.971  1.00  0.00    -0.017 C 
ENDBRANCH  23  25
ENDBRANCH   3  19
TORSDOF 4
ENDMDL
MODEL 9
REMARK VINA RESULT:      -8.4      1.985      3.548
REMARK  4 active torsions:
REMARK  status: ('A' for Active; 'I' for Inactive)
REMARK    1  A    between atoms: C10_12  and  C11_13 
REMARK    2  A    between atoms: C11_13  and  C12_14 
REMARK       I    between atoms: C12_14  and  N2_16 
REMARK    3  A    between atoms: N2_16  and  C13_17 
REMARK    4  A    between atoms: C17_21  and  C18_22 
ROOT
HETATM    1  C12 UNL     1      22.835   4.033  50.698  1.00  0.00     0.247 C 
HETATM    2  O1  UNL     1      22.741   4.025  51.948  1.00  0.00    -0.268 OA
HETATM    3  N2  UNL     1      23.455   2.758  50.469  1.00  0.00    -0.324 N 
HETATM    4  H13 UNL     1      23.757   2.247  49.587  1.00  0.00     0.169 HD
ENDROOT
BRANCH   1   5
HETATM    5  C11 UNL     1      22.570   4.786  49.507  1.00  0.00     0.093 C 
BRANCH   5   6
HETATM    6  C10 UNL     1      22.572   5.445  48.378  1.00  0.00     0.013 A 
HETATM    7  S1  UNL     1      23.947   6.610  48.463  1.00  0.00    -0.102 SA
HETATM    8  C2  UNL     1      23.885   7.802  49.767  1.00  0.00    -0.002 C 
HETATM    9  N1  UNL     1      25.493   5.935  48.650  1.00  0.00    -0.368 N 
HETATM   10  C6  UNL     1      23.737   7.302  46.764  1.00  0.00     0.054 A 
HETATM   11  C1  UNL     1      22.844   7.914  50.549  1.00  0.00     0.032 C 
HETATM   12  C3  UNL     1      25.037   8.651  49.908  1.00  0.00     0.016 C 
HETATM   13  C4  UNL     1      26.203   8.063  49.692  1.00  0.00    -0.006 C 
HETATM   14  C5  UNL     1      26.456   6.679  49.335  1.00  0.00     0.154 C 
HETATM   15  H7  UNL     1      25.833   5.475  47.786  1.00  0.00     0.167 HD
HETATM   16  C7  UNL     1      22.792   6.900  45.972  1.00  0.00     0.007 A 
HETATM   17  C8  UNL     1      21.763   5.912  46.176  1.00  0.00     0.002 A 
HETATM   18  C9  UNL     1      21.662   5.245  47.284  1.00  0.00     0.019 A 
ENDBRANCH   5   6
ENDBRANCH   1   5
BRANCH   3  19
HETATM   19  C13 UNL     1      23.844   1.780  51.459  1.00  0.00     0.035 A 
HETATM   20  C14 UNL     1      22.955   0.972  52.131  1.00  0.00     0.029 A 
HETATM   21  C15 UNL     1      23.420   0.054  53.072  1.00  0.00     0.003 A 
HETATM   22  C16 UNL     1      24.778  -0.061  53.345  1.00  0.00     0.008 A 
HETATM   23  C17 UNL     1      25.641   0.768  52.648  1.00  0.00    -0.048 A 
HETATM   24  C24 UNL     1      25.205   1.686  51.712  1.00  0.00     0.037 A 
BRANCH  23  25
HETATM   25  C18 UNL     1      27.101   0.701  52.884  1.00  0.00     0.046 C 
HETATM   26  C19 UNL     1      27.656   2.077  53.151  1.00  0.00     0.052 C 
HETATM   27  C20 UNL     1      28.805   2.202  53.778  1.00  0.00    -0.020 C 
HETATM   28  C21 UNL     1      29.430   1.149  54.229  1.00  0.00    -0.021 C 
HETATM   29  C22 UNL     1      28.591   0.032  54.702  1.00  0.00    -0.007 C 
HETATM   30  C23 UNL     1      27.458  -0.157  54.021  1.00  0.00    -0.017 C 
ENDBRANCH  23  25
ENDBRANCH   3  19
TORSDOF 4
ENDMDL
