MODEL 1
REMARK VINA RESULT:      -7.1      0.000      0.000
REMARK  8 active torsions:
REMARK  status: ('A' for Active; 'I' for Inactive)
REMARK    1  A    between atoms: C2_2  and  N1_3 
REMARK    2  A    between atoms: N1_3  and  C4_5 
REMARK    3  A    between atoms: C4_5  and  C5_6 
REMARK    4  A    between atoms: C6_7  and  C7_8 
REMARK       I    between atoms: C7_8  and  N2_10 
REMARK    5  A    between atoms: N2_10  and  C8_11 
REMARK    6  A    between atoms: C11_14  and  N3_15 
REMARK    7  A    between atoms: N3_15  and  C12_16 
REMARK    8  A    between atoms: C13_17  and  O2_18 
ROOT
HETATM    1  C8  UNL     1      22.409   0.613  52.381  1.00  0.00     0.099 C 
HETATM    2  C9  UNL     1      23.189   0.010  53.246  1.00  0.00    -0.028 A 
HETATM    3  C10 UNL     1      24.662  -0.011  53.057  1.00  0.00     0.119 A 
HETATM    4  C11 UNL     1      25.300  -0.768  54.193  1.00  0.00     0.107 A 
HETATM    5  N4  UNL     1      24.695  -1.317  55.175  1.00  0.00    -0.247 NA
HETATM    6  C15 UNL     1      23.267  -1.278  55.323  1.00  0.00     0.126 A 
HETATM    7  C16 UNL     1      22.548  -0.638  54.392  1.00  0.00    -0.036 A 
HETATM    8  C17 UNL     1      21.057  -0.595  54.541  1.00  0.00     0.050 C 
ENDROOT
BRANCH   1   9
HETATM    9  N2  UNL     1      22.847   1.293  51.214  1.00  0.00    -0.333 N 
HETATM   10  C7  UNL     1      22.098   1.616  50.075  1.00  0.00     0.244 C 
HETATM   11  O1  UNL     1      20.886   1.254  50.104  1.00  0.00    -0.268 OA
HETATM   12  H13 UNL     1      23.852   1.581  51.218  1.00  0.00     0.168 HD
BRANCH  10  13
HETATM   13  C6  UNL     1      22.697   2.320  48.950  1.00  0.00     0.072 C 
HETATM   14  C5  UNL     1      23.458   3.380  49.071  1.00  0.00    -0.002 C 
BRANCH  14  15
HETATM   15  C4  UNL     1      23.985   4.225  50.150  1.00  0.00     0.144 C 
BRANCH  15  16
HETATM   16  N1  UNL     1      25.386   4.433  50.040  1.00  0.00    -0.414 N 
HETATM   17  C3  UNL     1      25.833   5.693  49.572  1.00  0.00     0.143 C 
BRANCH  16  18
HETATM   18  C2  UNL     1      26.188   3.328  49.663  1.00  0.00     0.112 C 
HETATM   19  C1  UNL     1      26.528   2.477  50.886  1.00  0.00     0.026 C 
ENDBRANCH  16  18
ENDBRANCH  15  16
ENDBRANCH  14  15
ENDBRANCH  10  13
ENDBRANCH   1   9
BRANCH   4  20
HETATM   20  N3  UNL     1      26.713  -0.877  54.156  1.00  0.00    -0.352 N 
HETATM   21  H17 UNL     1      27.212  -1.781  54.094  1.00  0.00     0.166 HD
BRANCH  20  22
HETATM   22  C12 UNL     1      27.573   0.239  54.203  1.00  0.00     0.113 C 
HETATM   23  C13 UNL     1      28.648   0.484  54.934  1.00  0.00     0.151 C 
BRANCH  23  24
HETATM   24  O2  UNL     1      29.327   1.688  54.781  1.00  0.00    -0.366 OA
HETATM   25  C14 UNL     1      28.894   2.515  53.710  1.00  0.00     0.209 C 
ENDBRANCH  23  24
ENDBRANCH  20  22
ENDBRANCH   4  20
TORSDOF 8
ENDMDL
MODEL 2
REMARK VINA RESULT:      -7.0      1.134      1.626
REMARK  8 active torsions:
REMARK  status: ('A' for Active; 'I' for Inactive)
REMARK    1  A    between atoms: C2_2  and  N1_3 
REMARK    2  A    between atoms: N1_3  and  C4_5 
REMARK    3  A    between atoms: C4_5  and  C5_6 
REMARK    4  A    between atoms: C6_7  and  C7_8 
REMARK       I    between atoms: C7_8  and  N2_10 
REMARK    5  A    between atoms: N2_10  and  C8_11 
REMARK    6  A    between atoms: C11_14  and  N3_15 
REMARK    7  A    between atoms: N3_15  and  C12_16 
REMARK    8  A    between atoms: C13_17  and  O2_18 
ROOT
HETATM    1  C8  UNL     1      22.492   0.782  52.196  1.00  0.00     0.099 C 
HETATM    2  C9  UNL     1      23.102   0.143  53.165  1.00  0.00    -0.028 A 
HETATM    3  C10 UNL     1      24.585   0.115  53.243  1.00  0.00     0.119 A 
HETATM    4  C11 UNL     1      25.007  -0.685  54.447  1.00  0.00     0.107 A 
HETATM    5  N4  UNL     1      24.234  -1.260  55.286  1.00  0.00    -0.247 NA
HETATM    6  C15 UNL     1      22.803  -1.212  55.178  1.00  0.00     0.126 A 
HETATM    7  C16 UNL     1      22.264  -0.535  54.155  1.00  0.00    -0.036 A 
HETATM    8  C17 UNL     1      20.771  -0.484  54.037  1.00  0.00     0.050 C 
ENDROOT
BRANCH   1   9
HETATM    9  N2  UNL     1      23.134   1.495  51.150  1.00  0.00    -0.333 N 
HETATM   10  C7  UNL     1      22.539   2.144  50.059  1.00  0.00     0.244 C 
HETATM   11  O1  UNL     1      21.277   2.079  50.014  1.00  0.00    -0.268 OA
HETATM   12  H13 UNL     1      24.177   1.534  51.213  1.00  0.00     0.168 HD
BRANCH  10  13
HETATM   13  C6  UNL     1      23.342   2.836  49.061  1.00  0.00     0.072 C 
HETATM   14  C5  UNL     1      24.279   3.705  49.350  1.00  0.00    -0.002 C 
BRANCH  14  15
HETATM   15  C4  UNL     1      24.878   4.302  50.550  1.00  0.00     0.144 C 
BRANCH  15  16
HETATM   16  N1  UNL     1      24.019   5.249  51.171  1.00  0.00    -0.414 N 
HETATM   17  C3  UNL     1      24.311   6.623  50.993  1.00  0.00     0.143 C 
BRANCH  16  18
HETATM   18  C2  UNL     1      23.460   4.905  52.426  1.00  0.00     0.112 C 
HETATM   19  C1  UNL     1      21.942   4.774  52.313  1.00  0.00     0.026 C 
ENDBRANCH  16  18
ENDBRANCH  15  16
ENDBRANCH  14  15
ENDBRANCH  10  13
ENDBRANCH   1   9
BRANCH   4  20
HETATM   20  N3  UNL     1      26.403  -0.806  54.661  1.00  0.00    -0.352 N 
HETATM   21  H17 UNL     1      26.865  -1.697  54.913  1.00  0.00     0.166 HD
BRANCH  20  22
HETATM   22  C12 UNL     1      27.296   0.279  54.550  1.00  0.00     0.113 C 
HETATM   23  C13 UNL     1      28.562   0.411  54.916  1.00  0.00     0.151 C 
BRANCH  23  24
HETATM   24  O2  UNL     1      29.224   1.612  54.686  1.00  0.00    -0.366 OA
HETATM   25  C14 UNL     1      28.696   2.426  53.650  1.00  0.00     0.209 C 
ENDBRANCH  23  24
ENDBRANCH  20  22
ENDBRANCH   4  20
TORSDOF 8
ENDMDL
MODEL 3
REMARK VINA RESULT:      -6.9      1.617      2.531
REMARK  8 active torsions:
REMARK  status: ('A' for Active; 'I' for Inactive)
REMARK    1  A    between atoms: C2_2  and  N1_3 
REMARK    2  A    between atoms: N1_3  and  C4_5 
REMARK    3  A    between atoms: C4_5  and  C5_6 
REMARK    4  A    between atoms: C6_7  and  C7_8 
REMARK       I    between atoms: C7_8  and  N2_10 
REMARK    5  A    between atoms: N2_10  and  C8_11 
REMARK    6  A    between atoms: C11_14  and  N3_15 
REMARK    7  A    between atoms: N3_15  and  C12_16 
REMARK    8  A    between atoms: C13_17  and  O2_18 
ROOT
HETATM    1  C8  UNL     1      22.515   0.922  52.153  1.00  0.00     0.099 C 
HETATM    2  C9  UNL     1      23.027   0.239  53.149  1.00  0.00    -0.028 A 
HETATM    3  C10 UNL     1      24.495   0.197  53.367  1.00  0.00     0.119 A 
HETATM    4  C11 UNL     1      24.796  -0.655  54.573  1.00  0.00     0.107 A 
HETATM    5  N4  UNL     1      23.944  -1.258  55.309  1.00  0.00    -0.247 NA
HETATM    6  C15 UNL     1      22.530  -1.195  55.067  1.00  0.00     0.126 A 
HETATM    7  C16 UNL     1      22.095  -0.473  54.025  1.00  0.00    -0.036 A 
HETATM    8  C17 UNL     1      20.620  -0.405  53.766  1.00  0.00     0.050 C 
ENDROOT
BRANCH   1   9
HETATM    9  N2  UNL     1      23.258   1.671  51.203  1.00  0.00    -0.333 N 
HETATM   10  C7  UNL     1      23.626   3.022  51.272  1.00  0.00     0.244 C 
HETATM   11  O1  UNL     1      23.243   3.635  52.310  1.00  0.00    -0.268 OA
HETATM   12  H13 UNL     1      23.562   1.140  50.356  1.00  0.00     0.168 HD
BRANCH  10  13
HETATM   13  C6  UNL     1      24.394   3.652  50.207  1.00  0.00     0.072 C 
HETATM   14  C5  UNL     1      23.870   4.099  49.093  1.00  0.00    -0.002 C 
BRANCH  14  15
HETATM   15  C4  UNL     1      22.543   4.183  48.470  1.00  0.00     0.144 C 
BRANCH  15  16
HETATM   16  N1  UNL     1      22.377   3.243  47.418  1.00  0.00    -0.414 N 
HETATM   17  C3  UNL     1      21.645   3.650  46.277  1.00  0.00     0.143 C 
BRANCH  16  18
HETATM   18  C2  UNL     1      22.240   1.879  47.771  1.00  0.00     0.112 C 
HETATM   19  C1  UNL     1      20.956   1.664  48.572  1.00  0.00     0.026 C 
ENDBRANCH  16  18
ENDBRANCH  15  16
ENDBRANCH  14  15
ENDBRANCH  10  13
ENDBRANCH   1   9
BRANCH   4  20
HETATM   20  N3  UNL     1      26.165  -0.796  54.914  1.00  0.00    -0.352 N 
HETATM   21  H17 UNL     1      26.595  -1.698  55.182  1.00  0.00     0.166 HD
BRANCH  20  22
HETATM   22  C12 UNL     1      27.071   0.284  54.923  1.00  0.00     0.113 C 
HETATM   23  C13 UNL     1      28.384   0.325  54.757  1.00  0.00     0.151 C 
BRANCH  23  24
HETATM   24  O2  UNL     1      29.048   1.545  54.813  1.00  0.00    -0.366 OA
HETATM   25  C14 UNL     1      28.824   2.427  53.723  1.00  0.00     0.209 C 
ENDBRANCH  23  24
ENDBRANCH  20  22
ENDBRANCH   4  20
TORSDOF 8
ENDMDL
MODEL 4
REMARK VINA RESULT:      -6.8      2.715      5.840
REMARK  8 active torsions:
REMARK  status: ('A' for Active; 'I' for Inactive)
REMARK    1  A    between atoms: C2_2  and  N1_3 
REMARK    2  A    between atoms: N1_3  and  C4_5 
REMARK    3  A    between atoms: C4_5  and  C5_6 
REMARK    4  A    between atoms: C6_7  and  C7_8 
REMARK       I    between atoms: C7_8  and  N2_10 
REMARK    5  A    between atoms: N2_10  and  C8_11 
REMARK    6  A    between atoms: C11_14  and  N3_15 
REMARK    7  A    between atoms: N3_15  and  C12_16 
REMARK    8  A    between atoms: C13_17  and  O2_18 
ROOT
HETATM    1  C8  UNL     1      24.900  -0.184  53.930  1.00  0.00     0.099 C 
HETATM    2  C9  UNL     1      25.588   0.657  53.195  1.00  0.00    -0.028 A 
HETATM    3  C10 UNL     1      24.971   1.317  52.017  1.00  0.00     0.119 A 
HETATM    4  C11 UNL     1      25.984   2.223  51.366  1.00  0.00     0.107 A 
HETATM    5  N4  UNL     1      27.188   2.413  51.746  1.00  0.00    -0.247 NA
HETATM    6  C15 UNL     1      27.751   1.755  52.891  1.00  0.00     0.126 A 
HETATM    7  C16 UNL     1      26.975   0.911  53.584  1.00  0.00    -0.036 A 
HETATM    8  C17 UNL     1      27.559   0.220  54.780  1.00  0.00     0.050 C 
ENDROOT
BRANCH   1   9
HETATM    9  N2  UNL     1      23.547  -0.553  53.708  1.00  0.00    -0.333 N 
HETATM   10  C7  UNL     1      22.667  -1.175  54.604  1.00  0.00     0.244 C 
HETATM   11  O1  UNL     1      23.150  -1.433  55.745  1.00  0.00    -0.268 OA
HETATM   12  H13 UNL     1      23.174  -0.328  52.758  1.00  0.00     0.168 HD
BRANCH  10  13
HETATM   13  C6  UNL     1      21.299  -1.493  54.223  1.00  0.00     0.072 C 
HETATM   14  C5  UNL     1      20.424  -0.603  53.825  1.00  0.00    -0.002 C 
BRANCH  14  15
HETATM   15  C4  UNL     1      20.371   0.849  53.605  1.00  0.00     0.144 C 
BRANCH  15  16
HETATM   16  N1  UNL     1      20.098   1.182  52.251  1.00  0.00    -0.414 N 
HETATM   17  C3  UNL     1      19.131   0.411  51.562  1.00  0.00     0.143 C 
BRANCH  16  18
HETATM   18  C2  UNL     1      21.175   1.652  51.460  1.00  0.00     0.112 C 
HETATM   19  C1  UNL     1      21.539   0.620  50.392  1.00  0.00     0.026 C 
ENDBRANCH  16  18
ENDBRANCH  15  16
ENDBRANCH  14  15
ENDBRANCH  10  13
ENDBRANCH   1   9
BRANCH   4  20
HETATM   20  N3  UNL     1      25.545   2.931  50.218  1.00  0.00    -0.352 N 
HETATM   21  H17 UNL     1      24.616   2.788  49.783  1.00  0.00     0.166 HD
BRANCH  20  22
HETATM   22  C12 UNL     1      26.333   3.896  49.559  1.00  0.00     0.113 C 
HETATM   23  C13 UNL     1      26.119   5.178  49.311  1.00  0.00     0.151 C 
BRANCH  23  24
HETATM   24  O2  UNL     1      27.079   5.918  48.628  1.00  0.00    -0.366 OA
HETATM   25  C14 UNL     1      28.321   5.268  48.402  1.00  0.00     0.209 C 
ENDBRANCH  23  24
ENDBRANCH  20  22
ENDBRANCH   4  20
TORSDOF 8
ENDMDL
MODEL 5
REMARK VINA RESULT:      -6.7      1.693      2.227
REMARK  8 active torsions:
REMARK  status: ('A' for Active; 'I' for Inactive)
REMARK    1  A    between atoms: C2_2  and  N1_3 
REMARK    2  A    between atoms: N1_3  and  C4_5 
REMARK    3  A    between atoms: C4_5  and  C5_6 
REMARK    4  A    between atoms: C6_7  and  C7_8 
REMARK       I    between atoms: C7_8  and  N2_10 
REMARK    5  A    between atoms: N2_10  and  C8_11 
REMARK    6  A    between atoms: C11_14  and  N3_15 
REMARK    7  A    between atoms: N3_15  and  C12_16 
REMARK    8  A    between atoms: C13_17  and  O2_18 
ROOT
HETATM    1  C8  UNL     1      22.555   0.819  52.031  1.00  0.00     0.099 C 
HETATM    2  C9  UNL     1      23.068   0.187  53.060  1.00  0.00    -0.028 A 
HETATM    3  C10 UNL     1      24.537   0.139  53.269  1.00  0.00     0.119 A 
HETATM    4  C11 UNL     1      24.838  -0.647  54.519  1.00  0.00     0.107 A 
HETATM    5  N4  UNL     1      23.985  -1.197  55.294  1.00  0.00    -0.247 NA
HETATM    6  C15 UNL     1      22.570  -1.130  55.060  1.00  0.00     0.126 A 
HETATM    7  C16 UNL     1      22.135  -0.463  53.982  1.00  0.00    -0.036 A 
HETATM    8  C17 UNL     1      20.659  -0.391  53.732  1.00  0.00     0.050 C 
ENDROOT
BRANCH   1   9
HETATM    9  N2  UNL     1      23.299   1.505  51.035  1.00  0.00    -0.333 N 
HETATM   10  C7  UNL     1      23.756   2.830  51.063  1.00  0.00     0.244 C 
HETATM   11  O1  UNL     1      23.464   3.481  52.108  1.00  0.00    -0.268 OA
HETATM   12  H13 UNL     1      23.527   0.943  50.184  1.00  0.00     0.168 HD
BRANCH  10  13
HETATM   13  C6  UNL     1      24.511   3.392  49.953  1.00  0.00     0.072 C 
HETATM   14  C5  UNL     1      24.028   4.270  49.109  1.00  0.00    -0.002 C 
BRANCH  14  15
HETATM   15  C4  UNL     1      22.764   4.984  48.885  1.00  0.00     0.144 C 
BRANCH  15  16
HETATM   16  N1  UNL     1      22.832   6.345  49.289  1.00  0.00    -0.414 N 
HETATM   17  C3  UNL     1      23.383   7.278  48.378  1.00  0.00     0.143 C 
BRANCH  16  18
HETATM   18  C2  UNL     1      23.081   6.613  50.656  1.00  0.00     0.112 C 
HETATM   19  C1  UNL     1      23.915   7.886  50.805  1.00  0.00     0.026 C 
ENDBRANCH  16  18
ENDBRANCH  15  16
ENDBRANCH  14  15
ENDBRANCH  10  13
ENDBRANCH   1   9
BRANCH   4  20
HETATM   20  N3  UNL     1      26.208  -0.785  54.856  1.00  0.00    -0.352 N 
HETATM   21  H17 UNL     1      26.632  -1.678  55.163  1.00  0.00     0.166 HD
BRANCH  20  22
HETATM   22  C12 UNL     1      27.125   0.285  54.807  1.00  0.00     0.113 C 
HETATM   23  C13 UNL     1      28.448   0.302  54.762  1.00  0.00     0.151 C 
BRANCH  23  24
HETATM   24  O2  UNL     1      29.121   1.518  54.718  1.00  0.00    -0.366 OA
HETATM   25  C14 UNL     1      28.711   2.420  53.702  1.00  0.00     0.209 C 
ENDBRANCH  23  24
ENDBRANCH  20  22
ENDBRANCH   4  20
TORSDOF 8
ENDMDL
MODEL 6
REMARK VINA RESULT:      -6.6      2.441      5.893
REMARK  8 active torsions:
REMARK  status: ('A' for Active; 'I' for Inactive)
REMARK    1  A    between atoms: C2_2  and  N1_3 
REMARK    2  A    between atoms: N1_3  and  C4_5 
REMARK    3  A    between atoms: C4_5  and  C5_6 
REMARK    4  A    between atoms: C6_7  and  C7_8 
REMARK       I    between atoms: C7_8  and  N2_10 
REMARK    5  A    between atoms: N2_10  and  C8_11 
REMARK    6  A    between atoms: C11_14  and  N3_15 
REMARK    7  A    between atoms: N3_15  and  C12_16 
REMARK    8  A    between atoms: C13_17  and  O2_18 
ROOT
HETATM    1  C8  UNL     1      25.010  -0.286  53.939  1.00  0.00     0.099 C 
HETATM    2  C9  UNL     1      25.687   0.593  53.240  1.00  0.00    -0.028 A 
HETATM    3  C10 UNL     1      25.067   1.283  52.079  1.00  0.00     0.119 A 
HETATM    4  C11 UNL     1      26.068   2.230  51.470  1.00  0.00     0.107 A 
HETATM    5  N4  UNL     1      27.265   2.429  51.866  1.00  0.00    -0.247 NA
HETATM    6  C15 UNL     1      27.831   1.742  52.993  1.00  0.00     0.126 A 
HETATM    7  C16 UNL     1      27.066   0.860  53.650  1.00  0.00    -0.036 A 
HETATM    8  C17 UNL     1      27.653   0.139  54.826  1.00  0.00     0.050 C 
ENDROOT
BRANCH   1   9
HETATM    9  N2  UNL     1      23.666  -0.673  53.692  1.00  0.00    -0.333 N 
HETATM   10  C7  UNL     1      22.759  -1.252  54.591  1.00  0.00     0.244 C 
HETATM   11  O1  UNL     1      23.205  -1.448  55.758  1.00  0.00    -0.268 OA
HETATM   12  H13 UNL     1      23.324  -0.499  52.720  1.00  0.00     0.168 HD
BRANCH  10  13
HETATM   13  C6  UNL     1      21.405  -1.596  54.181  1.00  0.00     0.072 C 
HETATM   14  C5  UNL     1      20.474  -0.713  53.916  1.00  0.00    -0.002 C 
BRANCH  14  15
HETATM   15  C4  UNL     1      20.333   0.749  53.896  1.00  0.00     0.144 C 
BRANCH  15  16
HETATM   16  N1  UNL     1      20.603   1.302  52.615  1.00  0.00    -0.414 N 
HETATM   17  C3  UNL     1      20.421   2.696  52.445  1.00  0.00     0.143 C 
BRANCH  16  18
HETATM   18  C2  UNL     1      20.304   0.509  51.480  1.00  0.00     0.112 C 
HETATM   19  C1  UNL     1      21.446   0.580  50.467  1.00  0.00     0.026 C 
ENDBRANCH  16  18
ENDBRANCH  15  16
ENDBRANCH  14  15
ENDBRANCH  10  13
ENDBRANCH   1   9
BRANCH   4  20
HETATM   20  N3  UNL     1      25.624   2.968  50.343  1.00  0.00    -0.352 N 
HETATM   21  H17 UNL     1      25.781   2.665  49.366  1.00  0.00     0.166 HD
BRANCH  20  22
HETATM   22  C12 UNL     1      24.927   4.189  50.448  1.00  0.00     0.113 C 
HETATM   23  C13 UNL     1      23.980   4.587  51.282  1.00  0.00     0.151 C 
BRANCH  23  24
HETATM   24  O2  UNL     1      23.451   5.867  51.166  1.00  0.00    -0.366 OA
HETATM   25  C14 UNL     1      22.035   5.963  51.208  1.00  0.00     0.209 C 
ENDBRANCH  23  24
ENDBRANCH  20  22
ENDBRANCH   4  20
TORSDOF 8
ENDMDL
MODEL 7
REMARK VINA RESULT:      -6.5      2.544      6.354
REMARK  8 active torsions:
REMARK  status: ('A' for Active; 'I' for Inactive)
REMARK    1  A    between atoms: C2_2  and  N1_3 
REMARK    2  A    between atoms: N1_3  and  C4_5 
REMARK    3  A    between atoms: C4_5  and  C5_6 
REMARK    4  A    between atoms: C6_7  and  C7_8 
REMARK       I    between atoms: C7_8  and  N2_10 
REMARK    5  A    between atoms: N2_10  and  C8_11 
REMARK    6  A    between atoms: C11_14  and  N3_15 
REMARK    7  A    between atoms: N3_15  and  C12_16 
REMARK    8  A    between atoms: C13_17  and  O2_18 
ROOT
HETATM    1  C8  UNL     1      23.240   0.332  52.912  1.00  0.00     0.099 C 
HETATM    2  C9  UNL     1      22.055   0.361  52.351  1.00  0.00    -0.028 A 
HETATM    3  C10 UNL     1      21.881   0.871  50.967  1.00  0.00     0.119 A 
HETATM    4  C11 UNL     1      20.426   0.788  50.584  1.00  0.00     0.107 A 
HETATM    5  N4  UNL     1      19.473   0.353  51.313  1.00  0.00    -0.247 NA
HETATM    6  C15 UNL     1      19.679  -0.132  52.649  1.00  0.00     0.126 A 
HETATM    7  C16 UNL     1      20.924  -0.125  53.142  1.00  0.00    -0.036 A 
HETATM    8  C17 UNL     1      21.145  -0.629  54.537  1.00  0.00     0.050 C 
ENDROOT
BRANCH   1   9
HETATM    9  N2  UNL     1      24.449   0.760  52.302  1.00  0.00    -0.333 N 
HETATM   10  C7  UNL     1      25.087   2.001  52.435  1.00  0.00     0.244 C 
HETATM   11  O1  UNL     1      24.505   2.830  53.193  1.00  0.00    -0.268 OA
HETATM   12  H13 UNL     1      24.909   0.056  51.682  1.00  0.00     0.168 HD
BRANCH  10  13
HETATM   13  C6  UNL     1      26.331   2.290  51.737  1.00  0.00     0.072 C 
HETATM   14  C5  UNL     1      27.510   2.283  52.308  1.00  0.00    -0.002 C 
BRANCH  14  15
HETATM   15  C4  UNL     1      28.072   2.038  53.643  1.00  0.00     0.144 C 
BRANCH  15  16
HETATM   16  N1  UNL     1      28.091   0.658  53.978  1.00  0.00    -0.414 N 
HETATM   17  C3  UNL     1      27.086   0.175  54.851  1.00  0.00     0.143 C 
BRANCH  16  18
HETATM   18  C2  UNL     1      29.354   0.029  54.101  1.00  0.00     0.112 C 
HETATM   19  C1  UNL     1      29.359  -1.304  53.354  1.00  0.00     0.026 C 
ENDBRANCH  16  18
ENDBRANCH  15  16
ENDBRANCH  14  15
ENDBRANCH  10  13
ENDBRANCH   1   9
BRANCH   4  20
HETATM   20  N3  UNL     1      20.095   1.242  49.282  1.00  0.00    -0.352 N 
HETATM   21  H17 UNL     1      19.140   1.190  48.887  1.00  0.00     0.166 HD
BRANCH  20  22
HETATM   22  C12 UNL     1      21.039   1.808  48.400  1.00  0.00     0.113 C 
HETATM   23  C13 UNL     1      20.932   2.788  47.517  1.00  0.00     0.151 C 
BRANCH  23  24
HETATM   24  O2  UNL     1      22.039   3.157  46.760  1.00  0.00    -0.366 OA
HETATM   25  C14 UNL     1      21.761   3.777  45.513  1.00  0.00     0.209 C 
ENDBRANCH  23  24
ENDBRANCH  20  22
ENDBRANCH   4  20
TORSDOF 8
ENDMDL
MODEL 8
REMARK VINA RESULT:      -6.4      3.006      4.732
REMARK  8 active torsions:
REMARK  status: ('A' for Active; 'I' for Inactive)
REMARK    1  A    between atoms: C2_2  and  N1_3 
REMARK    2  A    between atoms: N1_3  and  C4_5 
REMARK    3  A    between atoms: C4_5  and  C5_6 
REMARK    4  A    between atoms: C6_7  and  C7_8 
REMARK       I    between atoms: C7_8  and  N2_10 
REMARK    5  A    between atoms: N2_10  and  C8_11 
REMARK    6  A    between atoms: C11_14  and  N3_15 
REMARK    7  A    between atoms: N3_15  and  C12_16 
REMARK    8  A    between atoms: C13_17  and  O2_18 
ROOT
HETATM    1  C8  UNL     1      25.668   3.287  50.194  1.00  0.00     0.099 C 
HETATM    2  C9  UNL     1      25.591   2.603  51.311  1.00  0.00    -0.028 A 
HETATM    3  C10 UNL     1      26.788   2.408  52.168  1.00  0.00     0.119 A 
HETATM    4  C11 UNL     1      26.409   1.591  53.376  1.00  0.00     0.107 A 
HETATM    5  N4  UNL     1      25.251   1.126  53.646  1.00  0.00    -0.247 NA
HETATM    6  C15 UNL     1      24.115   1.334  52.792  1.00  0.00     0.126 A 
HETATM    7  C16 UNL     1      24.286   2.046  51.670  1.00  0.00    -0.036 A 
HETATM    8  C17 UNL     1      23.104   2.265  50.774  1.00  0.00     0.050 C 
ENDROOT
BRANCH   1   9
HETATM    9  N2  UNL     1      26.843   3.899  49.685  1.00  0.00    -0.333 N 
HETATM   10  C7  UNL     1      26.938   5.042  48.880  1.00  0.00     0.244 C 
HETATM   11  O1  UNL     1      25.835   5.584  48.578  1.00  0.00    -0.268 OA
HETATM   12  H13 UNL     1      27.739   3.432  49.951  1.00  0.00     0.168 HD
BRANCH  10  13
HETATM   13  C6  UNL     1      28.228   5.549  48.435  1.00  0.00     0.072 C 
HETATM   14  C5  UNL     1      28.447   6.794  48.093  1.00  0.00    -0.002 C 
BRANCH  14  15
HETATM   15  C4  UNL     1      27.687   8.047  47.998  1.00  0.00     0.144 C 
BRANCH  15  16
HETATM   16  N1  UNL     1      28.003   8.954  49.045  1.00  0.00    -0.414 N 
HETATM   17  C3  UNL     1      29.371   9.205  49.311  1.00  0.00     0.143 C 
BRANCH  16  18
HETATM   18  C2  UNL     1      27.152   8.975  50.176  1.00  0.00     0.112 C 
HETATM   19  C1  UNL     1      25.687   8.970  49.738  1.00  0.00     0.026 C 
ENDBRANCH  16  18
ENDBRANCH  15  16
ENDBRANCH  14  15
ENDBRANCH  10  13
ENDBRANCH   1   9
BRANCH   4  20
HETATM   20  N3  UNL     1      27.452   1.316  54.297  1.00  0.00    -0.352 N 
HETATM   21  H17 UNL     1      27.661   1.916  55.115  1.00  0.00     0.166 HD
BRANCH  20  22
HETATM   22  C12 UNL     1      28.305   0.200  54.185  1.00  0.00     0.113 C 
HETATM   23  C13 UNL     1      29.543   0.086  53.732  1.00  0.00     0.151 C 
BRANCH  23  24
HETATM   24  O2  UNL     1      30.167  -1.156  53.733  1.00  0.00    -0.366 OA
HETATM   25  C14 UNL     1      29.365  -2.256  53.328  1.00  0.00     0.209 C 
ENDBRANCH  23  24
ENDBRANCH  20  22
ENDBRANCH   4  20
TORSDOF 8
ENDMDL
MODEL 9
REMARK VINA RESULT:      -6.3      1.998      5.216
REMARK  8 active torsions:
REMARK  status: ('A' for Active; 'I' for Inactive)
REMARK    1  A    between atoms: C2_2  and  N1_3 
REMARK    2  A    between atoms: N1_3  and  C4_5 
REMARK    3  A    between atoms: C4_5  and  C5_6 
REMARK    4  A    between atoms: C6_7  and  C7_8 
REMARK       I    between atoms: C7_8  and  N2_10 
REMARK    5  A    between atoms: N2_10  and  C8_11 
REMARK    6  A    between atoms: C11_14  and  N3_15 
REMARK    7  A    between atoms: N3_15  and  C12_16 
REMARK    8  A    between atoms: C13_17  and  O2_18 
ROOT
HETATM    1  C8  UNL     1      26.911   2.470  52.096  1.00  0.00     0.099 C 
HETATM    2  C9  UNL     1      26.518   1.405  52.753  1.00  0.00    -0.028 A 
HETATM    3  C10 UNL     1      25.085   1.014  52.781  1.00  0.00     0.119 A 
HETATM    4  C11 UNL     1      24.926  -0.238  53.605  1.00  0.00     0.107 A 
HETATM    5  N4  UNL     1      25.857  -0.882  54.196  1.00  0.00    -0.247 NA
HETATM    6  C15 UNL     1      27.233  -0.473  54.147  1.00  0.00     0.126 A 
HETATM    7  C16 UNL     1      27.544   0.629  53.451  1.00  0.00    -0.036 A 
HETATM    8  C17 UNL     1      28.979   1.061  53.398  1.00  0.00     0.050 C 
ENDROOT
BRANCH   1   9
HETATM    9  N2  UNL     1      26.063   3.342  51.363  1.00  0.00    -0.333 N 
HETATM   10  C7  UNL     1      26.135   3.667  50.001  1.00  0.00     0.244 C 
HETATM   11  O1  UNL     1      27.072   3.108  49.360  1.00  0.00    -0.268 OA
HETATM   12  H13 UNL     1      25.298   3.788  51.916  1.00  0.00     0.168 HD
BRANCH  10  13
HETATM   13  C6  UNL     1      25.185   4.587  49.393  1.00  0.00     0.072 C 
HETATM   14  C5  UNL     1      23.966   4.257  49.045  1.00  0.00    -0.002 C 
BRANCH  14  15
HETATM   15  C4  UNL     1      23.110   3.064  49.075  1.00  0.00     0.144 C 
BRANCH  15  16
HETATM   16  N1  UNL     1      22.049   3.181  50.012  1.00  0.00    -0.414 N 
HETATM   17  C3  UNL     1      22.386   3.281  51.384  1.00  0.00     0.143 C 
BRANCH  16  18
HETATM   18  C2  UNL     1      20.845   2.490  49.733  1.00  0.00     0.112 C 
HETATM   19  C1  UNL     1      21.146   1.152  49.058  1.00  0.00     0.026 C 
ENDBRANCH  16  18
ENDBRANCH  15  16
ENDBRANCH  14  15
ENDBRANCH  10  13
ENDBRANCH   1   9
BRANCH   4  20
HETATM   20  N3  UNL     1      23.606  -0.741  53.729  1.00  0.00    -0.352 N 
HETATM   21  H17 UNL     1      23.372  -1.598  54.260  1.00  0.00     0.166 HD
BRANCH  20  22
HETATM   22  C12 UNL     1      22.486  -0.122  53.138  1.00  0.00     0.113 C 
HETATM   23  C13 UNL     1      21.254   0.066  53.583  1.00  0.00     0.151 C 
BRANCH  23  24
HETATM   24  O2  UNL     1      20.324   0.720  52.783  1.00  0.00    -0.366 OA
HETATM   25  C14 UNL     1      19.200  -0.048  52.380  1.00  0.00     0.209 C 
ENDBRANCH  23  24
ENDBRANCH  20  22
ENDBRANCH   4  20
TORSDOF 8
ENDMDL
