MODEL 1
REMARK VINA RESULT:      -8.5      0.000      0.000
REMARK  6 active torsions:
REMARK  status: ('A' for Active; 'I' for Inactive)
REMARK       I    between atoms: C1_2  and  N1_3 
REMARK       I    between atoms: C1_2  and  N2_10 
REMARK    1  A    between atoms: N1_3  and  C2_4 
REMARK    2  A    between atoms: N2_10  and  C8_11 
REMARK    3  A    between atoms: N2_10  and  C15_18 
REMARK    4  A    between atoms: C8_11  and  C9_12 
REMARK    5  A    between atoms: C18_22  and  O2_23 
REMARK    6  A    between atoms: C19_24  and  O3_25 
ROOT
HETATM    1  O1  UNL     1      25.763   2.291  53.352  1.00  0.00    -0.246 OA
HETATM    2  C1  UNL     1      25.369   2.619  52.178  1.00  0.00     0.327 C 
HETATM    3  N1  UNL     1      26.568   1.967  51.694  1.00  0.00    -0.309 N 
HETATM    4  N2  UNL     1      24.558   3.173  51.151  1.00  0.00    -0.297 N 
HETATM    5  H1  UNL     1      26.981   1.790  50.731  1.00  0.00     0.170 HD
ENDROOT
BRANCH   4   6
HETATM    6  C8  UNL     1      24.920   3.167  49.762  1.00  0.00     0.172 C 
BRANCH   6   7
HETATM    7  C9  UNL     1      25.731   4.308  49.307  1.00  0.00    -0.040 A 
HETATM    8  C10 UNL     1      25.274   5.598  49.096  1.00  0.00     0.009 A 
HETATM    9  C11 UNL     1      26.007   6.673  48.682  1.00  0.00     0.001 A 
HETATM   10  C12 UNL     1      27.341   6.524  48.433  1.00  0.00     0.000 A 
HETATM   11  C13 UNL     1      27.892   5.270  48.614  1.00  0.00     0.001 A 
HETATM   12  C14 UNL     1      27.094   4.227  49.034  1.00  0.00     0.009 A 
ENDBRANCH   6   7
ENDBRANCH   4   6
BRANCH   4  13
HETATM   13  C15 UNL     1      23.279   3.791  51.402  1.00  0.00     0.041 C 
HETATM   14  C16 UNL     1      22.110   3.300  50.946  1.00  0.00     0.041 C 
HETATM   15 CL1  UNL     1      21.944   1.854  49.985  1.00  0.00    -0.086 Cl
HETATM   16  C17 UNL     1      20.793   3.933  51.207  1.00  0.00     0.120 C 
HETATM   17  C18 UNL     1      20.924   5.371  50.795  1.00  0.00     0.077 C 
HETATM   18  C19 UNL     1      22.047   5.853  51.295  1.00  0.00     0.078 C 
HETATM   19  C20 UNL     1      22.994   5.022  52.136  1.00  0.00     0.125 C 
BRANCH  17  20
HETATM   20  O2  UNL     1      20.052   6.106  50.032  1.00  0.00    -0.362 OA
HETATM   21  H16 UNL     1      19.358   5.651  49.468  1.00  0.00     0.217 HD
ENDBRANCH  17  20
BRANCH  18  22
HETATM   22  O3  UNL     1      22.279   7.190  50.977  1.00  0.00    -0.362 OA
HETATM   23  H17 UNL     1      22.845   7.360  50.161  1.00  0.00     0.217 HD
ENDBRANCH  18  22
ENDBRANCH   4  13
BRANCH   3  24
HETATM   24  C2  UNL     1      27.479   1.369  52.608  1.00  0.00     0.036 A 
HETATM   25  C3  UNL     1      28.414   2.030  53.401  1.00  0.00     0.029 A 
HETATM   26  C4  UNL     1      29.214   1.259  54.231  1.00  0.00     0.002 A 
HETATM   27  C5  UNL     1      29.133  -0.107  54.311  1.00  0.00     0.000 A 
HETATM   28  C6  UNL     1      28.196  -0.780  53.519  1.00  0.00     0.002 A 
HETATM   29  C7  UNL     1      27.400   0.003  52.690  1.00  0.00     0.029 A 
ENDBRANCH   3  24
TORSDOF 6
ENDMDL
MODEL 2
REMARK VINA RESULT:      -8.5      2.895      5.229
REMARK  6 active torsions:
REMARK  status: ('A' for Active; 'I' for Inactive)
REMARK       I    between atoms: C1_2  and  N1_3 
REMARK       I    between atoms: C1_2  and  N2_10 
REMARK    1  A    between atoms: N1_3  and  C2_4 
REMARK    2  A    between atoms: N2_10  and  C8_11 
REMARK    3  A    between atoms: N2_10  and  C15_18 
REMARK    4  A    between atoms: C8_11  and  C9_12 
REMARK    5  A    between atoms: C18_22  and  O2_23 
REMARK    6  A    between atoms: C19_24  and  O3_25 
ROOT
HETATM    1  O1  UNL     1      26.545   0.530  51.359  1.00  0.00    -0.246 OA
HETATM    2  C1  UNL     1      25.453   0.997  51.837  1.00  0.00     0.327 C 
HETATM    3  N1  UNL     1      25.992   0.671  53.141  1.00  0.00    -0.309 N 
HETATM    4  N2  UNL     1      24.159   1.585  51.877  1.00  0.00    -0.297 N 
HETATM    5  H1  UNL     1      25.644   0.787  54.139  1.00  0.00     0.170 HD
ENDROOT
BRANCH   4   6
HETATM    6  C8  UNL     1      23.408   1.772  53.085  1.00  0.00     0.172 C 
BRANCH   6   7
HETATM    7  C9  UNL     1      22.478   0.685  53.435  1.00  0.00    -0.040 A 
HETATM    8  C10 UNL     1      22.828  -0.547  53.962  1.00  0.00     0.009 A 
HETATM    9  C11 UNL     1      21.986  -1.566  54.301  1.00  0.00     0.001 A 
HETATM   10  C12 UNL     1      20.640  -1.415  54.127  1.00  0.00     0.000 A 
HETATM   11  C13 UNL     1      20.190  -0.216  53.606  1.00  0.00     0.001 A 
HETATM   12  C14 UNL     1      21.097   0.771  53.284  1.00  0.00     0.009 A 
ENDBRANCH   6   7
ENDBRANCH   4   6
BRANCH   4  13
HETATM   13  C15 UNL     1      23.473   2.065  50.702  1.00  0.00     0.041 C 
HETATM   14  C16 UNL     1      23.819   3.187  50.041  1.00  0.00     0.041 C 
HETATM   15 CL1  UNL     1      25.137   4.239  50.486  1.00  0.00    -0.086 Cl
HETATM   16  C17 UNL     1      23.117   3.679  48.829  1.00  0.00     0.120 C 
HETATM   17  C18 UNL     1      21.658   3.738  49.179  1.00  0.00     0.077 C 
HETATM   18  C19 UNL     1      21.322   2.609  49.777  1.00  0.00     0.078 C 
HETATM   19  C20 UNL     1      22.309   1.489  50.032  1.00  0.00     0.125 C 
BRANCH  17  20
HETATM   20  O2  UNL     1      20.780   4.764  48.938  1.00  0.00    -0.362 OA
HETATM   21  H16 UNL     1      20.979   5.453  48.237  1.00  0.00     0.217 HD
ENDBRANCH  17  20
BRANCH  18  22
HETATM   22  O3  UNL     1      19.981   2.546  50.152  1.00  0.00    -0.362 OA
HETATM   23  H17 UNL     1      19.398   3.308  49.844  1.00  0.00     0.217 HD
ENDBRANCH  18  22
ENDBRANCH   4  13
BRANCH   3  24
HETATM   24  C2  UNL     1      27.276   0.073  53.257  1.00  0.00     0.036 A 
HETATM   25  C3  UNL     1      27.592  -1.265  53.042  1.00  0.00     0.029 A 
HETATM   26  C4  UNL     1      28.914  -1.651  53.210  1.00  0.00     0.002 A 
HETATM   27  C5  UNL     1      29.916  -0.789  53.573  1.00  0.00     0.000 A 
HETATM   28  C6  UNL     1      29.609   0.558  53.792  1.00  0.00     0.002 A 
HETATM   29  C7  UNL     1      28.281   0.932  53.621  1.00  0.00     0.029 A 
ENDBRANCH   3  24
TORSDOF 6
ENDMDL
MODEL 3
REMARK VINA RESULT:      -8.3      3.297      6.774
REMARK  6 active torsions:
REMARK  status: ('A' for Active; 'I' for Inactive)
REMARK       I    between atoms: C1_2  and  N1_3 
REMARK       I    between atoms: C1_2  and  N2_10 
REMARK    1  A    between atoms: N1_3  and  C2_4 
REMARK    2  A    between atoms: N2_10  and  C8_11 
REMARK    3  A    between atoms: N2_10  and  C15_18 
REMARK    4  A    between atoms: C8_11  and  C9_12 
REMARK    5  A    between atoms: C18_22  and  O2_23 
REMARK    6  A    between atoms: C19_24  and  O3_25 
ROOT
HETATM    1  O1  UNL     1      22.129  -0.606  52.484  1.00  0.00    -0.246 OA
HETATM    2  C1  UNL     1      22.796   0.484  52.558  1.00  0.00     0.327 C 
HETATM    3  N1  UNL     1      21.515   1.154  52.648  1.00  0.00    -0.309 N 
HETATM    4  N2  UNL     1      23.912   1.364  52.605  1.00  0.00    -0.297 N 
HETATM    5  H1  UNL     1      21.212   2.166  52.758  1.00  0.00     0.170 HD
ENDROOT
BRANCH   4   6
HETATM    6  C8  UNL     1      23.796   2.793  52.655  1.00  0.00     0.172 C 
BRANCH   6   7
HETATM    7  C9  UNL     1      23.810   3.482  51.354  1.00  0.00    -0.040 A 
HETATM    8  C10 UNL     1      23.423   2.938  50.140  1.00  0.00     0.009 A 
HETATM    9  C11 UNL     1      23.419   3.558  48.925  1.00  0.00     0.001 A 
HETATM   10  C12 UNL     1      23.830   4.857  48.829  1.00  0.00     0.000 A 
HETATM   11  C13 UNL     1      24.237   5.490  49.988  1.00  0.00     0.001 A 
HETATM   12  C14 UNL     1      24.216   4.803  51.184  1.00  0.00     0.009 A 
ENDBRANCH   6   7
ENDBRANCH   4   6
BRANCH   4  13
HETATM   13  C15 UNL     1      25.280   0.904  52.618  1.00  0.00     0.041 C 
HETATM   14  C16 UNL     1      25.750  -0.018  53.481  1.00  0.00     0.041 C 
HETATM   15 CL1  UNL     1      24.800  -0.803  54.715  1.00  0.00    -0.086 Cl
HETATM   16  C17 UNL     1      27.155  -0.495  53.492  1.00  0.00     0.120 C 
HETATM   17  C18 UNL     1      28.019   0.732  53.555  1.00  0.00     0.077 C 
HETATM   18  C19 UNL     1      27.579   1.604  52.666  1.00  0.00     0.078 C 
HETATM   19  C20 UNL     1      26.389   1.333  51.769  1.00  0.00     0.125 C 
BRANCH  17  20
HETATM   20  O2  UNL     1      29.095   0.957  54.377  1.00  0.00    -0.362 OA
HETATM   21  H16 UNL     1      29.915   0.384  54.313  1.00  0.00     0.217 HD
ENDBRANCH  17  20
BRANCH  18  22
HETATM   22  O3  UNL     1      28.307   2.792  52.632  1.00  0.00    -0.362 OA
HETATM   23  H17 UNL     1      27.768   3.643  52.612  1.00  0.00     0.217 HD
ENDBRANCH  18  22
ENDBRANCH   4  13
BRANCH   3  24
HETATM   24  C2  UNL     1      20.309   0.402  52.610  1.00  0.00     0.036 A 
HETATM   25  C3  UNL     1      19.838  -0.463  53.593  1.00  0.00     0.029 A 
HETATM   26  C4  UNL     1      18.630  -1.105  53.362  1.00  0.00     0.002 A 
HETATM   27  C5  UNL     1      17.884  -0.933  52.225  1.00  0.00     0.000 A 
HETATM   28  C6  UNL     1      18.348  -0.066  51.231  1.00  0.00     0.002 A 
HETATM   29  C7  UNL     1      19.560   0.572  51.474  1.00  0.00     0.029 A 
ENDBRANCH   3  24
TORSDOF 6
ENDMDL
MODEL 4
REMARK VINA RESULT:      -8.1      2.191      4.446
REMARK  6 active torsions:
REMARK  status: ('A' for Active; 'I' for Inactive)
REMARK       I    between atoms: C1_2  and  N1_3 
REMARK       I    between atoms: C1_2  and  N2_10 
REMARK    1  A    between atoms: N1_3  and  C2_4 
REMARK    2  A    between atoms: N2_10  and  C8_11 
REMARK    3  A    between atoms: N2_10  and  C15_18 
REMARK    4  A    between atoms: C8_11  and  C9_12 
REMARK    5  A    between atoms: C18_22  and  O2_23 
REMARK    6  A    between atoms: C19_24  and  O3_25 
ROOT
HETATM    1  O1  UNL     1      26.840   2.149  51.711  1.00  0.00    -0.246 OA
HETATM    2  C1  UNL     1      25.657   2.531  52.014  1.00  0.00     0.327 C 
HETATM    3  N1  UNL     1      25.684   1.503  53.033  1.00  0.00    -0.309 N 
HETATM    4  N2  UNL     1      24.445   3.273  51.974  1.00  0.00    -0.297 N 
HETATM    5  H1  UNL     1      25.002   1.179  53.781  1.00  0.00     0.170 HD
ENDROOT
BRANCH   4   6
HETATM    6  C8  UNL     1      23.311   2.989  52.806  1.00  0.00     0.172 C 
BRANCH   6   7
HETATM    7  C9  UNL     1      22.208   2.260  52.158  1.00  0.00    -0.040 A 
HETATM    8  C10 UNL     1      22.287   0.999  51.592  1.00  0.00     0.009 A 
HETATM    9  C11 UNL     1      21.279   0.300  50.994  1.00  0.00     0.001 A 
HETATM   10  C12 UNL     1      20.032   0.851  50.914  1.00  0.00     0.000 A 
HETATM   11  C13 UNL     1      19.851   2.111  51.452  1.00  0.00     0.001 A 
HETATM   12  C14 UNL     1      20.914   2.762  52.042  1.00  0.00     0.009 A 
ENDBRANCH   6   7
ENDBRANCH   4   6
BRANCH   4  13
HETATM   13  C15 UNL     1      24.236   4.399  51.095  1.00  0.00     0.041 C 
HETATM   14  C16 UNL     1      23.978   4.281  49.778  1.00  0.00     0.041 C 
HETATM   15 CL1  UNL     1      23.854   2.768  48.919  1.00  0.00    -0.086 Cl
HETATM   16  C17 UNL     1      23.759   5.437  48.874  1.00  0.00     0.120 C 
HETATM   17  C18 UNL     1      24.929   6.357  49.071  1.00  0.00     0.077 C 
HETATM   18  C19 UNL     1      25.136   6.506  50.367  1.00  0.00     0.078 C 
HETATM   19  C20 UNL     1      24.285   5.823  51.418  1.00  0.00     0.125 C 
BRANCH  17  20
HETATM   20  O2  UNL     1      25.687   6.967  48.103  1.00  0.00    -0.362 OA
HETATM   21  H16 UNL     1      25.621   6.677  47.145  1.00  0.00     0.217 HD
ENDBRANCH  17  20
BRANCH  18  22
HETATM   22  O3  UNL     1      26.206   7.345  50.676  1.00  0.00    -0.362 OA
HETATM   23  H17 UNL     1      26.095   8.315  50.428  1.00  0.00     0.217 HD
ENDBRANCH  18  22
ENDBRANCH   4  13
BRANCH   3  24
HETATM   24  C2  UNL     1      26.831   0.677  53.188  1.00  0.00     0.036 A 
HETATM   25  C3  UNL     1      27.000  -0.612  52.691  1.00  0.00     0.029 A 
HETATM   26  C4  UNL     1      28.202  -1.252  52.955  1.00  0.00     0.002 A 
HETATM   27  C5  UNL     1      29.222  -0.686  53.675  1.00  0.00     0.000 A 
HETATM   28  C6  UNL     1      29.062   0.609  54.178  1.00  0.00     0.002 A 
HETATM   29  C7  UNL     1      27.853   1.241  53.907  1.00  0.00     0.029 A 
ENDBRANCH   3  24
TORSDOF 6
ENDMDL
MODEL 5
REMARK VINA RESULT:      -8.1      3.297      5.246
REMARK  6 active torsions:
REMARK  status: ('A' for Active; 'I' for Inactive)
REMARK       I    between atoms: C1_2  and  N1_3 
REMARK       I    between atoms: C1_2  and  N2_10 
REMARK    1  A    between atoms: N1_3  and  C2_4 
REMARK    2  A    between atoms: N2_10  and  C8_11 
REMARK    3  A    between atoms: N2_10  and  C15_18 
REMARK    4  A    between atoms: C8_11  and  C9_12 
REMARK    5  A    between atoms: C18_22  and  O2_23 
REMARK    6  A    between atoms: C19_24  and  O3_25 
ROOT
HETATM    1  O1  UNL     1      23.401   2.508  52.464  1.00  0.00    -0.246 OA
HETATM    2  C1  UNL     1      23.374   2.599  51.187  1.00  0.00     0.327 C 
HETATM    3  N1  UNL     1      22.724   1.305  51.200  1.00  0.00    -0.309 N 
HETATM    4  N2  UNL     1      23.567   3.135  49.885  1.00  0.00    -0.297 N 
HETATM    5  H1  UNL     1      22.337   0.660  50.450  1.00  0.00     0.170 HD
ENDROOT
BRANCH   4   6
HETATM    6  C8  UNL     1      23.228   2.436  48.679  1.00  0.00     0.172 C 
BRANCH   6   7
HETATM    7  C9  UNL     1      21.974   2.850  48.029  1.00  0.00    -0.040 A 
HETATM    8  C10 UNL     1      20.697   2.673  48.536  1.00  0.00     0.009 A 
HETATM    9  C11 UNL     1      19.522   3.054  47.957  1.00  0.00     0.001 A 
HETATM   10  C12 UNL     1      19.540   3.684  46.745  1.00  0.00     0.000 A 
HETATM   11  C13 UNL     1      20.770   3.907  46.155  1.00  0.00     0.001 A 
HETATM   12  C14 UNL     1      21.919   3.495  46.796  1.00  0.00     0.009 A 
ENDBRANCH   6   7
ENDBRANCH   4   6
BRANCH   4  13
HETATM   13  C15 UNL     1      24.116   4.448  49.645  1.00  0.00     0.041 C 
HETATM   14  C16 UNL     1      25.416   4.676  49.375  1.00  0.00     0.041 C 
HETATM   15 CL1  UNL     1      26.643   3.441  49.272  1.00  0.00    -0.086 Cl
HETATM   16  C17 UNL     1      25.981   6.026  49.123  1.00  0.00     0.120 C 
HETATM   17  C18 UNL     1      25.554   6.886  50.277  1.00  0.00     0.077 C 
HETATM   18  C19 UNL     1      24.266   6.693  50.495  1.00  0.00     0.078 C 
HETATM   19  C20 UNL     1      23.428   5.738  49.669  1.00  0.00     0.125 C 
BRANCH  17  20
HETATM   20  O2  UNL     1      26.330   7.746  51.013  1.00  0.00    -0.362 OA
HETATM   21  H16 UNL     1      26.689   8.588  50.602  1.00  0.00     0.217 HD
ENDBRANCH  17  20
BRANCH  18  22
HETATM   22  O3  UNL     1      23.751   7.443  51.551  1.00  0.00    -0.362 OA
HETATM   23  H17 UNL     1      22.762   7.629  51.522  1.00  0.00     0.217 HD
ENDBRANCH  18  22
ENDBRANCH   4  13
BRANCH   3  24
HETATM   24  C2  UNL     1      22.468   0.643  52.432  1.00  0.00     0.036 A 
HETATM   25  C3  UNL     1      23.334  -0.209  53.113  1.00  0.00     0.029 A 
HETATM   26  C4  UNL     1      22.891  -0.757  54.307  1.00  0.00     0.002 A 
HETATM   27  C5  UNL     1      21.657  -0.507  54.847  1.00  0.00     0.000 A 
HETATM   28  C6  UNL     1      20.780   0.348  54.171  1.00  0.00     0.002 A 
HETATM   29  C7  UNL     1      21.234   0.892  52.975  1.00  0.00     0.029 A 
ENDBRANCH   3  24
TORSDOF 6
ENDMDL
MODEL 6
REMARK VINA RESULT:      -8.1      2.506      4.607
REMARK  6 active torsions:
REMARK  status: ('A' for Active; 'I' for Inactive)
REMARK       I    between atoms: C1_2  and  N1_3 
REMARK       I    between atoms: C1_2  and  N2_10 
REMARK    1  A    between atoms: N1_3  and  C2_4 
REMARK    2  A    between atoms: N2_10  and  C8_11 
REMARK    3  A    between atoms: N2_10  and  C15_18 
REMARK    4  A    between atoms: C8_11  and  C9_12 
REMARK    5  A    between atoms: C18_22  and  O2_23 
REMARK    6  A    between atoms: C19_24  and  O3_25 
ROOT
HETATM    1  O1  UNL     1      26.554   2.325  52.610  1.00  0.00    -0.246 OA
HETATM    2  C1  UNL     1      25.387   1.997  52.199  1.00  0.00     0.327 C 
HETATM    3  N1  UNL     1      25.754   0.635  52.527  1.00  0.00    -0.309 N 
HETATM    4  N2  UNL     1      24.074   2.130  51.670  1.00  0.00    -0.297 N 
HETATM    5  H1  UNL     1      25.255  -0.302  52.478  1.00  0.00     0.170 HD
ENDROOT
BRANCH   4   6
HETATM    6  C8  UNL     1      23.208   1.017  51.404  1.00  0.00     0.172 C 
BRANCH   6   7
HETATM    7  C9  UNL     1      22.495   0.467  52.568  1.00  0.00    -0.040 A 
HETATM    8  C10 UNL     1      21.366   1.007  53.161  1.00  0.00     0.009 A 
HETATM    9  C11 UNL     1      20.684   0.513  54.235  1.00  0.00     0.001 A 
HETATM   10  C12 UNL     1      21.111  -0.638  54.833  1.00  0.00     0.000 A 
HETATM   11  C13 UNL     1      22.233  -1.255  54.313  1.00  0.00     0.001 A 
HETATM   12  C14 UNL     1      22.875  -0.700  53.226  1.00  0.00     0.009 A 
ENDBRANCH   6   7
ENDBRANCH   4   6
BRANCH   4  13
HETATM   13  C15 UNL     1      23.474   3.404  51.356  1.00  0.00     0.041 C 
HETATM   14  C16 UNL     1      23.170   3.799  50.105  1.00  0.00     0.041 C 
HETATM   15 CL1  UNL     1      23.447   2.852  48.667  1.00  0.00    -0.086 Cl
HETATM   16  C17 UNL     1      22.549   5.108  49.781  1.00  0.00     0.120 C 
HETATM   17  C18 UNL     1      23.399   6.155  50.441  1.00  0.00     0.077 C 
HETATM   18  C19 UNL     1      23.643   5.780  51.684  1.00  0.00     0.078 C 
HETATM   19  C20 UNL     1      23.115   4.487  52.269  1.00  0.00     0.125 C 
BRANCH  17  20
HETATM   20  O2  UNL     1      23.867   7.322  49.891  1.00  0.00    -0.362 OA
HETATM   21  H16 UNL     1      23.491   7.667  49.028  1.00  0.00     0.217 HD
ENDBRANCH  17  20
BRANCH  18  22
HETATM   22  O3  UNL     1      24.429   6.680  52.401  1.00  0.00    -0.362 OA
HETATM   23  H17 UNL     1      24.543   6.484  53.383  1.00  0.00     0.217 HD
ENDBRANCH  18  22
ENDBRANCH   4  13
BRANCH   3  24
HETATM   24  C2  UNL     1      27.040   0.348  53.062  1.00  0.00     0.036 A 
HETATM   25  C3  UNL     1      27.810   1.182  53.868  1.00  0.00     0.029 A 
HETATM   26  C4  UNL     1      29.045   0.711  54.287  1.00  0.00     0.002 A 
HETATM   27  C5  UNL     1      29.543  -0.521  53.951  1.00  0.00     0.000 A 
HETATM   28  C6  UNL     1      28.778  -1.366  53.142  1.00  0.00     0.002 A 
HETATM   29  C7  UNL     1      27.541  -0.884  52.727  1.00  0.00     0.029 A 
ENDBRANCH   3  24
TORSDOF 6
ENDMDL
MODEL 7
REMARK VINA RESULT:      -8.0      2.764      3.576
REMARK  6 active torsions:
REMARK  status: ('A' for Active; 'I' for Inactive)
REMARK       I    between atoms: C1_2  and  N1_3 
REMARK       I    between atoms: C1_2  and  N2_10 
REMARK    1  A    between atoms: N1_3  and  C2_4 
REMARK    2  A    between atoms: N2_10  and  C8_11 
REMARK    3  A    between atoms: N2_10  and  C15_18 
REMARK    4  A    between atoms: C8_11  and  C9_12 
REMARK    5  A    between atoms: C18_22  and  O2_23 
REMARK    6  A    between atoms: C19_24  and  O3_25 
ROOT
HETATM    1  O1  UNL     1      25.653   0.836  51.917  1.00  0.00    -0.246 OA
HETATM    2  C1  UNL     1      24.605   1.568  51.991  1.00  0.00     0.327 C 
HETATM    3  N1  UNL     1      25.236   2.194  53.134  1.00  0.00    -0.309 N 
HETATM    4  N2  UNL     1      23.326   2.100  51.674  1.00  0.00    -0.297 N 
HETATM    5  H1  UNL     1      24.966   2.983  53.793  1.00  0.00     0.170 HD
ENDROOT
BRANCH   4   6
HETATM    6  C8  UNL     1      22.669   3.109  52.454  1.00  0.00     0.172 C 
BRANCH   6   7
HETATM    7  C9  UNL     1      22.650   4.460  51.869  1.00  0.00    -0.040 A 
HETATM    8  C10 UNL     1      21.540   5.108  51.353  1.00  0.00     0.009 A 
HETATM    9  C11 UNL     1      21.495   6.361  50.814  1.00  0.00     0.001 A 
HETATM   10  C12 UNL     1      22.637   7.107  50.748  1.00  0.00     0.000 A 
HETATM   11  C13 UNL     1      23.801   6.546  51.238  1.00  0.00     0.001 A 
HETATM   12  C14 UNL     1      23.775   5.275  51.770  1.00  0.00     0.009 A 
ENDBRANCH   6   7
ENDBRANCH   4   6
BRANCH   4  13
HETATM   13  C15 UNL     1      22.560   1.683  50.524  1.00  0.00     0.041 C 
HETATM   14  C16 UNL     1      22.774   2.145  49.277  1.00  0.00     0.041 C 
HETATM   15 CL1  UNL     1      23.996   3.312  48.842  1.00  0.00    -0.086 Cl
HETATM   16  C17 UNL     1      21.990   1.714  48.092  1.00  0.00     0.120 C 
HETATM   17  C18 UNL     1      20.543   1.900  48.451  1.00  0.00     0.077 C 
HETATM   18  C19 UNL     1      20.338   1.393  49.653  1.00  0.00     0.078 C 
HETATM   19  C20 UNL     1      21.438   0.749  50.471  1.00  0.00     0.125 C 
BRANCH  17  20
HETATM   20  O2  UNL     1      19.562   2.487  47.693  1.00  0.00    -0.362 OA
HETATM   21  H16 UNL     1      19.758   2.810  46.764  1.00  0.00     0.217 HD
ENDBRANCH  17  20
BRANCH  18  22
HETATM   22  O3  UNL     1      19.022   1.508  50.097  1.00  0.00    -0.362 OA
HETATM   23  H17 UNL     1      18.682   2.445  50.239  1.00  0.00     0.217 HD
ENDBRANCH  18  22
ENDBRANCH   4  13
BRANCH   3  24
HETATM   24  C2  UNL     1      26.518   1.763  53.572  1.00  0.00     0.036 A 
HETATM   25  C3  UNL     1      27.745   2.324  53.228  1.00  0.00     0.029 A 
HETATM   26  C4  UNL     1      28.889   1.751  53.765  1.00  0.00     0.002 A 
HETATM   27  C5  UNL     1      28.873   0.670  54.608  1.00  0.00     0.000 A 
HETATM   28  C6  UNL     1      27.646   0.099  54.959  1.00  0.00     0.002 A 
HETATM   29  C7  UNL     1      26.506   0.682  54.415  1.00  0.00     0.029 A 
ENDBRANCH   3  24
TORSDOF 6
ENDMDL
MODEL 8
REMARK VINA RESULT:      -7.9      2.491      5.702
REMARK  6 active torsions:
REMARK  status: ('A' for Active; 'I' for Inactive)
REMARK       I    between atoms: C1_2  and  N1_3 
REMARK       I    between atoms: C1_2  and  N2_10 
REMARK    1  A    between atoms: N1_3  and  C2_4 
REMARK    2  A    between atoms: N2_10  and  C8_11 
REMARK    3  A    between atoms: N2_10  and  C15_18 
REMARK    4  A    between atoms: C8_11  and  C9_12 
REMARK    5  A    between atoms: C18_22  and  O2_23 
REMARK    6  A    between atoms: C19_24  and  O3_25 
ROOT
HETATM    1  O1  UNL     1      24.677   4.693  48.844  1.00  0.00    -0.246 OA
HETATM    2  C1  UNL     1      24.427   4.109  49.955  1.00  0.00     0.327 C 
HETATM    3  N1  UNL     1      25.657   4.702  50.437  1.00  0.00    -0.309 N 
HETATM    4  N2  UNL     1      23.751   3.315  50.920  1.00  0.00    -0.297 N 
HETATM    5  H1  UNL     1      26.172   4.692  51.367  1.00  0.00     0.170 HD
ENDROOT
BRANCH   4   6
HETATM    6  C8  UNL     1      24.268   3.047  52.232  1.00  0.00     0.172 C 
BRANCH   6   7
HETATM    7  C9  UNL     1      24.896   1.729  52.417  1.00  0.00    -0.040 A 
HETATM    8  C10 UNL     1      26.079   1.302  51.837  1.00  0.00     0.009 A 
HETATM    9  C11 UNL     1      26.684   0.090  51.998  1.00  0.00     0.001 A 
HETATM   10  C12 UNL     1      26.111  -0.848  52.808  1.00  0.00     0.000 A 
HETATM   11  C13 UNL     1      24.924  -0.517  53.434  1.00  0.00     0.001 A 
HETATM   12  C14 UNL     1      24.366   0.727  53.226  1.00  0.00     0.009 A 
ENDBRANCH   6   7
ENDBRANCH   4   6
BRANCH   4  13
HETATM   13  C15 UNL     1      22.466   2.703  50.680  1.00  0.00     0.041 C 
HETATM   14  C16 UNL     1      21.293   3.350  50.818  1.00  0.00     0.041 C 
HETATM   15 CL1  UNL     1      21.126   5.017  51.306  1.00  0.00    -0.086 Cl
HETATM   16  C17 UNL     1      19.971   2.723  50.567  1.00  0.00     0.120 C 
HETATM   17  C18 UNL     1      19.941   1.459  51.377  1.00  0.00     0.077 C 
HETATM   18  C19 UNL     1      21.075   0.809  51.189  1.00  0.00     0.078 C 
HETATM   19  C20 UNL     1      22.177   1.326  50.287  1.00  0.00     0.125 C 
BRANCH  17  20
HETATM   20  O2  UNL     1      18.930   1.010  52.189  1.00  0.00    -0.362 OA
HETATM   21  H16 UNL     1      19.135   0.611  53.087  1.00  0.00     0.217 HD
ENDBRANCH  17  20
BRANCH  18  22
HETATM   22  O3  UNL     1      21.164  -0.389  51.895  1.00  0.00    -0.362 OA
HETATM   23  H17 UNL     1      20.888  -0.355  52.863  1.00  0.00     0.217 HD
ENDBRANCH  18  22
ENDBRANCH   4  13
BRANCH   3  24
HETATM   24  C2  UNL     1      26.444   5.520  49.581  1.00  0.00     0.036 A 
HETATM   25  C3  UNL     1      26.225   6.862  49.282  1.00  0.00     0.029 A 
HETATM   26  C4  UNL     1      27.114   7.482  48.417  1.00  0.00     0.002 A 
HETATM   27  C5  UNL     1      28.187   6.849  47.846  1.00  0.00     0.000 A 
HETATM   28  C6  UNL     1      28.416   5.500  48.140  1.00  0.00     0.002 A 
HETATM   29  C7  UNL     1      27.518   4.888  49.008  1.00  0.00     0.029 A 
ENDBRANCH   3  24
TORSDOF 6
ENDMDL
MODEL 9
REMARK VINA RESULT:      -7.9      1.754      2.487
REMARK  6 active torsions:
REMARK  status: ('A' for Active; 'I' for Inactive)
REMARK       I    between atoms: C1_2  and  N1_3 
REMARK       I    between atoms: C1_2  and  N2_10 
REMARK    1  A    between atoms: N1_3  and  C2_4 
REMARK    2  A    between atoms: N2_10  and  C8_11 
REMARK    3  A    between atoms: N2_10  and  C15_18 
REMARK    4  A    between atoms: C8_11  and  C9_12 
REMARK    5  A    between atoms: C18_22  and  O2_23 
REMARK    6  A    between atoms: C19_24  and  O3_25 
ROOT
HETATM    1  O1  UNL     1      25.399   1.881  53.448  1.00  0.00    -0.246 OA
HETATM    2  C1  UNL     1      25.013   2.568  52.439  1.00  0.00     0.327 C 
HETATM    3  N1  UNL     1      26.332   2.332  51.890  1.00  0.00    -0.309 N 
HETATM    4  N2  UNL     1      24.169   3.345  51.600  1.00  0.00    -0.297 N 
HETATM    5  H1  UNL     1      26.818   2.597  50.983  1.00  0.00     0.170 HD
ENDROOT
BRANCH   4   6
HETATM    6  C8  UNL     1      24.596   3.920  50.356  1.00  0.00     0.172 C 
BRANCH   6   7
HETATM    7  C9  UNL     1      23.697   3.708  49.211  1.00  0.00    -0.040 A 
HETATM    8  C10 UNL     1      23.162   4.696  48.401  1.00  0.00     0.009 A 
HETATM    9  C11 UNL     1      22.334   4.523  47.330  1.00  0.00     0.001 A 
HETATM   10  C12 UNL     1      21.955   3.263  46.967  1.00  0.00     0.000 A 
HETATM   11  C13 UNL     1      22.437   2.206  47.715  1.00  0.00     0.001 A 
HETATM   12  C14 UNL     1      23.271   2.452  48.786  1.00  0.00     0.009 A 
ENDBRANCH   6   7
ENDBRANCH   4   6
BRANCH   4  13
HETATM   13  C15 UNL     1      22.789   3.627  51.912  1.00  0.00     0.041 C 
HETATM   14  C16 UNL     1      21.854   2.674  52.094  1.00  0.00     0.041 C 
HETATM   15 CL1  UNL     1      22.147   0.958  51.982  1.00  0.00    -0.086 Cl
HETATM   16  C17 UNL     1      20.435   2.963  52.419  1.00  0.00     0.120 C 
HETATM   17  C18 UNL     1      19.954   3.942  51.387  1.00  0.00     0.077 C 
HETATM   18  C19 UNL     1      20.855   4.899  51.260  1.00  0.00     0.078 C 
HETATM   19  C20 UNL     1      22.140   4.928  52.062  1.00  0.00     0.125 C 
BRANCH  17  20
HETATM   20  O2  UNL     1      18.784   3.896  50.671  1.00  0.00    -0.362 OA
HETATM   21  H16 UNL     1      18.510   4.668  50.091  1.00  0.00     0.217 HD
ENDBRANCH  17  20
BRANCH  18  22
HETATM   22  O3  UNL     1      20.517   5.873  50.323  1.00  0.00    -0.362 OA
HETATM   23  H17 UNL     1      19.826   5.610  49.638  1.00  0.00     0.217 HD
ENDBRANCH  18  22
ENDBRANCH   4  13
BRANCH   3  24
HETATM   24  C2  UNL     1      27.288   1.572  52.620  1.00  0.00     0.036 A 
HETATM   25  C3  UNL     1      28.287   2.072  53.450  1.00  0.00     0.029 A 
HETATM   26  C4  UNL     1      29.123   1.158  54.075  1.00  0.00     0.002 A 
HETATM   27  C5  UNL     1      29.017  -0.199  53.917  1.00  0.00     0.000 A 
HETATM   28  C6  UNL     1      28.016  -0.711  53.086  1.00  0.00     0.002 A 
HETATM   29  C7  UNL     1      27.184   0.215  52.465  1.00  0.00     0.029 A 
ENDBRANCH   3  24
TORSDOF 6
ENDMDL
