MODEL 1
REMARK VINA RESULT:      -9.2      0.000      0.000
REMARK  2 active torsions:
REMARK  status: ('A' for Active; 'I' for Inactive)
REMARK    1  A    between atoms: O1_1  and  C1_2 
REMARK    2  A    between atoms: C7_8  and  O2_9 
ROOT
HETATM    1  C1  UNL     1      19.871  -1.209  53.664  1.00  0.00     0.066 A 
HETATM    2  C2  UNL     1      20.920  -1.579  54.507  1.00  0.00     0.037 A 
HETATM    3  C3  UNL     1      22.046  -0.797  54.404  1.00  0.00     0.011 A 
HETATM    4  C4  UNL     1      22.249   0.306  53.563  1.00  0.00    -0.039 A 
HETATM    5  C5  UNL     1      21.211   0.637  52.759  1.00  0.00    -0.014 A 
HETATM    6  C6  UNL     1      20.054  -0.109  52.817  1.00  0.00     0.047 A 
HETATM    7  C7  UNL     1      20.954   1.678  51.734  1.00  0.00     0.201 C 
HETATM    8  C8  UNL     1      22.009   2.710  51.670  1.00  0.00     0.009 C 
HETATM    9  C9  UNL     1      22.482   3.904  51.831  1.00  0.00    -0.002 C 
HETATM   10  C10 UNL     1      23.428   5.023  51.823  1.00  0.00     0.194 C 
HETATM   11  O3  UNL     1      24.683   4.756  51.350  1.00  0.00    -0.387 OA
HETATM   12  C11 UNL     1      24.657   4.416  50.017  1.00  0.00     0.169 C 
HETATM   13  C12 UNL     1      26.028   4.063  49.480  1.00  0.00     0.046 C 
HETATM   14  C13 UNL     1      26.543   2.855  50.235  1.00  0.00     0.122 C 
HETATM   15  N1  UNL     1      26.666   3.071  51.660  1.00  0.00    -0.389 N 
HETATM   16  C14 UNL     1      27.142   2.062  52.542  1.00  0.00     0.044 A 
HETATM   17  C15 UNL     1      28.424   2.206  53.052  1.00  0.00     0.030 A 
HETATM   18  C16 UNL     1      29.113   1.358  53.922  1.00  0.00     0.002 A 
HETATM   19  C17 UNL     1      28.375   0.234  54.300  1.00  0.00     0.002 A 
HETATM   20  C18 UNL     1      27.082   0.067  53.802  1.00  0.00     0.021 A 
HETATM   21  C19 UNL     1      26.455   0.940  52.944  1.00  0.00     0.027 A 
HETATM   22  S1  UNL     1      24.820   0.323  52.578  1.00  0.00    -0.123 SA
HETATM   23  C20 UNL     1      23.596   0.889  53.754  1.00  0.00     0.118 C 
HETATM   24  H16 UNL     1      26.514   3.809  52.380  1.00  0.00     0.159 HD
ENDROOT
BRANCH   1  25
HETATM   25  O1  UNL     1      18.712  -1.994  53.754  1.00  0.00    -0.361 OA
HETATM   26  H1  UNL     1      18.021  -1.894  53.027  1.00  0.00     0.217 HD
ENDBRANCH   1  25
BRANCH   7  27
HETATM   27  O2  UNL     1      19.761   2.361  52.000  1.00  0.00    -0.270 OA
HETATM   28 CL1  UNL     1      19.093   3.073  50.610  1.00  0.00     0.062 Cl
ENDBRANCH   7  27
TORSDOF 2
ENDMDL
MODEL 2
REMARK VINA RESULT:      -8.9      2.995      5.326
REMARK  2 active torsions:
REMARK  status: ('A' for Active; 'I' for Inactive)
REMARK    1  A    between atoms: O1_1  and  C1_2 
REMARK    2  A    between atoms: C7_8  and  O2_9 
ROOT
HETATM    1  C1  UNL     1      26.435  -0.788  52.992  1.00  0.00     0.066 A 
HETATM    2  C2  UNL     1      27.561  -0.036  52.648  1.00  0.00     0.037 A 
HETATM    3  C3  UNL     1      27.288   1.211  52.138  1.00  0.00     0.011 A 
HETATM    4  C4  UNL     1      26.032   1.796  51.930  1.00  0.00    -0.039 A 
HETATM    5  C5  UNL     1      24.961   1.040  52.275  1.00  0.00    -0.014 A 
HETATM    6  C6  UNL     1      25.170  -0.220  52.792  1.00  0.00     0.047 A 
HETATM    7  C7  UNL     1      23.488   1.210  52.241  1.00  0.00     0.201 C 
HETATM    8  C8  UNL     1      23.066   2.584  51.904  1.00  0.00     0.009 C 
HETATM    9  C9  UNL     1      22.543   3.740  52.166  1.00  0.00    -0.002 C 
HETATM   10  C10 UNL     1      22.076   5.115  51.972  1.00  0.00     0.194 C 
HETATM   11  O3  UNL     1      22.244   5.645  50.724  1.00  0.00    -0.387 OA
HETATM   12  C11 UNL     1      21.496   4.972  49.785  1.00  0.00     0.169 C 
HETATM   13  C12 UNL     1      21.705   5.505  48.383  1.00  0.00     0.046 C 
HETATM   14  C13 UNL     1      23.160   5.315  48.008  1.00  0.00     0.122 C 
HETATM   15  N1  UNL     1      24.079   6.003  48.887  1.00  0.00    -0.389 N 
HETATM   16  C14 UNL     1      25.488   5.958  48.698  1.00  0.00     0.044 A 
HETATM   17  C15 UNL     1      26.107   7.095  48.200  1.00  0.00     0.030 A 
HETATM   18  C16 UNL     1      27.462   7.297  47.924  1.00  0.00     0.002 A 
HETATM   19  C17 UNL     1      28.255   6.181  48.202  1.00  0.00     0.002 A 
HETATM   20  C18 UNL     1      27.656   5.024  48.705  1.00  0.00     0.021 A 
HETATM   21  C19 UNL     1      26.311   4.886  48.956  1.00  0.00     0.027 A 
HETATM   22  S1  UNL     1      26.003   3.246  49.591  1.00  0.00    -0.123 SA
HETATM   23  C20 UNL     1      26.158   3.160  51.371  1.00  0.00     0.118 C 
HETATM   24  H16 UNL     1      24.084   6.616  49.731  1.00  0.00     0.159 HD
ENDROOT
BRANCH   1  25
HETATM   25  O1  UNL     1      26.691  -2.063  53.515  1.00  0.00    -0.361 OA
HETATM   26  H1  UNL     1      25.951  -2.746  53.466  1.00  0.00     0.217 HD
ENDBRANCH   1  25
BRANCH   7  27
HETATM   27  O2  UNL     1      22.921   0.926  53.489  1.00  0.00    -0.270 OA
HETATM   28 CL1  UNL     1      21.554  -0.076  53.372  1.00  0.00     0.062 Cl
ENDBRANCH   7  27
TORSDOF 2
ENDMDL
MODEL 3
REMARK VINA RESULT:      -8.9      3.278      6.770
REMARK  2 active torsions:
REMARK  status: ('A' for Active; 'I' for Inactive)
REMARK    1  A    between atoms: O1_1  and  C1_2 
REMARK    2  A    between atoms: C7_8  and  O2_9 
ROOT
HETATM    1  C1  UNL     1      26.089   0.569  54.263  1.00  0.00     0.066 A 
HETATM    2  C2  UNL     1      25.285  -0.506  54.648  1.00  0.00     0.037 A 
HETATM    3  C3  UNL     1      24.094  -0.608  53.968  1.00  0.00     0.011 A 
HETATM    4  C4  UNL     1      23.612   0.231  52.955  1.00  0.00    -0.039 A 
HETATM    5  C5  UNL     1      24.417   1.264  52.606  1.00  0.00    -0.014 A 
HETATM    6  C6  UNL     1      25.624   1.419  53.251  1.00  0.00     0.047 A 
HETATM    7  C7  UNL     1      24.347   2.380  51.631  1.00  0.00     0.201 C 
HETATM    8  C8  UNL     1      23.210   2.269  50.695  1.00  0.00     0.009 C 
HETATM    9  C9  UNL     1      22.672   2.079  49.533  1.00  0.00    -0.002 C 
HETATM   10  C10 UNL     1      21.644   1.943  48.498  1.00  0.00     0.194 C 
HETATM   11  O3  UNL     1      20.349   2.111  48.900  1.00  0.00    -0.387 OA
HETATM   12  C11 UNL     1      20.120   3.394  49.340  1.00  0.00     0.169 C 
HETATM   13  C12 UNL     1      18.704   3.592  49.843  1.00  0.00     0.046 C 
HETATM   14  C13 UNL     1      18.480   2.672  51.025  1.00  0.00     0.122 C 
HETATM   15  N1  UNL     1      18.647   1.271  50.708  1.00  0.00    -0.389 N 
HETATM   16  C14 UNL     1      18.469   0.247  51.679  1.00  0.00     0.044 A 
HETATM   17  C15 UNL     1      17.320  -0.524  51.598  1.00  0.00     0.030 A 
HETATM   18  C16 UNL     1      16.917  -1.574  52.426  1.00  0.00     0.002 A 
HETATM   19  C17 UNL     1      17.822  -1.846  53.455  1.00  0.00     0.002 A 
HETATM   20  C18 UNL     1      18.988  -1.084  53.558  1.00  0.00     0.021 A 
HETATM   21  C19 UNL     1      19.330  -0.059  52.708  1.00  0.00     0.027 A 
HETATM   22  S1  UNL     1      20.900   0.622  53.219  1.00  0.00    -0.123 SA
HETATM   23  C20 UNL     1      22.289  -0.218  52.467  1.00  0.00     0.118 C 
HETATM   24  H16 UNL     1      18.879   0.647  49.906  1.00  0.00     0.159 HD
ENDROOT
BRANCH   1  25
HETATM   25  O1  UNL     1      27.309   0.691  54.944  1.00  0.00    -0.361 OA
HETATM   26  H1  UNL     1      27.725   1.607  54.997  1.00  0.00     0.217 HD
ENDBRANCH   1  25
BRANCH   7  27
HETATM   27  O2  UNL     1      25.499   2.425  50.837  1.00  0.00    -0.270 OA
HETATM   28 CL1  UNL     1      25.755   3.955  50.145  1.00  0.00     0.062 Cl
ENDBRANCH   7  27
TORSDOF 2
ENDMDL
MODEL 4
REMARK VINA RESULT:      -8.8      3.196      6.769
REMARK  2 active torsions:
REMARK  status: ('A' for Active; 'I' for Inactive)
REMARK    1  A    between atoms: O1_1  and  C1_2 
REMARK    2  A    between atoms: C7_8  and  O2_9 
ROOT
HETATM    1  C1  UNL     1      28.729   0.568  53.656  1.00  0.00     0.066 A 
HETATM    2  C2  UNL     1      28.678   1.961  53.571  1.00  0.00     0.037 A 
HETATM    3  C3  UNL     1      27.417   2.482  53.400  1.00  0.00     0.011 A 
HETATM    4  C4  UNL     1      26.206   1.783  53.304  1.00  0.00    -0.039 A 
HETATM    5  C5  UNL     1      26.292   0.433  53.391  1.00  0.00    -0.014 A 
HETATM    6  C6  UNL     1      27.529  -0.149  53.563  1.00  0.00     0.047 A 
HETATM    7  C7  UNL     1      25.331  -0.695  53.344  1.00  0.00     0.201 C 
HETATM    8  C8  UNL     1      23.919  -0.263  53.367  1.00  0.00     0.009 C 
HETATM    9  C9  UNL     1      22.748  -0.136  53.904  1.00  0.00    -0.002 C 
HETATM   10  C10 UNL     1      21.340   0.233  54.064  1.00  0.00     0.194 C 
HETATM   11  O3  UNL     1      20.755   0.876  53.009  1.00  0.00    -0.387 OA
HETATM   12  C11 UNL     1      20.698   0.069  51.896  1.00  0.00     0.169 C 
HETATM   13  C12 UNL     1      20.103   0.776  50.695  1.00  0.00     0.046 C 
HETATM   14  C13 UNL     1      20.989   1.953  50.343  1.00  0.00     0.122 C 
HETATM   15  N1  UNL     1      21.118   2.921  51.410  1.00  0.00    -0.389 N 
HETATM   16  C14 UNL     1      21.898   4.102  51.273  1.00  0.00     0.044 A 
HETATM   17  C15 UNL     1      21.224   5.305  51.120  1.00  0.00     0.030 A 
HETATM   18  C16 UNL     1      21.757   6.586  50.963  1.00  0.00     0.002 A 
HETATM   19  C17 UNL     1      23.153   6.609  50.967  1.00  0.00     0.002 A 
HETATM   20  C18 UNL     1      23.856   5.412  51.120  1.00  0.00     0.021 A 
HETATM   21  C19 UNL     1      23.272   4.176  51.270  1.00  0.00     0.027 A 
HETATM   22  S1  UNL     1      24.553   2.943  51.434  1.00  0.00    -0.123 SA
HETATM   23  C20 UNL     1      25.063   2.706  53.132  1.00  0.00     0.118 C 
HETATM   24  H16 UNL     1      20.794   3.095  52.385  1.00  0.00     0.159 HD
ENDROOT
BRANCH   1  25
HETATM   25  O1  UNL     1      30.006   0.016  53.832  1.00  0.00    -0.361 OA
HETATM   26  H1  UNL     1      30.800   0.588  53.592  1.00  0.00     0.217 HD
ENDBRANCH   1  25
BRANCH   7  27
HETATM   27  O2  UNL     1      25.495  -1.541  54.448  1.00  0.00    -0.270 OA
HETATM   28 CL1  UNL     1      25.265  -0.736  55.926  1.00  0.00     0.062 Cl
ENDBRANCH   7  27
TORSDOF 2
ENDMDL
MODEL 5
REMARK VINA RESULT:      -8.6      3.038      6.040
REMARK  2 active torsions:
REMARK  status: ('A' for Active; 'I' for Inactive)
REMARK    1  A    between atoms: O1_1  and  C1_2 
REMARK    2  A    between atoms: C7_8  and  O2_9 
ROOT
HETATM    1  C1  UNL     1      28.167   0.012  53.909  1.00  0.00     0.066 A 
HETATM    2  C2  UNL     1      28.755   1.218  53.522  1.00  0.00     0.037 A 
HETATM    3  C3  UNL     1      27.911   2.092  52.880  1.00  0.00     0.011 A 
HETATM    4  C4  UNL     1      26.555   1.908  52.579  1.00  0.00    -0.039 A 
HETATM    5  C5  UNL     1      26.016   0.727  52.968  1.00  0.00    -0.014 A 
HETATM    6  C6  UNL     1      26.812  -0.191  53.617  1.00  0.00     0.047 A 
HETATM    7  C7  UNL     1      24.679   0.090  52.876  1.00  0.00     0.201 C 
HETATM    8  C8  UNL     1      23.627   1.005  52.389  1.00  0.00     0.009 C 
HETATM    9  C9  UNL     1      22.559   1.726  52.517  1.00  0.00    -0.002 C 
HETATM   10  C10 UNL     1      21.457   2.627  52.171  1.00  0.00     0.194 C 
HETATM   11  O3  UNL     1      21.419   3.075  50.880  1.00  0.00    -0.387 OA
HETATM   12  C11 UNL     1      21.210   2.042  49.995  1.00  0.00     0.169 C 
HETATM   13  C12 UNL     1      21.217   2.503  48.551  1.00  0.00     0.046 C 
HETATM   14  C13 UNL     1      22.580   3.084  48.239  1.00  0.00     0.122 C 
HETATM   15  N1  UNL     1      22.931   4.216  49.069  1.00  0.00    -0.389 N 
HETATM   16  C14 UNL     1      24.165   4.908  48.924  1.00  0.00     0.044 A 
HETATM   17  C15 UNL     1      24.134   6.162  48.331  1.00  0.00     0.030 A 
HETATM   18  C16 UNL     1      25.199   7.028  48.074  1.00  0.00     0.002 A 
HETATM   19  C17 UNL     1      26.435   6.524  48.485  1.00  0.00     0.002 A 
HETATM   20  C18 UNL     1      26.493   5.265  49.087  1.00  0.00     0.021 A 
HETATM   21  C19 UNL     1      25.405   4.455  49.313  1.00  0.00     0.027 A 
HETATM   22  S1  UNL     1      25.953   2.951  50.103  1.00  0.00    -0.123 SA
HETATM   23  C20 UNL     1      25.991   3.088  51.887  1.00  0.00     0.118 C 
HETATM   24  H16 UNL     1      22.550   4.797  49.845  1.00  0.00     0.159 HD
ENDROOT
BRANCH   1  25
HETATM   25  O1  UNL     1      29.012  -0.894  54.567  1.00  0.00    -0.361 OA
HETATM   26  H1  UNL     1      29.768  -1.298  54.037  1.00  0.00     0.217 HD
ENDBRANCH   1  25
BRANCH   7  27
HETATM   27  O2  UNL     1      24.250  -0.360  54.131  1.00  0.00    -0.270 OA
HETATM   28 CL1  UNL     1      22.766  -1.182  54.056  1.00  0.00     0.062 Cl
ENDBRANCH   7  27
TORSDOF 2
ENDMDL
MODEL 6
REMARK VINA RESULT:      -8.5      2.570      6.555
REMARK  2 active torsions:
REMARK  status: ('A' for Active; 'I' for Inactive)
REMARK    1  A    between atoms: O1_1  and  C1_2 
REMARK    2  A    between atoms: C7_8  and  O2_9 
ROOT
HETATM    1  C1  UNL     1      26.829   6.853  48.113  1.00  0.00     0.066 A 
HETATM    2  C2  UNL     1      27.856   5.963  48.433  1.00  0.00     0.037 A 
HETATM    3  C3  UNL     1      27.437   4.764  48.960  1.00  0.00     0.011 A 
HETATM    4  C4  UNL     1      26.121   4.348  49.204  1.00  0.00    -0.039 A 
HETATM    5  C5  UNL     1      25.149   5.236  48.882  1.00  0.00    -0.014 A 
HETATM    6  C6  UNL     1      25.507   6.456  48.349  1.00  0.00     0.047 A 
HETATM    7  C7  UNL     1      23.668   5.259  48.954  1.00  0.00     0.201 C 
HETATM    8  C8  UNL     1      23.079   3.953  49.313  1.00  0.00     0.009 C 
HETATM    9  C9  UNL     1      22.405   2.874  49.074  1.00  0.00    -0.002 C 
HETATM   10  C10 UNL     1      21.767   1.573  49.291  1.00  0.00     0.194 C 
HETATM   11  O3  UNL     1      21.898   1.031  50.538  1.00  0.00    -0.387 OA
HETATM   12  C11 UNL     1      21.269   1.801  51.490  1.00  0.00     0.169 C 
HETATM   13  C12 UNL     1      21.443   1.251  52.891  1.00  0.00     0.046 C 
HETATM   14  C13 UNL     1      22.920   1.252  53.227  1.00  0.00     0.122 C 
HETATM   15  N1  UNL     1      23.719   0.445  52.330  1.00  0.00    -0.389 N 
HETATM   16  C14 UNL     1      25.126   0.308  52.483  1.00  0.00     0.044 A 
HETATM   17  C15 UNL     1      25.605  -0.898  52.974  1.00  0.00     0.030 A 
HETATM   18  C16 UNL     1      26.928  -1.273  53.217  1.00  0.00     0.002 A 
HETATM   19  C17 UNL     1      27.853  -0.271  52.910  1.00  0.00     0.002 A 
HETATM   20  C18 UNL     1      27.396   0.951  52.414  1.00  0.00     0.021 A 
HETATM   21  C19 UNL     1      26.074   1.262  52.196  1.00  0.00     0.027 A 
HETATM   22  S1  UNL     1      25.966   2.926  51.556  1.00  0.00    -0.123 SA
HETATM   23  C20 UNL     1      26.083   2.983  49.771  1.00  0.00     0.118 C 
HETATM   24  H16 UNL     1      23.622  -0.166  51.491  1.00  0.00     0.159 HD
ENDROOT
BRANCH   1  25
HETATM   25  O1  UNL     1      27.235   8.082  47.573  1.00  0.00    -0.361 OA
HETATM   26  H1  UNL     1      27.246   8.881  48.187  1.00  0.00     0.217 HD
ENDBRANCH   1  25
BRANCH   7  27
HETATM   27  O2  UNL     1      23.110   5.609  47.719  1.00  0.00    -0.270 OA
HETATM   28 CL1  UNL     1      21.668   6.492  47.880  1.00  0.00     0.062 Cl
ENDBRANCH   7  27
TORSDOF 2
ENDMDL
MODEL 7
REMARK VINA RESULT:      -8.3      3.537      6.291
REMARK  2 active torsions:
REMARK  status: ('A' for Active; 'I' for Inactive)
REMARK    1  A    between atoms: O1_1  and  C1_2 
REMARK    2  A    between atoms: C7_8  and  O2_9 
ROOT
HETATM    1  C1  UNL     1      22.605  -1.274  54.860  1.00  0.00     0.066 A 
HETATM    2  C2  UNL     1      21.257  -1.368  54.512  1.00  0.00     0.037 A 
HETATM    3  C3  UNL     1      20.852  -0.494  53.531  1.00  0.00     0.011 A 
HETATM    4  C4  UNL     1      21.628   0.459  52.859  1.00  0.00    -0.039 A 
HETATM    5  C5  UNL     1      22.933   0.524  53.221  1.00  0.00    -0.014 A 
HETATM    6  C6  UNL     1      23.399  -0.328  54.199  1.00  0.00     0.047 A 
HETATM    7  C7  UNL     1      24.106   1.338  52.819  1.00  0.00     0.201 C 
HETATM    8  C8  UNL     1      23.855   2.177  51.630  1.00  0.00     0.009 C 
HETATM    9  C9  UNL     1      24.011   2.517  50.390  1.00  0.00    -0.002 C 
HETATM   10  C10 UNL     1      23.857   3.261  49.138  1.00  0.00     0.194 C 
HETATM   11  O3  UNL     1      23.021   4.341  49.169  1.00  0.00    -0.387 OA
HETATM   12  C11 UNL     1      23.496   5.323  50.008  1.00  0.00     0.169 C 
HETATM   13  C12 UNL     1      22.560   6.510  50.103  1.00  0.00     0.046 C 
HETATM   14  C13 UNL     1      21.241   6.037  50.678  1.00  0.00     0.122 C 
HETATM   15  N1  UNL     1      20.591   5.022  49.878  1.00  0.00    -0.389 N 
HETATM   16  C14 UNL     1      19.338   4.456  50.242  1.00  0.00     0.044 A 
HETATM   17  C15 UNL     1      18.222   4.842  49.514  1.00  0.00     0.030 A 
HETATM   18  C16 UNL     1      16.895   4.438  49.678  1.00  0.00     0.002 A 
HETATM   19  C17 UNL     1      16.719   3.526  50.721  1.00  0.00     0.002 A 
HETATM   20  C18 UNL     1      17.827   3.120  51.469  1.00  0.00     0.021 A 
HETATM   21  C19 UNL     1      19.114   3.556  51.258  1.00  0.00     0.027 A 
HETATM   22  S1  UNL     1      20.195   2.772  52.444  1.00  0.00    -0.123 SA
HETATM   23  C20 UNL     1      20.827   1.203  51.862  1.00  0.00     0.118 C 
HETATM   24  H16 UNL     1      20.726   4.478  48.999  1.00  0.00     0.159 HD
ENDROOT
BRANCH   1  25
HETATM   25  O1  UNL     1      23.039  -2.158  55.859  1.00  0.00    -0.361 OA
HETATM   26  H1  UNL     1      22.512  -3.007  55.993  1.00  0.00     0.217 HD
ENDBRANCH   1  25
BRANCH   7  27
HETATM   27  O2  UNL     1      25.196   0.521  52.494  1.00  0.00    -0.270 OA
HETATM   28 CL1  UNL     1      26.673   1.158  53.040  1.00  0.00     0.062 Cl
ENDBRANCH   7  27
TORSDOF 2
ENDMDL
MODEL 8
REMARK VINA RESULT:      -8.2      3.118      6.113
REMARK  2 active torsions:
REMARK  status: ('A' for Active; 'I' for Inactive)
REMARK    1  A    between atoms: O1_1  and  C1_2 
REMARK    2  A    between atoms: C7_8  and  O2_9 
ROOT
HETATM    1  C1  UNL     1      26.254   0.057  53.963  1.00  0.00     0.066 A 
HETATM    2  C2  UNL     1      26.540   1.417  54.090  1.00  0.00     0.037 A 
HETATM    3  C3  UNL     1      25.559   2.260  53.623  1.00  0.00     0.011 A 
HETATM    4  C4  UNL     1      24.331   1.909  53.046  1.00  0.00    -0.039 A 
HETATM    5  C5  UNL     1      24.085   0.580  52.938  1.00  0.00    -0.014 A 
HETATM    6  C6  UNL     1      25.031  -0.315  53.389  1.00  0.00     0.047 A 
HETATM    7  C7  UNL     1      22.975  -0.253  52.415  1.00  0.00     0.201 C 
HETATM    8  C8  UNL     1      21.770   0.527  52.069  1.00  0.00     0.009 C 
HETATM    9  C9  UNL     1      20.544   0.911  52.231  1.00  0.00    -0.002 C 
HETATM   10  C10 UNL     1      19.282   1.619  52.004  1.00  0.00     0.194 C 
HETATM   11  O3  UNL     1      19.246   2.473  50.938  1.00  0.00    -0.387 OA
HETATM   12  C11 UNL     1      19.395   1.799  49.747  1.00  0.00     0.169 C 
HETATM   13  C12 UNL     1      19.413   2.729  48.551  1.00  0.00     0.046 C 
HETATM   14  C13 UNL     1      20.601   3.660  48.684  1.00  0.00     0.122 C 
HETATM   15  N1  UNL     1      20.568   4.473  49.879  1.00  0.00    -0.389 N 
HETATM   16  C14 UNL     1      21.586   5.419  50.181  1.00  0.00     0.044 A 
HETATM   17  C15 UNL     1      21.284   6.764  50.022  1.00  0.00     0.030 A 
HETATM   18  C16 UNL     1      22.105   7.871  50.246  1.00  0.00     0.002 A 
HETATM   19  C17 UNL     1      23.387   7.531  50.685  1.00  0.00     0.002 A 
HETATM   20  C18 UNL     1      23.716   6.184  50.854  1.00  0.00     0.021 A 
HETATM   21  C19 UNL     1      22.860   5.134  50.616  1.00  0.00     0.027 A 
HETATM   22  S1  UNL     1      23.707   3.602  50.968  1.00  0.00    -0.123 SA
HETATM   23  C20 UNL     1      23.545   3.107  52.679  1.00  0.00     0.118 C 
HETATM   24  H16 UNL     1      19.978   4.648  50.721  1.00  0.00     0.159 HD
ENDROOT
BRANCH   1  25
HETATM   25  O1  UNL     1      27.241  -0.820  54.434  1.00  0.00    -0.361 OA
HETATM   26  H1  UNL     1      26.988  -1.789  54.554  1.00  0.00     0.217 HD
ENDBRANCH   1  25
BRANCH   7  27
HETATM   27  O2  UNL     1      22.565  -1.197  53.366  1.00  0.00    -0.270 OA
HETATM   28 CL1  UNL     1      21.937  -0.477  54.770  1.00  0.00     0.062 Cl
ENDBRANCH   7  27
TORSDOF 2
ENDMDL
MODEL 9
REMARK VINA RESULT:      -8.1      2.925      4.655
REMARK  2 active torsions:
REMARK  status: ('A' for Active; 'I' for Inactive)
REMARK    1  A    between atoms: O1_1  and  C1_2 
REMARK    2  A    between atoms: C7_8  and  O2_9 
ROOT
HETATM    1  C1  UNL     1      22.605   0.324  52.823  1.00  0.00     0.066 A 
HETATM    2  C2  UNL     1      23.991   0.481  52.758  1.00  0.00     0.037 A 
HETATM    3  C3  UNL     1      24.412   1.664  52.198  1.00  0.00     0.011 A 
HETATM    4  C4  UNL     1      23.618   2.705  51.698  1.00  0.00    -0.039 A 
HETATM    5  C5  UNL     1      22.278   2.520  51.777  1.00  0.00    -0.014 A 
HETATM    6  C6  UNL     1      21.794   1.354  52.329  1.00  0.00     0.047 A 
HETATM    7  C7  UNL     1      21.076   3.300  51.394  1.00  0.00     0.201 C 
HETATM    8  C8  UNL     1      21.385   4.680  50.966  1.00  0.00     0.009 C 
HETATM    9  C9  UNL     1      21.383   5.968  51.097  1.00  0.00    -0.002 C 
HETATM   10  C10 UNL     1      21.622   7.382  50.798  1.00  0.00     0.194 C 
HETATM   11  O3  UNL     1      22.269   7.656  49.626  1.00  0.00    -0.387 OA
HETATM   12  C11 UNL     1      21.521   7.273  48.536  1.00  0.00     0.169 C 
HETATM   13  C12 UNL     1      22.238   7.517  47.224  1.00  0.00     0.046 C 
HETATM   14  C13 UNL     1      23.503   6.684  47.207  1.00  0.00     0.122 C 
HETATM   15  N1  UNL     1      24.420   7.001  48.280  1.00  0.00    -0.389 N 
HETATM   16  C14 UNL     1      25.669   6.337  48.431  1.00  0.00     0.044 A 
HETATM   17  C15 UNL     1      26.816   7.041  48.095  1.00  0.00     0.030 A 
HETATM   18  C16 UNL     1      28.145   6.613  48.150  1.00  0.00     0.002 A 
HETATM   19  C17 UNL     1      28.286   5.301  48.608  1.00  0.00     0.002 A 
HETATM   20  C18 UNL     1      27.147   4.572  48.953  1.00  0.00     0.021 A 
HETATM   21  C19 UNL     1      25.859   5.049  48.877  1.00  0.00     0.027 A 
HETATM   22  S1  UNL     1      24.733   3.775  49.419  1.00  0.00    -0.123 SA
HETATM   23  C20 UNL     1      24.448   3.817  51.185  1.00  0.00     0.118 C 
HETATM   24  H16 UNL     1      24.514   7.636  49.101  1.00  0.00     0.159 HD
ENDROOT
BRANCH   1  25
HETATM   25  O1  UNL     1      22.154  -0.876  53.391  1.00  0.00    -0.361 OA
HETATM   26  H1  UNL     1      22.850  -1.530  53.717  1.00  0.00     0.217 HD
ENDBRANCH   1  25
BRANCH   7  27
HETATM   27  O2  UNL     1      20.190   3.418  52.471  1.00  0.00    -0.270 OA
HETATM   28 CL1  UNL     1      18.563   3.389  51.984  1.00  0.00     0.062 Cl
ENDBRANCH   7  27
TORSDOF 2
ENDMDL
