MODEL 1
REMARK VINA RESULT:      -7.1      0.000      0.000
REMARK  2 active torsions:
REMARK  status: ('A' for Active; 'I' for Inactive)
REMARK    1  A    between atoms: C4_4  and  N1_5 
REMARK    2  A    between atoms: C12_15  and  C13_16 
ROOT
HETATM    1  N1  UNL     1      23.597   2.124  52.996  1.00  0.00    -0.312 N 
HETATM    2  C5  UNL     1      22.560   1.149  53.062  1.00  0.00     0.140 C 
HETATM    3  C6  UNL     1      21.725   0.460  52.348  1.00  0.00     0.129 C 
HETATM    4  F1  UNL     1      21.135  -0.231  53.388  1.00  0.00    -0.205 F 
HETATM    5  C7  UNL     1      21.308   0.319  50.978  1.00  0.00     0.026 C 
HETATM    6  C8  UNL     1      22.029   1.225  50.260  1.00  0.00     0.045 C 
HETATM    7  C9  UNL     1      22.036   1.533  48.795  1.00  0.00    -0.019 C 
HETATM    8  C10 UNL     1      22.903   2.529  48.596  1.00  0.00    -0.004 C 
HETATM    9  C11 UNL     1      23.804   3.370  49.400  1.00  0.00     0.202 C 
HETATM   10  O1  UNL     1      23.659   2.974  50.763  1.00  0.00    -0.349 OA
HETATM   11  C12 UNL     1      23.732   3.937  51.777  1.00  0.00     0.076 C 
HETATM   12  C14 UNL     1      23.702   3.529  53.023  1.00  0.00     0.131 C 
ENDROOT
BRANCH   1  13
HETATM   13  C4  UNL     1      24.979   1.699  52.869  1.00  0.00     0.137 A 
HETATM   14  C3  UNL     1      26.195   2.245  53.269  1.00  0.00     0.077 A 
HETATM   15  C2  UNL     1      27.411   1.691  53.065  1.00  0.00     0.035 A 
HETATM   16  C1  UNL     1      28.531   2.482  53.592  1.00  0.00     0.070 C 
HETATM   17  N3  UNL     1      27.476   0.517  52.424  1.00  0.00    -0.247 NA
HETATM   18  C15 UNL     1      26.350  -0.058  52.016  1.00  0.00     0.235 A 
HETATM   19  N2  UNL     1      25.152   0.501  52.224  1.00  0.00    -0.224 NA
ENDBRANCH   1  13
BRANCH  11  20
HETATM   20  C13 UNL     1      23.841   5.387  51.568  1.00  0.00     0.180 C 
HETATM   21 CL1  UNL     1      22.242   6.102  51.195  1.00  0.00    -0.123 Cl
ENDBRANCH  11  20
TORSDOF 2
ENDMDL
MODEL 2
REMARK VINA RESULT:      -6.4      3.115      5.378
REMARK  2 active torsions:
REMARK  status: ('A' for Active; 'I' for Inactive)
REMARK    1  A    between atoms: C4_4  and  N1_5 
REMARK    2  A    between atoms: C12_15  and  C13_16 
ROOT
HETATM    1  N1  UNL     1      23.652   3.895  51.673  1.00  0.00    -0.312 N 
HETATM    2  C5  UNL     1      23.367   5.285  51.541  1.00  0.00     0.140 C 
HETATM    3  C6  UNL     1      23.722   6.372  50.928  1.00  0.00     0.129 C 
HETATM    4  F1  UNL     1      22.790   7.211  51.508  1.00  0.00    -0.205 F 
HETATM    5  C7  UNL     1      24.718   6.833  49.997  1.00  0.00     0.026 C 
HETATM    6  C8  UNL     1      25.518   5.763  49.729  1.00  0.00     0.045 C 
HETATM    7  C9  UNL     1      26.710   5.632  48.832  1.00  0.00    -0.019 C 
HETATM    8  C10 UNL     1      27.160   4.380  48.942  1.00  0.00    -0.004 C 
HETATM    9  C11 UNL     1      26.818   3.155  49.683  1.00  0.00     0.202 C 
HETATM   10  O1  UNL     1      25.690   3.453  50.505  1.00  0.00    -0.349 OA
HETATM   11  C12 UNL     1      25.584   2.870  51.774  1.00  0.00     0.076 C 
HETATM   12  C14 UNL     1      24.487   3.079  52.462  1.00  0.00     0.131 C 
ENDROOT
BRANCH   1  13
HETATM   13  C4  UNL     1      22.965   2.936  50.829  1.00  0.00     0.137 A 
HETATM   14  C3  UNL     1      22.773   2.827  49.454  1.00  0.00     0.077 A 
HETATM   15  C2  UNL     1      22.094   1.837  48.831  1.00  0.00     0.035 A 
HETATM   16  C1  UNL     1      22.046   1.967  47.368  1.00  0.00     0.070 C 
HETATM   17  N3  UNL     1      21.551   0.869  49.580  1.00  0.00    -0.247 NA
HETATM   18  C15 UNL     1      21.697   0.915  50.899  1.00  0.00     0.235 A 
HETATM   19  N2  UNL     1      22.372   1.900  51.504  1.00  0.00    -0.224 NA
ENDBRANCH   1  13
BRANCH  11  20
HETATM   20  C13 UNL     1      26.606   2.032  52.415  1.00  0.00     0.180 C 
HETATM   21 CL1  UNL     1      26.444   0.324  51.906  1.00  0.00    -0.123 Cl
ENDBRANCH  11  20
TORSDOF 2
ENDMDL
MODEL 3
REMARK VINA RESULT:      -6.4      2.638      3.446
REMARK  2 active torsions:
REMARK  status: ('A' for Active; 'I' for Inactive)
REMARK    1  A    between atoms: C4_4  and  N1_5 
REMARK    2  A    between atoms: C12_15  and  C13_16 
ROOT
HETATM    1  N1  UNL     1      23.711   4.341  51.174  1.00  0.00    -0.312 N 
HETATM    2  C5  UNL     1      23.566   3.245  52.074  1.00  0.00     0.140 C 
HETATM    3  C6  UNL     1      23.119   2.032  52.181  1.00  0.00     0.129 C 
HETATM    4  F1  UNL     1      23.474   1.832  53.501  1.00  0.00    -0.205 F 
HETATM    5  C7  UNL     1      22.415   1.048  51.403  1.00  0.00     0.026 C 
HETATM    6  C8  UNL     1      22.141   1.631  50.202  1.00  0.00     0.045 C 
HETATM    7  C9  UNL     1      21.441   1.098  48.991  1.00  0.00    -0.019 C 
HETATM    8  C10 UNL     1      21.404   2.076  48.083  1.00  0.00    -0.004 C 
HETATM    9  C11 UNL     1      21.840   3.477  47.967  1.00  0.00     0.202 C 
HETATM   10  O1  UNL     1      22.456   3.838  49.203  1.00  0.00    -0.349 OA
HETATM   11  C12 UNL     1      22.297   5.136  49.705  1.00  0.00     0.076 C 
HETATM   12  C14 UNL     1      22.961   5.469  50.785  1.00  0.00     0.131 C 
ENDROOT
BRANCH   1  13
HETATM   13  C4  UNL     1      24.915   4.460  50.373  1.00  0.00     0.137 A 
HETATM   14  C3  UNL     1      25.529   5.520  49.711  1.00  0.00     0.077 A 
HETATM   15  C2  UNL     1      26.678   5.443  49.002  1.00  0.00     0.035 A 
HETATM   16  C1  UNL     1      27.104   6.717  48.405  1.00  0.00     0.070 C 
HETATM   17  N3  UNL     1      27.295   4.258  48.915  1.00  0.00    -0.247 NA
HETATM   18  C15 UNL     1      26.760   3.207  49.525  1.00  0.00     0.235 A 
HETATM   19  N2  UNL     1      25.622   3.295  50.224  1.00  0.00    -0.224 NA
ENDBRANCH   1  13
BRANCH  11  20
HETATM   20  C13 UNL     1      21.439   6.176  49.120  1.00  0.00     0.180 C 
HETATM   21 CL1  UNL     1      21.172   7.512  50.281  1.00  0.00    -0.123 Cl
ENDBRANCH  11  20
TORSDOF 2
ENDMDL
MODEL 4
REMARK VINA RESULT:      -6.4      3.163      5.208
REMARK  2 active torsions:
REMARK  status: ('A' for Active; 'I' for Inactive)
REMARK    1  A    between atoms: C4_4  and  N1_5 
REMARK    2  A    between atoms: C12_15  and  C13_16 
ROOT
HETATM    1  N1  UNL     1      24.397   3.547  49.336  1.00  0.00    -0.312 N 
HETATM    2  C5  UNL     1      23.464   2.918  48.461  1.00  0.00     0.140 C 
HETATM    3  C6  UNL     1      22.431   2.135  48.422  1.00  0.00     0.129 C 
HETATM    4  F1  UNL     1      22.259   2.142  47.052  1.00  0.00    -0.205 F 
HETATM    5  C7  UNL     1      21.609   1.356  49.310  1.00  0.00     0.026 C 
HETATM    6  C8  UNL     1      22.137   1.509  50.557  1.00  0.00     0.045 C 
HETATM    7  C9  UNL     1      21.709   0.950  51.878  1.00  0.00    -0.019 C 
HETATM    8  C10 UNL     1      22.577   1.376  52.797  1.00  0.00    -0.004 C 
HETATM    9  C11 UNL     1      23.793   2.204  52.852  1.00  0.00     0.202 C 
HETATM   10  O1  UNL     1      24.081   2.631  51.521  1.00  0.00    -0.349 OA
HETATM   11  C12 UNL     1      25.413   2.746  51.102  1.00  0.00     0.076 C 
HETATM   12  C14 UNL     1      25.647   3.242  49.911  1.00  0.00     0.131 C 
ENDROOT
BRANCH   1  13
HETATM   13  C4  UNL     1      24.117   4.873  49.855  1.00  0.00     0.137 A 
HETATM   14  C3  UNL     1      22.945   5.550  50.185  1.00  0.00     0.077 A 
HETATM   15  C2  UNL     1      22.876   6.809  50.673  1.00  0.00     0.035 A 
HETATM   16  C1  UNL     1      21.509   7.279  50.936  1.00  0.00     0.070 C 
HETATM   17  N3  UNL     1      24.018   7.482  50.862  1.00  0.00    -0.247 NA
HETATM   18  C15 UNL     1      25.170   6.892  50.567  1.00  0.00     0.235 A 
HETATM   19  N2  UNL     1      25.227   5.645  50.084  1.00  0.00    -0.224 NA
ENDBRANCH   1  13
BRANCH  11  20
HETATM   20  C13 UNL     1      26.590   2.355  51.889  1.00  0.00     0.180 C 
HETATM   21 CL1  UNL     1      26.790   0.576  51.900  1.00  0.00    -0.123 Cl
ENDBRANCH  11  20
TORSDOF 2
ENDMDL
MODEL 5
REMARK VINA RESULT:      -6.4      3.077      4.248
REMARK  2 active torsions:
REMARK  status: ('A' for Active; 'I' for Inactive)
REMARK    1  A    between atoms: C4_4  and  N1_5 
REMARK    2  A    between atoms: C12_15  and  C13_16 
ROOT
HETATM    1  N1  UNL     1      23.329   5.096  51.414  1.00  0.00    -0.312 N 
HETATM    2  C5  UNL     1      23.503   3.879  52.135  1.00  0.00     0.140 C 
HETATM    3  C6  UNL     1      23.428   2.587  52.041  1.00  0.00     0.129 C 
HETATM    4  F1  UNL     1      23.816   2.296  53.334  1.00  0.00    -0.205 F 
HETATM    5  C7  UNL     1      23.047   1.576  51.092  1.00  0.00     0.026 C 
HETATM    6  C8  UNL     1      22.624   2.234  49.976  1.00  0.00     0.045 C 
HETATM    7  C9  UNL     1      22.119   1.717  48.665  1.00  0.00    -0.019 C 
HETATM    8  C10 UNL     1      21.805   2.771  47.910  1.00  0.00    -0.004 C 
HETATM    9  C11 UNL     1      21.815   4.239  48.022  1.00  0.00     0.202 C 
HETATM   10  O1  UNL     1      22.289   4.565  49.328  1.00  0.00    -0.349 OA
HETATM   11  C12 UNL     1      21.755   5.669  50.005  1.00  0.00     0.076 C 
HETATM   12  C14 UNL     1      22.285   6.007  51.156  1.00  0.00     0.131 C 
ENDROOT
BRANCH   1  13
HETATM   13  C4  UNL     1      24.451   5.678  50.703  1.00  0.00     0.137 A 
HETATM   14  C3  UNL     1      25.481   5.147  49.931  1.00  0.00     0.077 A 
HETATM   15  C2  UNL     1      26.458   5.860  49.327  1.00  0.00     0.035 A 
HETATM   16  C1  UNL     1      27.421   5.046  48.571  1.00  0.00     0.070 C 
HETATM   17  N3  UNL     1      26.456   7.192  49.470  1.00  0.00    -0.247 NA
HETATM   18  C15 UNL     1      25.500   7.760  50.195  1.00  0.00     0.235 A 
HETATM   19  N2  UNL     1      24.537   7.044  50.788  1.00  0.00    -0.224 NA
ENDBRANCH   1  13
BRANCH  11  20
HETATM   20  C13 UNL     1      20.636   6.496  49.534  1.00  0.00     0.180 C 
HETATM   21 CL1  UNL     1      20.966   8.235  49.807  1.00  0.00    -0.123 Cl
ENDBRANCH  11  20
TORSDOF 2
ENDMDL
MODEL 6
REMARK VINA RESULT:      -6.2      4.072      6.305
REMARK  2 active torsions:
REMARK  status: ('A' for Active; 'I' for Inactive)
REMARK    1  A    between atoms: C4_4  and  N1_5 
REMARK    2  A    between atoms: C12_15  and  C13_16 
ROOT
HETATM    1  N1  UNL     1      23.233   5.834  51.175  1.00  0.00    -0.312 N 
HETATM    2  C5  UNL     1      23.887   7.010  50.705  1.00  0.00     0.140 C 
HETATM    3  C6  UNL     1      24.905   7.441  50.026  1.00  0.00     0.129 C 
HETATM    4  F1  UNL     1      24.634   8.790  50.143  1.00  0.00    -0.205 F 
HETATM    5  C7  UNL     1      26.070   6.932  49.353  1.00  0.00     0.026 C 
HETATM    6  C8  UNL     1      26.061   5.582  49.535  1.00  0.00     0.045 C 
HETATM    7  C9  UNL     1      27.008   4.523  49.061  1.00  0.00    -0.019 C 
HETATM    8  C10 UNL     1      26.571   3.353  49.531  1.00  0.00    -0.004 C 
HETATM    9  C11 UNL     1      25.463   2.852  50.360  1.00  0.00     0.202 C 
HETATM   10  O1  UNL     1      24.677   3.977  50.751  1.00  0.00    -0.349 OA
HETATM   11  C12 UNL     1      24.089   4.006  52.022  1.00  0.00     0.076 C 
HETATM   12  C14 UNL     1      23.288   5.003  52.311  1.00  0.00     0.131 C 
ENDROOT
BRANCH   1  13
HETATM   13  C4  UNL     1      22.201   5.212  50.367  1.00  0.00     0.137 A 
HETATM   14  C3  UNL     1      22.140   4.792  49.041  1.00  0.00     0.077 A 
HETATM   15  C2  UNL     1      21.072   4.213  48.448  1.00  0.00     0.035 A 
HETATM   16  C1  UNL     1      21.279   3.867  47.035  1.00  0.00     0.070 C 
HETATM   17  N3  UNL     1      19.966   4.019  49.179  1.00  0.00    -0.247 NA
HETATM   18  C15 UNL     1      19.960   4.399  50.451  1.00  0.00     0.235 A 
HETATM   19  N2  UNL     1      21.024   4.970  51.027  1.00  0.00    -0.224 NA
ENDBRANCH   1  13
BRANCH  11  20
HETATM   20  C13 UNL     1      24.293   3.004  53.076  1.00  0.00     0.180 C 
HETATM   21 CL1  UNL     1      23.136   1.649  52.903  1.00  0.00    -0.123 Cl
ENDBRANCH  11  20
TORSDOF 2
ENDMDL
MODEL 7
REMARK VINA RESULT:      -5.9      9.982     11.803
REMARK  2 active torsions:
REMARK  status: ('A' for Active; 'I' for Inactive)
REMARK    1  A    between atoms: C4_4  and  N1_5 
REMARK    2  A    between atoms: C12_15  and  C13_16 
ROOT
HETATM    1  N1  UNL     1      32.484   7.027  47.987  1.00  0.00    -0.312 N 
HETATM    2  C5  UNL     1      33.207   8.218  47.689  1.00  0.00     0.140 C 
HETATM    3  C6  UNL     1      33.858   8.842  46.756  1.00  0.00     0.129 C 
HETATM    4  F1  UNL     1      34.175   9.969  47.489  1.00  0.00    -0.205 F 
HETATM    5  C7  UNL     1      34.295   8.640  45.401  1.00  0.00     0.026 C 
HETATM    6  C8  UNL     1      33.894   7.387  45.048  1.00  0.00     0.045 C 
HETATM    7  C9  UNL     1      34.054   6.631  43.766  1.00  0.00    -0.019 C 
HETATM    8  C10 UNL     1      33.508   5.425  43.939  1.00  0.00    -0.004 C 
HETATM    9  C11 UNL     1      32.831   4.674  45.008  1.00  0.00     0.202 C 
HETATM   10  O1  UNL     1      32.784   5.515  46.159  1.00  0.00    -0.349 OA
HETATM   11  C12 UNL     1      32.924   4.954  47.435  1.00  0.00     0.076 C 
HETATM   12  C14 UNL     1      32.770   5.737  48.477  1.00  0.00     0.131 C 
ENDROOT
BRANCH   1  13
HETATM   13  C4  UNL     1      31.049   6.985  47.782  1.00  0.00     0.137 A 
HETATM   14  C3  UNL     1      30.035   6.147  48.240  1.00  0.00     0.077 A 
HETATM   15  C2  UNL     1      28.722   6.267  47.942  1.00  0.00     0.035 A 
HETATM   16  C1  UNL     1      27.867   5.245  48.561  1.00  0.00     0.070 C 
HETATM   17  N3  UNL     1      28.340   7.269  47.140  1.00  0.00    -0.247 NA
HETATM   18  C15 UNL     1      29.259   8.104  46.669  1.00  0.00     0.235 A 
HETATM   19  N2  UNL     1      30.557   7.975  46.971  1.00  0.00    -0.224 NA
ENDBRANCH   1  13
BRANCH  11  20
HETATM   20  C13 UNL     1      33.231   3.546  47.717  1.00  0.00     0.180 C 
HETATM   21 CL1  UNL     1      34.986   3.230  47.558  1.00  0.00    -0.123 Cl
ENDBRANCH  11  20
TORSDOF 2
ENDMDL
MODEL 8
REMARK VINA RESULT:      -5.9      2.725      4.230
REMARK  2 active torsions:
REMARK  status: ('A' for Active; 'I' for Inactive)
REMARK    1  A    between atoms: C4_4  and  N1_5 
REMARK    2  A    between atoms: C12_15  and  C13_16 
ROOT
HETATM    1  N1  UNL     1      21.479   1.493  50.187  1.00  0.00    -0.312 N 
HETATM    2  C5  UNL     1      22.104   1.685  48.921  1.00  0.00     0.140 C 
HETATM    3  C6  UNL     1      22.727   2.550  48.182  1.00  0.00     0.129 C 
HETATM    4  F1  UNL     1      22.937   1.729  47.091  1.00  0.00    -0.205 F 
HETATM    5  C7  UNL     1      23.126   3.932  48.209  1.00  0.00     0.026 C 
HETATM    6  C8  UNL     1      22.662   4.444  49.383  1.00  0.00     0.045 C 
HETATM    7  C9  UNL     1      22.777   5.818  49.966  1.00  0.00    -0.019 C 
HETATM    8  C10 UNL     1      22.126   5.817  51.131  1.00  0.00    -0.004 C 
HETATM    9  C11 UNL     1      21.354   4.870  51.952  1.00  0.00     0.202 C 
HETATM   10  O1  UNL     1      21.314   3.629  51.250  1.00  0.00    -0.349 OA
HETATM   11  C12 UNL     1      20.162   2.834  51.309  1.00  0.00     0.076 C 
HETATM   12  C14 UNL     1      20.194   1.652  50.743  1.00  0.00     0.131 C 
ENDROOT
BRANCH   1  13
HETATM   13  C4  UNL     1      22.258   1.000  51.307  1.00  0.00     0.137 A 
HETATM   14  C3  UNL     1      23.483   1.362  51.861  1.00  0.00     0.077 A 
HETATM   15  C2  UNL     1      24.063   0.779  52.935  1.00  0.00     0.035 A 
HETATM   16  C1  UNL     1      25.360   1.360  53.309  1.00  0.00     0.070 C 
HETATM   17  N3  UNL     1      23.423  -0.234  53.532  1.00  0.00    -0.247 NA
HETATM   18  C15 UNL     1      22.249  -0.628  53.052  1.00  0.00     0.235 A 
HETATM   19  N2  UNL     1      21.685  -0.043  51.988  1.00  0.00    -0.224 NA
ENDBRANCH   1  13
BRANCH  11  20
HETATM   20  C13 UNL     1      18.900   3.212  51.960  1.00  0.00     0.180 C 
HETATM   21 CL1  UNL     1      17.812   4.047  50.810  1.00  0.00    -0.123 Cl
ENDBRANCH  11  20
TORSDOF 2
ENDMDL
MODEL 9
REMARK VINA RESULT:      -5.8      9.962     11.923
REMARK  2 active torsions:
REMARK  status: ('A' for Active; 'I' for Inactive)
REMARK    1  A    between atoms: C4_4  and  N1_5 
REMARK    2  A    between atoms: C12_15  and  C13_16 
ROOT
HETATM    1  N1  UNL     1      32.723   7.262  47.430  1.00  0.00    -0.312 N 
HETATM    2  C5  UNL     1      34.017   7.260  48.027  1.00  0.00     0.140 C 
HETATM    3  C6  UNL     1      35.005   6.496  48.379  1.00  0.00     0.129 C 
HETATM    4  F1  UNL     1      35.821   7.490  48.883  1.00  0.00    -0.205 F 
HETATM    5  C7  UNL     1      35.358   5.102  48.414  1.00  0.00     0.026 C 
HETATM    6  C8  UNL     1      34.278   4.420  47.940  1.00  0.00     0.045 C 
HETATM    7  C9  UNL     1      34.057   2.953  47.735  1.00  0.00    -0.019 C 
HETATM    8  C10 UNL     1      32.816   2.793  47.271  1.00  0.00    -0.004 C 
HETATM    9  C11 UNL     1      31.658   3.636  46.933  1.00  0.00     0.202 C 
HETATM   10  O1  UNL     1      32.017   4.989  47.210  1.00  0.00    -0.349 OA
HETATM   11  C12 UNL     1      31.054   5.873  47.712  1.00  0.00     0.076 C 
HETATM   12  C14 UNL     1      31.386   7.134  47.855  1.00  0.00     0.131 C 
ENDROOT
BRANCH   1  13
HETATM   13  C4  UNL     1      32.592   7.438  45.996  1.00  0.00     0.137 A 
HETATM   14  C3  UNL     1      33.228   6.872  44.894  1.00  0.00     0.077 A 
HETATM   15  C2  UNL     1      32.965   7.160  43.600  1.00  0.00     0.035 A 
HETATM   16  C1  UNL     1      33.786   6.414  42.637  1.00  0.00     0.070 C 
HETATM   17  N3  UNL     1      32.015   8.064  43.330  1.00  0.00    -0.247 NA
HETATM   18  C15 UNL     1      31.370   8.642  44.337  1.00  0.00     0.235 A 
HETATM   19  N2  UNL     1      31.640   8.348  45.615  1.00  0.00    -0.224 NA
ENDBRANCH   1  13
BRANCH  11  20
HETATM   20  C13 UNL     1      29.684   5.511  48.099  1.00  0.00     0.180 C 
HETATM   21 CL1  UNL     1      28.520   6.770  47.586  1.00  0.00    -0.123 Cl
ENDBRANCH  11  20
TORSDOF 2
ENDMDL
