MODEL 1
REMARK VINA RESULT:      -6.8      0.000      0.000
REMARK  7 active torsions:
REMARK  status: ('A' for Active; 'I' for Inactive)
REMARK       I    between atoms: N1_2  and  C2_3 
REMARK    1  A    between atoms: N1_2  and  C11_16 
REMARK    2  A    between atoms: C2_3  and  C3_5 
REMARK    3  A    between atoms: C4_6  and  N2_7 
REMARK    4  A    between atoms: N2_7  and  C5_8 
REMARK    5  A    between atoms: N2_7  and  C7_11 
REMARK    6  A    between atoms: C5_8  and  C6_9 
REMARK    7  A    between atoms: C7_11  and  C8_12 
ROOT
HETATM    1  C3  UNL     1      23.347  -0.509  54.048  1.00  0.00     0.059 A 
HETATM    2  C4  UNL     1      22.293   0.010  53.456  1.00  0.00     0.046 A 
HETATM    3  C9  UNL     1      21.479  -0.764  54.414  1.00  0.00     0.031 A 
HETATM    4  C10 UNL     1      22.557  -1.271  54.993  1.00  0.00     0.022 A 
ENDROOT
BRANCH   1   5
HETATM    5  C2  UNL     1      24.766  -0.341  53.804  1.00  0.00     0.260 C 
HETATM    6  N1  UNL     1      25.444   0.461  52.858  1.00  0.00    -0.318 N 
HETATM    7  C1  UNL     1      25.428   1.428  51.768  1.00  0.00     0.159 C 
HETATM    8  O1  UNL     1      25.595  -0.971  54.496  1.00  0.00    -0.267 OA
BRANCH   6   9
HETATM    9  C11 UNL     1      26.762   0.034  53.264  1.00  0.00     0.037 A 
HETATM   10  C12 UNL     1      27.460   0.744  54.215  1.00  0.00     0.029 A 
HETATM   11  C13 UNL     1      28.726   0.445  54.687  1.00  0.00     0.002 A 
HETATM   12  C14 UNL     1      29.290  -0.681  54.115  1.00  0.00     0.000 A 
HETATM   13  C15 UNL     1      28.667  -1.436  53.172  1.00  0.00     0.002 A 
HETATM   14  C16 UNL     1      27.386  -1.096  52.723  1.00  0.00     0.029 A 
ENDBRANCH   6   9
ENDBRANCH   1   5
BRANCH   2  15
HETATM   15  N2  UNL     1      21.739   0.869  52.437  1.00  0.00    -0.378 N 
BRANCH  15  16
HETATM   16  C5  UNL     1      21.333   0.256  51.190  1.00  0.00     0.138 C 
BRANCH  16  17
HETATM   17  C6  UNL     1      19.901   0.595  50.833  1.00  0.00     0.134 C 
HETATM   18 CL1  UNL     1      18.821  -0.216  52.019  1.00  0.00    -0.129 Cl
ENDBRANCH  16  17
ENDBRANCH  15  16
BRANCH  15  19
HETATM   19  C7  UNL     1      21.667   2.254  52.780  1.00  0.00     0.138 C 
BRANCH  19  20
HETATM   20  C8  UNL     1      22.338   3.186  51.804  1.00  0.00     0.134 C 
HETATM   21 CL2  UNL     1      23.348   4.347  52.644  1.00  0.00    -0.129 Cl
ENDBRANCH  19  20
ENDBRANCH  15  19
ENDBRANCH   2  15
TORSDOF 7
ENDMDL
MODEL 2
REMARK VINA RESULT:      -6.7      0.060      2.449
REMARK  7 active torsions:
REMARK  status: ('A' for Active; 'I' for Inactive)
REMARK       I    between atoms: N1_2  and  C2_3 
REMARK    1  A    between atoms: N1_2  and  C11_16 
REMARK    2  A    between atoms: C2_3  and  C3_5 
REMARK    3  A    between atoms: C4_6  and  N2_7 
REMARK    4  A    between atoms: N2_7  and  C5_8 
REMARK    5  A    between atoms: N2_7  and  C7_11 
REMARK    6  A    between atoms: C5_8  and  C6_9 
REMARK    7  A    between atoms: C7_11  and  C8_12 
ROOT
HETATM    1  C3  UNL     1      23.368  -0.510  54.056  1.00  0.00     0.059 A 
HETATM    2  C4  UNL     1      22.314   0.028  53.481  1.00  0.00     0.046 A 
HETATM    3  C9  UNL     1      21.500  -0.766  54.423  1.00  0.00     0.031 A 
HETATM    4  C10 UNL     1      22.578  -1.292  54.985  1.00  0.00     0.022 A 
ENDROOT
BRANCH   1   5
HETATM    5  C2  UNL     1      24.786  -0.342  53.810  1.00  0.00     0.260 C 
HETATM    6  N1  UNL     1      25.464   0.461  52.864  1.00  0.00    -0.318 N 
HETATM    7  C1  UNL     1      25.446   1.431  51.776  1.00  0.00     0.159 C 
HETATM    8  O1  UNL     1      25.617  -0.973  54.500  1.00  0.00    -0.267 OA
BRANCH   6   9
HETATM    9  C11 UNL     1      26.782   0.034  53.267  1.00  0.00     0.037 A 
HETATM   10  C12 UNL     1      27.490   0.755  54.203  1.00  0.00     0.029 A 
HETATM   11  C13 UNL     1      28.758   0.457  54.671  1.00  0.00     0.002 A 
HETATM   12  C14 UNL     1      29.312  -0.681  54.112  1.00  0.00     0.000 A 
HETATM   13  C15 UNL     1      28.678  -1.448  53.185  1.00  0.00     0.002 A 
HETATM   14  C16 UNL     1      27.396  -1.107  52.740  1.00  0.00     0.029 A 
ENDBRANCH   6   9
ENDBRANCH   1   5
BRANCH   2  15
HETATM   15  N2  UNL     1      21.759   0.914  52.486  1.00  0.00    -0.378 N 
BRANCH  15  16
HETATM   16  C5  UNL     1      21.704   2.326  52.801  1.00  0.00     0.138 C 
BRANCH  16  17
HETATM   17  C6  UNL     1      22.386   3.169  51.743  1.00  0.00     0.134 C 
HETATM   18 CL1  UNL     1      23.339   4.446  52.573  1.00  0.00    -0.129 Cl
ENDBRANCH  16  17
ENDBRANCH  15  16
BRANCH  15  19
HETATM   19  C7  UNL     1      21.308   0.280  51.288  1.00  0.00     0.138 C 
BRANCH  19  20
HETATM   20  C8  UNL     1      19.885   0.592  50.902  1.00  0.00     0.134 C 
HETATM   21 CL2  UNL     1      18.757  -0.278  51.923  1.00  0.00    -0.129 Cl
ENDBRANCH  19  20
ENDBRANCH  15  19
ENDBRANCH   2  15
TORSDOF 7
ENDMDL
MODEL 3
REMARK VINA RESULT:      -6.6      1.312      1.314
REMARK  7 active torsions:
REMARK  status: ('A' for Active; 'I' for Inactive)
REMARK       I    between atoms: N1_2  and  C2_3 
REMARK    1  A    between atoms: N1_2  and  C11_16 
REMARK    2  A    between atoms: C2_3  and  C3_5 
REMARK    3  A    between atoms: C4_6  and  N2_7 
REMARK    4  A    between atoms: N2_7  and  C5_8 
REMARK    5  A    between atoms: N2_7  and  C7_11 
REMARK    6  A    between atoms: C5_8  and  C6_9 
REMARK    7  A    between atoms: C7_11  and  C8_12 
ROOT
HETATM    1  C3  UNL     1      23.450  -0.205  53.638  1.00  0.00     0.059 A 
HETATM    2  C4  UNL     1      22.477   0.437  53.028  1.00  0.00     0.046 A 
HETATM    3  C9  UNL     1      21.547  -0.374  53.839  1.00  0.00     0.031 A 
HETATM    4  C10 UNL     1      22.546  -1.005  54.438  1.00  0.00     0.022 A 
ENDROOT
BRANCH   1   5
HETATM    5  C2  UNL     1      24.891  -0.106  53.515  1.00  0.00     0.260 C 
HETATM    6  N1  UNL     1      25.686   0.717  52.684  1.00  0.00    -0.318 N 
HETATM    7  C1  UNL     1      25.809   1.756  51.669  1.00  0.00     0.159 C 
HETATM    8  O1  UNL     1      25.627  -0.829  54.221  1.00  0.00    -0.267 OA
BRANCH   6   9
HETATM    9  C11 UNL     1      26.941   0.186  53.157  1.00  0.00     0.037 A 
HETATM   10  C12 UNL     1      27.642   0.838  54.147  1.00  0.00     0.029 A 
HETATM   11  C13 UNL     1      28.854   0.439  54.684  1.00  0.00     0.002 A 
HETATM   12  C14 UNL     1      29.356  -0.729  54.138  1.00  0.00     0.000 A 
HETATM   13  C15 UNL     1      28.725  -1.432  53.160  1.00  0.00     0.002 A 
HETATM   14  C16 UNL     1      27.501  -0.990  52.646  1.00  0.00     0.029 A 
ENDBRANCH   6   9
ENDBRANCH   1   5
BRANCH   2  15
HETATM   15  N2  UNL     1      22.054   1.427  52.067  1.00  0.00    -0.378 N 
BRANCH  15  16
HETATM   16  C5  UNL     1      22.466   1.246  50.690  1.00  0.00     0.138 C 
BRANCH  16  17
HETATM   17  C6  UNL     1      21.294   0.926  49.787  1.00  0.00     0.134 C 
HETATM   18 CL1  UNL     1      21.749   1.362  48.104  1.00  0.00    -0.129 Cl
ENDBRANCH  16  17
ENDBRANCH  15  16
BRANCH  15  19
HETATM   19  C7  UNL     1      21.274   2.499  52.599  1.00  0.00     0.138 C 
BRANCH  19  20
HETATM   20  C8  UNL     1      21.690   3.874  52.141  1.00  0.00     0.134 C 
HETATM   21 CL2  UNL     1      23.303   4.259  52.709  1.00  0.00    -0.129 Cl
ENDBRANCH  19  20
ENDBRANCH  15  19
ENDBRANCH   2  15
TORSDOF 7
ENDMDL
MODEL 4
REMARK VINA RESULT:      -6.5      2.739      3.918
REMARK  7 active torsions:
REMARK  status: ('A' for Active; 'I' for Inactive)
REMARK       I    between atoms: N1_2  and  C2_3 
REMARK    1  A    between atoms: N1_2  and  C11_16 
REMARK    2  A    between atoms: C2_3  and  C3_5 
REMARK    3  A    between atoms: C4_6  and  N2_7 
REMARK    4  A    between atoms: N2_7  and  C5_8 
REMARK    5  A    between atoms: N2_7  and  C7_11 
REMARK    6  A    between atoms: C5_8  and  C6_9 
REMARK    7  A    between atoms: C7_11  and  C8_12 
ROOT
HETATM    1  C3  UNL     1      23.846   1.050  52.172  1.00  0.00     0.059 A 
HETATM    2  C4  UNL     1      23.651   2.178  51.523  1.00  0.00     0.046 A 
HETATM    3  C9  UNL     1      22.253   1.735  51.345  1.00  0.00     0.031 A 
HETATM    4  C10 UNL     1      22.477   0.608  52.002  1.00  0.00     0.022 A 
ENDROOT
BRANCH   1   5
HETATM    5  C2  UNL     1      25.026   0.501  52.808  1.00  0.00     0.260 C 
HETATM    6  N1  UNL     1      25.152  -0.324  53.950  1.00  0.00    -0.318 N 
HETATM    7  C1  UNL     1      24.555  -1.075  55.047  1.00  0.00     0.159 C 
HETATM    8  O1  UNL     1      26.158   0.746  52.337  1.00  0.00    -0.267 OA
BRANCH   6   9
HETATM    9  C11 UNL     1      26.594  -0.375  53.900  1.00  0.00     0.037 A 
HETATM   10  C12 UNL     1      27.228  -1.325  53.131  1.00  0.00     0.029 A 
HETATM   11  C13 UNL     1      28.597  -1.485  53.000  1.00  0.00     0.002 A 
HETATM   12  C14 UNL     1      29.343  -0.577  53.731  1.00  0.00     0.000 A 
HETATM   13  C15 UNL     1      28.793   0.390  54.513  1.00  0.00     0.002 A 
HETATM   14  C16 UNL     1      27.403   0.514  54.616  1.00  0.00     0.029 A 
ENDBRANCH   6   9
ENDBRANCH   1   5
BRANCH   2  15
HETATM   15  N2  UNL     1      24.170   3.427  51.020  1.00  0.00    -0.378 N 
BRANCH  15  16
HETATM   16  C5  UNL     1      24.970   3.385  49.813  1.00  0.00     0.138 C 
BRANCH  16  17
HETATM   17  C6  UNL     1      26.453   3.397  50.117  1.00  0.00     0.134 C 
HETATM   18 CL1  UNL     1      27.263   4.457  48.912  1.00  0.00    -0.129 Cl
ENDBRANCH  16  17
ENDBRANCH  15  16
BRANCH  15  19
HETATM   19  C7  UNL     1      23.840   4.581  51.795  1.00  0.00     0.138 C 
BRANCH  19  20
HETATM   20  C8  UNL     1      23.241   5.721  51.011  1.00  0.00     0.134 C 
HETATM   21 CL2  UNL     1      24.298   7.119  51.039  1.00  0.00    -0.129 Cl
ENDBRANCH  19  20
ENDBRANCH  15  19
ENDBRANCH   2  15
TORSDOF 7
ENDMDL
MODEL 5
REMARK VINA RESULT:      -6.5      3.468      5.606
REMARK  7 active torsions:
REMARK  status: ('A' for Active; 'I' for Inactive)
REMARK       I    between atoms: N1_2  and  C2_3 
REMARK    1  A    between atoms: N1_2  and  C11_16 
REMARK    2  A    between atoms: C2_3  and  C3_5 
REMARK    3  A    between atoms: C4_6  and  N2_7 
REMARK    4  A    between atoms: N2_7  and  C5_8 
REMARK    5  A    between atoms: N2_7  and  C7_11 
REMARK    6  A    between atoms: C5_8  and  C6_9 
REMARK    7  A    between atoms: C7_11  and  C8_12 
ROOT
HETATM    1  C3  UNL     1      26.187   3.878  50.173  1.00  0.00     0.059 A 
HETATM    2  C4  UNL     1      25.335   4.870  50.031  1.00  0.00     0.046 A 
HETATM    3  C9  UNL     1      26.212   5.357  48.947  1.00  0.00     0.031 A 
HETATM    4  C10 UNL     1      27.054   4.348  49.112  1.00  0.00     0.022 A 
ENDROOT
BRANCH   1   5
HETATM    5  C2  UNL     1      26.203   2.749  51.081  1.00  0.00     0.260 C 
HETATM    6  N1  UNL     1      25.150   1.918  51.529  1.00  0.00    -0.318 N 
HETATM    7  C1  UNL     1      23.743   1.537  51.525  1.00  0.00     0.159 C 
HETATM    8  O1  UNL     1      27.280   2.382  51.599  1.00  0.00    -0.267 OA
BRANCH   6   9
HETATM    9  C11 UNL     1      25.990   1.111  52.380  1.00  0.00     0.037 A 
HETATM   10  C12 UNL     1      26.170   1.450  53.702  1.00  0.00     0.029 A 
HETATM   11  C13 UNL     1      26.949   0.766  54.620  1.00  0.00     0.002 A 
HETATM   12  C14 UNL     1      27.578  -0.352  54.103  1.00  0.00     0.000 A 
HETATM   13  C15 UNL     1      27.451  -0.755  52.811  1.00  0.00     0.002 A 
HETATM   14  C16 UNL     1      26.652  -0.032  51.918  1.00  0.00     0.029 A 
ENDBRANCH   6   9
ENDBRANCH   1   5
BRANCH   2  15
HETATM   15  N2  UNL     1      24.120   5.532  50.442  1.00  0.00    -0.378 N 
BRANCH  15  16
HETATM   16  C5  UNL     1      24.247   6.756  51.205  1.00  0.00     0.138 C 
BRANCH  16  17
HETATM   17  C6  UNL     1      23.927   7.979  50.371  1.00  0.00     0.134 C 
HETATM   18 CL1  UNL     1      25.468   8.830  50.013  1.00  0.00    -0.129 Cl
ENDBRANCH  16  17
ENDBRANCH  15  16
BRANCH  15  19
HETATM   19  C7  UNL     1      22.909   4.882  50.051  1.00  0.00     0.138 C 
BRANCH  19  20
HETATM   20  C8  UNL     1      22.801   4.574  48.579  1.00  0.00     0.134 C 
HETATM   21 CL2  UNL     1      22.922   2.849  48.293  1.00  0.00    -0.129 Cl
ENDBRANCH  19  20
ENDBRANCH  15  19
ENDBRANCH   2  15
TORSDOF 7
ENDMDL
MODEL 6
REMARK VINA RESULT:      -6.5      3.462      5.171
REMARK  7 active torsions:
REMARK  status: ('A' for Active; 'I' for Inactive)
REMARK       I    between atoms: N1_2  and  C2_3 
REMARK    1  A    between atoms: N1_2  and  C11_16 
REMARK    2  A    between atoms: C2_3  and  C3_5 
REMARK    3  A    between atoms: C4_6  and  N2_7 
REMARK    4  A    between atoms: N2_7  and  C5_8 
REMARK    5  A    between atoms: N2_7  and  C7_11 
REMARK    6  A    between atoms: C5_8  and  C6_9 
REMARK    7  A    between atoms: C7_11  and  C8_12 
ROOT
HETATM    1  C3  UNL     1      26.205   3.875  50.190  1.00  0.00     0.059 A 
HETATM    2  C4  UNL     1      25.340   4.854  50.030  1.00  0.00     0.046 A 
HETATM    3  C9  UNL     1      26.214   5.334  48.941  1.00  0.00     0.031 A 
HETATM    4  C10 UNL     1      27.068   4.339  49.123  1.00  0.00     0.022 A 
ENDROOT
BRANCH   1   5
HETATM    5  C2  UNL     1      26.232   2.761  51.116  1.00  0.00     0.260 C 
HETATM    6  N1  UNL     1      25.189   1.925  51.576  1.00  0.00    -0.318 N 
HETATM    7  C1  UNL     1      23.787   1.527  51.578  1.00  0.00     0.159 C 
HETATM    8  O1  UNL     1      27.313   2.414  51.640  1.00  0.00    -0.267 OA
BRANCH   6   9
HETATM    9  C11 UNL     1      26.037   1.140  52.441  1.00  0.00     0.037 A 
HETATM   10  C12 UNL     1      26.617  -0.020  51.978  1.00  0.00     0.029 A 
HETATM   11  C13 UNL     1      27.443  -0.862  52.703  1.00  0.00     0.002 A 
HETATM   12  C14 UNL     1      27.672  -0.446  54.002  1.00  0.00     0.000 A 
HETATM   13  C15 UNL     1      27.139   0.687  54.533  1.00  0.00     0.002 A 
HETATM   14  C16 UNL     1      26.308   1.507  53.763  1.00  0.00     0.029 A 
ENDBRANCH   6   9
ENDBRANCH   1   5
BRANCH   2  15
HETATM   15  N2  UNL     1      24.115   5.506  50.428  1.00  0.00    -0.378 N 
BRANCH  15  16
HETATM   16  C5  UNL     1      22.866   4.879  50.048  1.00  0.00     0.138 C 
BRANCH  16  17
HETATM   17  C6  UNL     1      22.808   4.590  48.562  1.00  0.00     0.134 C 
HETATM   18 CL1  UNL     1      22.941   2.812  48.333  1.00  0.00    -0.129 Cl
ENDBRANCH  16  17
ENDBRANCH  15  16
BRANCH  15  19
HETATM   19  C7  UNL     1      24.282   6.725  51.153  1.00  0.00     0.138 C 
BRANCH  19  20
HETATM   20  C8  UNL     1      23.959   7.976  50.376  1.00  0.00     0.134 C 
HETATM   21 CL2  UNL     1      25.423   8.839  49.949  1.00  0.00    -0.129 Cl
ENDBRANCH  19  20
ENDBRANCH  15  19
ENDBRANCH   2  15
TORSDOF 7
ENDMDL
MODEL 7
REMARK VINA RESULT:      -6.5      1.584      2.156
REMARK  7 active torsions:
REMARK  status: ('A' for Active; 'I' for Inactive)
REMARK       I    between atoms: N1_2  and  C2_3 
REMARK    1  A    between atoms: N1_2  and  C11_16 
REMARK    2  A    between atoms: C2_3  and  C3_5 
REMARK    3  A    between atoms: C4_6  and  N2_7 
REMARK    4  A    between atoms: N2_7  and  C5_8 
REMARK    5  A    between atoms: N2_7  and  C7_11 
REMARK    6  A    between atoms: C5_8  and  C6_9 
REMARK    7  A    between atoms: C7_11  and  C8_12 
ROOT
HETATM    1  C3  UNL     1      22.550  -0.117  53.771  1.00  0.00     0.059 A 
HETATM    2  C4  UNL     1      21.523   0.304  53.065  1.00  0.00     0.046 A 
HETATM    3  C9  UNL     1      20.667  -0.296  54.109  1.00  0.00     0.031 A 
HETATM    4  C10 UNL     1      21.719  -0.708  54.800  1.00  0.00     0.022 A 
ENDROOT
BRANCH   1   5
HETATM    5  C2  UNL     1      23.977  -0.002  53.551  1.00  0.00     0.260 C 
HETATM    6  N1  UNL     1      24.704   0.812  52.652  1.00  0.00    -0.318 N 
HETATM    7  C1  UNL     1      24.746   1.829  51.609  1.00  0.00     0.159 C 
HETATM    8  O1  UNL     1      24.769  -0.700  54.223  1.00  0.00    -0.267 OA
BRANCH   6   9
HETATM    9  C11 UNL     1      25.996   0.308  53.053  1.00  0.00     0.037 A 
HETATM   10  C12 UNL     1      26.697   0.923  54.067  1.00  0.00     0.029 A 
HETATM   11  C13 UNL     1      27.941   0.544  54.542  1.00  0.00     0.002 A 
HETATM   12  C14 UNL     1      28.476  -0.559  53.903  1.00  0.00     0.000 A 
HETATM   13  C15 UNL     1      27.848  -1.223  52.895  1.00  0.00     0.002 A 
HETATM   14  C16 UNL     1      26.591  -0.803  52.446  1.00  0.00     0.029 A 
ENDBRANCH   6   9
ENDBRANCH   1   5
BRANCH   2  15
HETATM   15  N2  UNL     1      21.013   0.986  51.900  1.00  0.00    -0.378 N 
BRANCH  15  16
HETATM   16  C5  UNL     1      20.230   2.185  52.113  1.00  0.00     0.138 C 
BRANCH  16  17
HETATM   17  C6  UNL     1      21.104   3.392  52.383  1.00  0.00     0.134 C 
HETATM   18 CL1  UNL     1      20.739   4.637  51.138  1.00  0.00    -0.129 Cl
ENDBRANCH  16  17
ENDBRANCH  15  16
BRANCH  15  19
HETATM   19  C7  UNL     1      21.337   0.380  50.647  1.00  0.00     0.138 C 
BRANCH  19  20
HETATM   20  C8  UNL     1      20.954   1.187  49.433  1.00  0.00     0.134 C 
HETATM   21 CL2  UNL     1      22.325   2.098  48.832  1.00  0.00    -0.129 Cl
ENDBRANCH  19  20
ENDBRANCH  15  19
ENDBRANCH   2  15
TORSDOF 7
ENDMDL
MODEL 8
REMARK VINA RESULT:      -6.4      2.741      3.809
REMARK  7 active torsions:
REMARK  status: ('A' for Active; 'I' for Inactive)
REMARK       I    between atoms: N1_2  and  C2_3 
REMARK    1  A    between atoms: N1_2  and  C11_16 
REMARK    2  A    between atoms: C2_3  and  C3_5 
REMARK    3  A    between atoms: C4_6  and  N2_7 
REMARK    4  A    between atoms: N2_7  and  C5_8 
REMARK    5  A    between atoms: N2_7  and  C7_11 
REMARK    6  A    between atoms: C5_8  and  C6_9 
REMARK    7  A    between atoms: C7_11  and  C8_12 
ROOT
HETATM    1  C3  UNL     1      23.658   1.130  52.342  1.00  0.00     0.059 A 
HETATM    2  C4  UNL     1      23.498   2.258  51.684  1.00  0.00     0.046 A 
HETATM    3  C9  UNL     1      22.067   1.904  51.595  1.00  0.00     0.031 A 
HETATM    4  C10 UNL     1      22.256   0.775  52.261  1.00  0.00     0.022 A 
ENDROOT
BRANCH   1   5
HETATM    5  C2  UNL     1      24.836   0.516  52.921  1.00  0.00     0.260 C 
HETATM    6  N1  UNL     1      24.968  -0.343  54.036  1.00  0.00    -0.318 N 
HETATM    7  C1  UNL     1      24.379  -1.098  55.135  1.00  0.00     0.159 C 
HETATM    8  O1  UNL     1      25.960   0.726  52.414  1.00  0.00    -0.267 OA
BRANCH   6   9
HETATM    9  C11 UNL     1      26.404  -0.454  53.931  1.00  0.00     0.037 A 
HETATM   10  C12 UNL     1      27.219   0.340  54.707  1.00  0.00     0.029 A 
HETATM   11  C13 UNL     1      28.604   0.335  54.700  1.00  0.00     0.002 A 
HETATM   12  C14 UNL     1      29.160  -0.570  53.814  1.00  0.00     0.000 A 
HETATM   13  C15 UNL     1      28.425  -1.389  53.015  1.00  0.00     0.002 A 
HETATM   14  C16 UNL     1      27.027  -1.349  53.055  1.00  0.00     0.029 A 
ENDBRANCH   6   9
ENDBRANCH   1   5
BRANCH   2  15
HETATM   15  N2  UNL     1      24.066   3.463  51.128  1.00  0.00    -0.378 N 
BRANCH  15  16
HETATM   16  C5  UNL     1      23.806   4.709  51.818  1.00  0.00     0.138 C 
BRANCH  16  17
HETATM   17  C6  UNL     1      23.345   5.796  50.870  1.00  0.00     0.134 C 
HETATM   18 CL1  UNL     1      24.559   7.121  50.905  1.00  0.00    -0.129 Cl
ENDBRANCH  16  17
ENDBRANCH  15  16
BRANCH  15  19
HETATM   19  C7  UNL     1      24.822   3.283  49.929  1.00  0.00     0.138 C 
BRANCH  19  20
HETATM   20  C8  UNL     1      26.298   3.558  50.063  1.00  0.00     0.134 C 
HETATM   21 CL2  UNL     1      26.785   4.872  49.011  1.00  0.00    -0.129 Cl
ENDBRANCH  19  20
ENDBRANCH  15  19
ENDBRANCH   2  15
TORSDOF 7
ENDMDL
MODEL 9
REMARK VINA RESULT:      -6.3      1.984      3.464
REMARK  7 active torsions:
REMARK  status: ('A' for Active; 'I' for Inactive)
REMARK       I    between atoms: N1_2  and  C2_3 
REMARK    1  A    between atoms: N1_2  and  C11_16 
REMARK    2  A    between atoms: C2_3  and  C3_5 
REMARK    3  A    between atoms: C4_6  and  N2_7 
REMARK    4  A    between atoms: N2_7  and  C5_8 
REMARK    5  A    between atoms: N2_7  and  C7_11 
REMARK    6  A    between atoms: C5_8  and  C6_9 
REMARK    7  A    between atoms: C7_11  and  C8_12 
ROOT
HETATM    1  C3  UNL     1      23.586   2.954  52.397  1.00  0.00     0.059 A 
HETATM    2  C4  UNL     1      22.404   2.379  52.451  1.00  0.00     0.046 A 
HETATM    3  C9  UNL     1      21.832   3.734  52.313  1.00  0.00     0.031 A 
HETATM    4  C10 UNL     1      23.035   4.287  52.261  1.00  0.00     0.022 A 
ENDROOT
BRANCH   1   5
HETATM    5  C2  UNL     1      24.925   2.403  52.456  1.00  0.00     0.260 C 
HETATM    6  N1  UNL     1      25.997   2.499  51.539  1.00  0.00    -0.318 N 
HETATM    7  C1  UNL     1      26.559   2.995  50.289  1.00  0.00     0.159 C 
HETATM    8  O1  UNL     1      25.274   1.719  53.443  1.00  0.00    -0.267 OA
BRANCH   6   9
HETATM    9  C11 UNL     1      26.896   1.686  52.322  1.00  0.00     0.037 A 
HETATM   10  C12 UNL     1      26.859   0.314  52.220  1.00  0.00     0.029 A 
HETATM   11  C13 UNL     1      27.660  -0.576  52.915  1.00  0.00     0.002 A 
HETATM   12  C14 UNL     1      28.561   0.028  53.773  1.00  0.00     0.000 A 
HETATM   13  C15 UNL     1      28.661   1.375  53.931  1.00  0.00     0.002 A 
HETATM   14  C16 UNL     1      27.830   2.237  53.207  1.00  0.00     0.029 A 
ENDBRANCH   6   9
ENDBRANCH   1   5
BRANCH   2  15
HETATM   15  N2  UNL     1      21.612   1.179  52.569  1.00  0.00    -0.378 N 
BRANCH  15  16
HETATM   16  C5  UNL     1      22.312  -0.089  52.588  1.00  0.00     0.138 C 
BRANCH  16  17
HETATM   17  C6  UNL     1      22.565  -0.574  54.000  1.00  0.00     0.134 C 
HETATM   18 CL1  UNL     1      21.184  -1.614  54.492  1.00  0.00    -0.129 Cl
ENDBRANCH  16  17
ENDBRANCH  15  16
BRANCH  15  19
HETATM   19  C7  UNL     1      20.200   1.385  52.642  1.00  0.00     0.138 C 
BRANCH  19  20
HETATM   20  C8  UNL     1      19.391   0.596  51.643  1.00  0.00     0.134 C 
HETATM   21 CL2  UNL     1      18.417  -0.617  52.449  1.00  0.00    -0.129 Cl
ENDBRANCH  19  20
ENDBRANCH  15  19
ENDBRANCH   2  15
TORSDOF 7
ENDMDL
