MODEL 1
REMARK VINA RESULT:      -7.2      0.000      0.000
REMARK  4 active torsions:
REMARK  status: ('A' for Active; 'I' for Inactive)
REMARK    1  A    between atoms: O1_2  and  C2_3 
REMARK    2  A    between atoms: C6_9  and  N3_10 
REMARK    3  A    between atoms: N3_10  and  C7_11 
REMARK    4  A    between atoms: C14_18  and  O2_19 
ROOT
HETATM    1  C2  UNL     1      22.490   0.638  52.210  1.00  0.00     0.103 A 
HETATM    2  C3  UNL     1      23.136   1.484  51.305  1.00  0.00     0.072 A 
HETATM    3  C4  UNL     1      24.469   1.824  51.477  1.00  0.00     0.075 A 
HETATM    4  N1  UNL     1      25.139   2.631  50.640  1.00  0.00    -0.241 NA
HETATM    5  C5  UNL     1      26.433   2.963  50.806  1.00  0.00     0.236 A 
HETATM    6  N2  UNL     1      27.084   2.442  51.887  1.00  0.00    -0.224 NA
HETATM    7  C6  UNL     1      26.444   1.629  52.746  1.00  0.00     0.142 A 
HETATM    8  C12 UNL     1      25.118   1.283  52.585  1.00  0.00     0.042 A 
HETATM    9  C13 UNL     1      24.484   0.448  53.481  1.00  0.00     0.057 A 
HETATM   10  C14 UNL     1      23.149   0.113  53.300  1.00  0.00     0.102 A 
ENDROOT
BRANCH   7  11
HETATM   11  N3  UNL     1      27.216   1.145  53.833  1.00  0.00    -0.341 N 
HETATM   12  H6  UNL     1      27.280   1.447  54.813  1.00  0.00     0.167 HD
BRANCH  11  13
HETATM   13  C7  UNL     1      28.093   0.044  53.635  1.00  0.00     0.029 A 
HETATM   14  C8  UNL     1      29.374   0.120  53.972  1.00  0.00     0.006 A 
HETATM   15  C9  UNL     1      30.104  -1.144  53.679  1.00  0.00     0.056 A 
HETATM   16  C10 UNL     1      29.009  -1.983  53.104  1.00  0.00    -0.021 A 
HETATM   17  C11 UNL     1      27.870  -1.274  53.093  1.00  0.00     0.025 A 
ENDBRANCH  11  13
ENDBRANCH   7  11
BRANCH  10  18
HETATM   18  O2  UNL     1      22.452  -0.714  54.154  1.00  0.00    -0.353 OA
HETATM   19  C15 UNL     1      23.020  -1.298  55.306  1.00  0.00     0.210 C 
ENDBRANCH  10  18
BRANCH   1  20
HETATM   20  O1  UNL     1      21.167   0.322  52.008  1.00  0.00    -0.353 OA
HETATM   21  C1  UNL     1      20.443   0.647  50.854  1.00  0.00     0.210 C 
ENDBRANCH   1  20
TORSDOF 4
ENDMDL
MODEL 2
REMARK VINA RESULT:      -7.1      2.056      3.701
REMARK  4 active torsions:
REMARK  status: ('A' for Active; 'I' for Inactive)
REMARK    1  A    between atoms: O1_2  and  C2_3 
REMARK    2  A    between atoms: C6_9  and  N3_10 
REMARK    3  A    between atoms: N3_10  and  C7_11 
REMARK    4  A    between atoms: C14_18  and  O2_19 
ROOT
HETATM    1  C2  UNL     1      20.621  -0.293  53.130  1.00  0.00     0.103 A 
HETATM    2  C3  UNL     1      21.101  -0.843  54.320  1.00  0.00     0.072 A 
HETATM    3  C4  UNL     1      22.463  -0.908  54.574  1.00  0.00     0.075 A 
HETATM    4  N1  UNL     1      22.980  -1.425  55.700  1.00  0.00    -0.241 NA
HETATM    5  C5  UNL     1      24.301  -1.489  55.948  1.00  0.00     0.236 A 
HETATM    6  N2  UNL     1      25.147  -0.998  54.995  1.00  0.00    -0.224 NA
HETATM    7  C6  UNL     1      24.663  -0.472  53.856  1.00  0.00     0.142 A 
HETATM    8  C12 UNL     1      23.311  -0.402  53.592  1.00  0.00     0.042 A 
HETATM    9  C13 UNL     1      22.840   0.142  52.415  1.00  0.00     0.057 A 
HETATM   10  C14 UNL     1      21.475   0.203  52.170  1.00  0.00     0.102 A 
ENDROOT
BRANCH   7  11
HETATM   11  N3  UNL     1      25.630   0.009  52.936  1.00  0.00    -0.341 N 
HETATM   12  H6  UNL     1      25.535   0.529  52.054  1.00  0.00     0.167 HD
BRANCH  11  13
HETATM   13  C7  UNL     1      27.011  -0.217  53.188  1.00  0.00     0.029 A 
HETATM   14  C8  UNL     1      27.771   0.726  53.729  1.00  0.00     0.006 A 
HETATM   15  C9  UNL     1      29.179   0.275  53.903  1.00  0.00     0.056 A 
HETATM   16  C10 UNL     1      29.106  -1.116  53.362  1.00  0.00    -0.021 A 
HETATM   17  C11 UNL     1      27.851  -1.367  52.960  1.00  0.00     0.025 A 
ENDBRANCH  11  13
ENDBRANCH   7  11
BRANCH  10  18
HETATM   18  O2  UNL     1      20.934   0.731  51.018  1.00  0.00    -0.353 OA
HETATM   19  C15 UNL     1      21.696   1.403  50.038  1.00  0.00     0.210 C 
ENDBRANCH  10  18
BRANCH   1  20
HETATM   20  O1  UNL     1      19.264  -0.246  52.911  1.00  0.00    -0.353 OA
HETATM   21  C1  UNL     1      18.370  -1.264  53.264  1.00  0.00     0.210 C 
ENDBRANCH   1  20
TORSDOF 4
ENDMDL
MODEL 3
REMARK VINA RESULT:      -7.0      1.785      3.328
REMARK  4 active torsions:
REMARK  status: ('A' for Active; 'I' for Inactive)
REMARK    1  A    between atoms: O1_2  and  C2_3 
REMARK    2  A    between atoms: C6_9  and  N3_10 
REMARK    3  A    between atoms: N3_10  and  C7_11 
REMARK    4  A    between atoms: C14_18  and  O2_19 
ROOT
HETATM    1  C2  UNL     1      22.716   1.276  51.463  1.00  0.00     0.103 A 
HETATM    2  C3  UNL     1      22.374   0.359  52.459  1.00  0.00     0.072 A 
HETATM    3  C4  UNL     1      23.308  -0.050  53.399  1.00  0.00     0.075 A 
HETATM    4  N1  UNL     1      23.036  -0.927  54.378  1.00  0.00    -0.241 NA
HETATM    5  C5  UNL     1      23.941  -1.326  55.290  1.00  0.00     0.236 A 
HETATM    6  N2  UNL     1      25.198  -0.801  55.203  1.00  0.00    -0.224 NA
HETATM    7  C6  UNL     1      25.506   0.082  54.236  1.00  0.00     0.142 A 
HETATM    8  C12 UNL     1      24.586   0.496  53.295  1.00  0.00     0.042 A 
HETATM    9  C13 UNL     1      24.926   1.402  52.312  1.00  0.00     0.057 A 
HETATM   10  C14 UNL     1      23.984   1.805  51.376  1.00  0.00     0.102 A 
ENDROOT
BRANCH   7  11
HETATM   11  N3  UNL     1      26.840   0.564  54.238  1.00  0.00    -0.341 N 
HETATM   12  H6  UNL     1      27.234   1.485  54.469  1.00  0.00     0.167 HD
BRANCH  11  13
HETATM   13  C7  UNL     1      27.901  -0.309  53.870  1.00  0.00     0.029 A 
HETATM   14  C8  UNL     1      29.150  -0.061  54.242  1.00  0.00     0.006 A 
HETATM   15  C9  UNL     1      30.095  -1.100  53.749  1.00  0.00     0.056 A 
HETATM   16  C10 UNL     1      29.165  -2.010  53.014  1.00  0.00    -0.021 A 
HETATM   17  C11 UNL     1      27.916  -1.529  53.102  1.00  0.00     0.025 A 
ENDBRANCH  11  13
ENDBRANCH   7  11
BRANCH  10  18
HETATM   18  O2  UNL     1      24.254   2.705  50.368  1.00  0.00    -0.353 OA
HETATM   19  C15 UNL     1      25.273   3.679  50.447  1.00  0.00     0.210 C 
ENDBRANCH  10  18
BRANCH   1  20
HETATM   20  O1  UNL     1      21.764   1.659  50.547  1.00  0.00    -0.353 OA
HETATM   21  C1  UNL     1      21.435   0.932  49.397  1.00  0.00     0.210 C 
ENDBRANCH   1  20
TORSDOF 4
ENDMDL
MODEL 4
REMARK VINA RESULT:      -7.0      2.551      6.099
REMARK  4 active torsions:
REMARK  status: ('A' for Active; 'I' for Inactive)
REMARK    1  A    between atoms: O1_2  and  C2_3 
REMARK    2  A    between atoms: C6_9  and  N3_10 
REMARK    3  A    between atoms: N3_10  and  C7_11 
REMARK    4  A    between atoms: C14_18  and  O2_19 
ROOT
HETATM    1  C2  UNL     1      26.400   1.067  54.026  1.00  0.00     0.103 A 
HETATM    2  C3  UNL     1      25.873   2.353  53.888  1.00  0.00     0.072 A 
HETATM    3  C4  UNL     1      24.688   2.566  53.200  1.00  0.00     0.075 A 
HETATM    4  N1  UNL     1      24.136   3.778  53.037  1.00  0.00    -0.241 NA
HETATM    5  C5  UNL     1      22.987   3.986  52.370  1.00  0.00     0.236 A 
HETATM    6  N2  UNL     1      22.360   2.896  51.837  1.00  0.00    -0.224 NA
HETATM    7  C6  UNL     1      22.884   1.666  51.982  1.00  0.00     0.142 A 
HETATM    8  C12 UNL     1      24.062   1.442  52.664  1.00  0.00     0.042 A 
HETATM    9  C13 UNL     1      24.580   0.171  52.799  1.00  0.00     0.057 A 
HETATM   10  C14 UNL     1      25.767  -0.032  53.489  1.00  0.00     0.102 A 
ENDROOT
BRANCH   7  11
HETATM   11  N3  UNL     1      22.151   0.606  51.390  1.00  0.00    -0.341 N 
HETATM   12  H6  UNL     1      22.332   0.032  50.556  1.00  0.00     0.167 HD
BRANCH  11  13
HETATM   13  C7  UNL     1      20.927   0.185  51.979  1.00  0.00     0.029 A 
HETATM   14  C8  UNL     1      19.774   0.333  51.341  1.00  0.00     0.006 A 
HETATM   15  C9  UNL     1      18.625  -0.175  52.140  1.00  0.00     0.056 A 
HETATM   16  C10 UNL     1      19.321  -0.653  53.373  1.00  0.00    -0.021 A 
HETATM   17  C11 UNL     1      20.637  -0.433  53.250  1.00  0.00     0.025 A 
ENDBRANCH  11  13
ENDBRANCH   7  11
BRANCH  10  18
HETATM   18  O2  UNL     1      26.341  -1.272  53.662  1.00  0.00    -0.353 OA
HETATM   19  C15 UNL     1      27.014  -1.968  52.634  1.00  0.00     0.210 C 
ENDBRANCH  10  18
BRANCH   1  20
HETATM   20  O1  UNL     1      27.578   0.894  54.714  1.00  0.00    -0.353 OA
HETATM   21  C1  UNL     1      28.851   1.095  54.167  1.00  0.00     0.210 C 
ENDBRANCH   1  20
TORSDOF 4
ENDMDL
MODEL 5
REMARK VINA RESULT:      -6.9      1.941      5.446
REMARK  4 active torsions:
REMARK  status: ('A' for Active; 'I' for Inactive)
REMARK    1  A    between atoms: O1_2  and  C2_3 
REMARK    2  A    between atoms: C6_9  and  N3_10 
REMARK    3  A    between atoms: N3_10  and  C7_11 
REMARK    4  A    between atoms: C14_18  and  O2_19 
ROOT
HETATM    1  C2  UNL     1      27.334   0.020  53.700  1.00  0.00     0.103 A 
HETATM    2  C3  UNL     1      27.692   0.881  52.660  1.00  0.00     0.072 A 
HETATM    3  C4  UNL     1      26.764   1.751  52.108  1.00  0.00     0.075 A 
HETATM    4  N1  UNL     1      27.052   2.601  51.109  1.00  0.00    -0.241 NA
HETATM    5  C5  UNL     1      26.153   3.445  50.572  1.00  0.00     0.236 A 
HETATM    6  N2  UNL     1      24.886   3.427  51.080  1.00  0.00    -0.224 NA
HETATM    7  C6  UNL     1      24.563   2.590  52.082  1.00  0.00     0.142 A 
HETATM    8  C12 UNL     1      25.477   1.719  52.640  1.00  0.00     0.042 A 
HETATM    9  C13 UNL     1      25.120   0.869  53.666  1.00  0.00     0.057 A 
HETATM   10  C14 UNL     1      26.056   0.002  54.212  1.00  0.00     0.102 A 
ENDROOT
BRANCH   7  11
HETATM   11  N3  UNL     1      23.220   2.654  52.534  1.00  0.00    -0.341 N 
HETATM   12  H6  UNL     1      22.757   3.269  53.215  1.00  0.00     0.167 HD
BRANCH  11  13
HETATM   13  C7  UNL     1      22.260   1.744  52.012  1.00  0.00     0.029 A 
HETATM   14  C8  UNL     1      21.354   1.179  52.798  1.00  0.00     0.006 A 
HETATM   15  C9  UNL     1      20.453   0.265  52.044  1.00  0.00     0.056 A 
HETATM   16  C10 UNL     1      21.001   0.397  50.660  1.00  0.00    -0.021 A 
HETATM   17  C11 UNL     1      22.035   1.251  50.675  1.00  0.00     0.025 A 
ENDBRANCH  11  13
ENDBRANCH   7  11
BRANCH  10  18
HETATM   18  O2  UNL     1      25.770  -0.874  55.238  1.00  0.00    -0.353 OA
HETATM   19  C15 UNL     1      24.459  -1.256  55.590  1.00  0.00     0.210 C 
ENDBRANCH  10  18
BRANCH   1  20
HETATM   20  O1  UNL     1      28.280  -0.831  54.223  1.00  0.00    -0.353 OA
HETATM   21  C1  UNL     1      29.622  -0.863  53.824  1.00  0.00     0.210 C 
ENDBRANCH   1  20
TORSDOF 4
ENDMDL
MODEL 6
REMARK VINA RESULT:      -6.7      2.837      6.243
REMARK  4 active torsions:
REMARK  status: ('A' for Active; 'I' for Inactive)
REMARK    1  A    between atoms: O1_2  and  C2_3 
REMARK    2  A    between atoms: C6_9  and  N3_10 
REMARK    3  A    between atoms: N3_10  and  C7_11 
REMARK    4  A    between atoms: C14_18  and  O2_19 
ROOT
HETATM    1  C2  UNL     1      26.825  -0.147  53.802  1.00  0.00     0.103 A 
HETATM    2  C3  UNL     1      25.671  -0.805  54.232  1.00  0.00     0.072 A 
HETATM    3  C4  UNL     1      24.415  -0.366  53.840  1.00  0.00     0.075 A 
HETATM    4  N1  UNL     1      23.273  -0.960  54.221  1.00  0.00    -0.241 NA
HETATM    5  C5  UNL     1      22.054  -0.536  53.842  1.00  0.00     0.236 A 
HETATM    6  N2  UNL     1      21.991   0.557  53.025  1.00  0.00    -0.224 NA
HETATM    7  C6  UNL     1      23.116   1.175  52.622  1.00  0.00     0.142 A 
HETATM    8  C12 UNL     1      24.370   0.749  53.006  1.00  0.00     0.042 A 
HETATM    9  C13 UNL     1      25.508   1.401  52.580  1.00  0.00     0.057 A 
HETATM   10  C14 UNL     1      26.761   0.955  52.978  1.00  0.00     0.102 A 
ENDROOT
BRANCH   7  11
HETATM   11  N3  UNL     1      22.935   2.299  51.776  1.00  0.00    -0.341 N 
HETATM   12  H6  UNL     1      22.991   3.309  51.959  1.00  0.00     0.167 HD
BRANCH  11  13
HETATM   13  C7  UNL     1      22.614   2.100  50.405  1.00  0.00     0.029 A 
HETATM   14  C8  UNL     1      23.170   2.843  49.457  1.00  0.00     0.006 A 
HETATM   15  C9  UNL     1      22.692   2.465  48.100  1.00  0.00     0.056 A 
HETATM   16  C10 UNL     1      21.747   1.354  48.426  1.00  0.00    -0.021 A 
HETATM   17  C11 UNL     1      21.724   1.170  49.754  1.00  0.00     0.025 A 
ENDBRANCH  11  13
ENDBRANCH   7  11
BRANCH  10  18
HETATM   18  O2  UNL     1      27.939   1.557  52.592  1.00  0.00    -0.353 OA
HETATM   19  C15 UNL     1      28.609   2.525  53.370  1.00  0.00     0.210 C 
ENDBRANCH  10  18
BRANCH   1  20
HETATM   20  O1  UNL     1      28.054  -0.609  54.211  1.00  0.00    -0.353 OA
HETATM   21  C1  UNL     1      28.881  -1.442  53.447  1.00  0.00     0.210 C 
ENDBRANCH   1  20
TORSDOF 4
ENDMDL
MODEL 7
REMARK VINA RESULT:      -6.6      2.524      3.949
REMARK  4 active torsions:
REMARK  status: ('A' for Active; 'I' for Inactive)
REMARK    1  A    between atoms: O1_2  and  C2_3 
REMARK    2  A    between atoms: C6_9  and  N3_10 
REMARK    3  A    between atoms: N3_10  and  C7_11 
REMARK    4  A    between atoms: C14_18  and  O2_19 
ROOT
HETATM    1  C2  UNL     1      23.151   3.476  51.190  1.00  0.00     0.103 A 
HETATM    2  C3  UNL     1      22.576   2.605  52.117  1.00  0.00     0.072 A 
HETATM    3  C4  UNL     1      23.266   1.491  52.569  1.00  0.00     0.075 A 
HETATM    4  N1  UNL     1      22.763   0.622  53.460  1.00  0.00    -0.241 NA
HETATM    5  C5  UNL     1      23.431  -0.461  53.899  1.00  0.00     0.236 A 
HETATM    6  N2  UNL     1      24.686  -0.671  53.405  1.00  0.00    -0.224 NA
HETATM    7  C6  UNL     1      25.222   0.180  52.512  1.00  0.00     0.142 A 
HETATM    8  C12 UNL     1      24.545   1.292  52.055  1.00  0.00     0.042 A 
HETATM    9  C13 UNL     1      25.116   2.150  51.138  1.00  0.00     0.057 A 
HETATM   10  C14 UNL     1      24.417   3.263  50.691  1.00  0.00     0.102 A 
ENDROOT
BRANCH   7  11
HETATM   11  N3  UNL     1      26.531  -0.134  52.065  1.00  0.00    -0.341 N 
HETATM   12  H6  UNL     1      26.875  -0.526  51.179  1.00  0.00     0.167 HD
BRANCH  11  13
HETATM   13  C7  UNL     1      27.640   0.099  52.924  1.00  0.00     0.029 A 
HETATM   14  C8  UNL     1      28.485  -0.877  53.229  1.00  0.00     0.006 A 
HETATM   15  C9  UNL     1      29.568  -0.412  54.139  1.00  0.00     0.056 A 
HETATM   16  C10 UNL     1      29.201   1.026  54.313  1.00  0.00    -0.021 A 
HETATM   17  C11 UNL     1      28.093   1.287  53.605  1.00  0.00     0.025 A 
ENDBRANCH  11  13
ENDBRANCH   7  11
BRANCH  10  18
HETATM   18  O2  UNL     1      24.925   4.161  49.778  1.00  0.00    -0.353 OA
HETATM   19  C15 UNL     1      26.288   4.218  49.419  1.00  0.00     0.210 C 
ENDBRANCH  10  18
BRANCH   1  20
HETATM   20  O1  UNL     1      22.436   4.571  50.763  1.00  0.00    -0.353 OA
HETATM   21  C1  UNL     1      22.000   5.606  51.599  1.00  0.00     0.210 C 
ENDBRANCH   1  20
TORSDOF 4
ENDMDL
MODEL 8
REMARK VINA RESULT:      -6.5      2.220      4.961
REMARK  4 active torsions:
REMARK  status: ('A' for Active; 'I' for Inactive)
REMARK    1  A    between atoms: O1_2  and  C2_3 
REMARK    2  A    between atoms: C6_9  and  N3_10 
REMARK    3  A    between atoms: N3_10  and  C7_11 
REMARK    4  A    between atoms: C14_18  and  O2_19 
ROOT
HETATM    1  C2  UNL     1      22.593   1.280  52.368  1.00  0.00     0.103 A 
HETATM    2  C3  UNL     1      23.689   1.320  53.232  1.00  0.00     0.072 A 
HETATM    3  C4  UNL     1      24.935   1.730  52.781  1.00  0.00     0.075 A 
HETATM    4  N1  UNL     1      26.022   1.789  53.566  1.00  0.00    -0.241 NA
HETATM    5  C5  UNL     1      27.231   2.186  53.129  1.00  0.00     0.236 A 
HETATM    6  N2  UNL     1      27.342   2.546  51.817  1.00  0.00    -0.224 NA
HETATM    7  C6  UNL     1      26.273   2.500  51.002  1.00  0.00     0.142 A 
HETATM    8  C12 UNL     1      25.029   2.094  51.439  1.00  0.00     0.042 A 
HETATM    9  C13 UNL     1      23.948   2.055  50.584  1.00  0.00     0.057 A 
HETATM   10  C14 UNL     1      22.705   1.643  51.045  1.00  0.00     0.102 A 
ENDROOT
BRANCH   7  11
HETATM   11  N3  UNL     1      26.500   2.896  49.659  1.00  0.00    -0.341 N 
HETATM   12  H6  UNL     1      26.616   2.349  48.796  1.00  0.00     0.167 HD
BRANCH  11  13
HETATM   13  C7  UNL     1      26.603   4.279  49.343  1.00  0.00     0.029 A 
HETATM   14  C8  UNL     1      27.635   4.748  48.655  1.00  0.00     0.006 A 
HETATM   15  C9  UNL     1      27.538   6.217  48.438  1.00  0.00     0.056 A 
HETATM   16  C10 UNL     1      26.250   6.527  49.130  1.00  0.00    -0.021 A 
HETATM   17  C11 UNL     1      25.740   5.396  49.638  1.00  0.00     0.025 A 
ENDBRANCH  11  13
ENDBRANCH   7  11
BRANCH  10  18
HETATM   18  O2  UNL     1      21.583   1.580  50.247  1.00  0.00    -0.353 OA
HETATM   19  C15 UNL     1      21.598   1.851  48.862  1.00  0.00     0.210 C 
ENDBRANCH  10  18
BRANCH   1  20
HETATM   20  O1  UNL     1      21.372   0.867  52.850  1.00  0.00    -0.353 OA
HETATM   21  C1  UNL     1      21.169   0.316  54.121  1.00  0.00     0.210 C 
ENDBRANCH   1  20
TORSDOF 4
ENDMDL
MODEL 9
REMARK VINA RESULT:      -6.2      3.411      5.162
REMARK  4 active torsions:
REMARK  status: ('A' for Active; 'I' for Inactive)
REMARK    1  A    between atoms: O1_2  and  C2_3 
REMARK    2  A    between atoms: C6_9  and  N3_10 
REMARK    3  A    between atoms: N3_10  and  C7_11 
REMARK    4  A    between atoms: C14_18  and  O2_19 
ROOT
HETATM    1  C2  UNL     1      24.801   5.404  49.560  1.00  0.00     0.103 A 
HETATM    2  C3  UNL     1      23.863   4.905  50.466  1.00  0.00     0.072 A 
HETATM    3  C4  UNL     1      24.128   3.765  51.209  1.00  0.00     0.075 A 
HETATM    4  N1  UNL     1      23.265   3.243  52.094  1.00  0.00    -0.241 NA
HETATM    5  C5  UNL     1      23.522   2.136  52.815  1.00  0.00     0.236 A 
HETATM    6  N2  UNL     1      24.728   1.525  52.627  1.00  0.00    -0.224 NA
HETATM    7  C6  UNL     1      25.618   2.022  51.749  1.00  0.00     0.142 A 
HETATM    8  C12 UNL     1      25.364   3.155  51.004  1.00  0.00     0.042 A 
HETATM    9  C13 UNL     1      26.293   3.645  50.110  1.00  0.00     0.057 A 
HETATM   10  C14 UNL     1      26.017   4.787  49.370  1.00  0.00     0.102 A 
ENDROOT
BRANCH   7  11
HETATM   11  N3  UNL     1      26.838   1.309  51.633  1.00  0.00    -0.341 N 
HETATM   12  H6  UNL     1      27.251   0.783  50.852  1.00  0.00     0.167 HD
BRANCH  11  13
HETATM   13  C7  UNL     1      27.724   1.249  52.744  1.00  0.00     0.029 A 
HETATM   14  C8  UNL     1      27.996   0.095  53.340  1.00  0.00     0.006 A 
HETATM   15  C9  UNL     1      28.944   0.265  54.475  1.00  0.00     0.056 A 
HETATM   16  C10 UNL     1      29.180   1.740  54.436  1.00  0.00    -0.021 A 
HETATM   17  C11 UNL     1      28.467   2.274  53.434  1.00  0.00     0.025 A 
ENDBRANCH  11  13
ENDBRANCH   7  11
BRANCH  10  18
HETATM   18  O2  UNL     1      26.897   5.331  48.460  1.00  0.00    -0.353 OA
HETATM   19  C15 UNL     1      28.291   5.113  48.499  1.00  0.00     0.210 C 
ENDBRANCH  10  18
BRANCH   1  20
HETATM   20  O1  UNL     1      24.503   6.537  48.839  1.00  0.00    -0.353 OA
HETATM   21  C1  UNL     1      24.511   7.834  49.365  1.00  0.00     0.210 C 
ENDBRANCH   1  20
TORSDOF 4
ENDMDL
