MODEL 1
REMARK VINA RESULT:      -8.8      0.000      0.000
REMARK  4 active torsions:
REMARK  status: ('A' for Active; 'I' for Inactive)
REMARK    1  A    between atoms: C2_2  and  C3_3 
REMARK       I    between atoms: C3_3  and  N1_5 
REMARK    2  A    between atoms: N1_5  and  C4_6 
REMARK    3  A    between atoms: C7_9  and  C8_10 
REMARK    4  A    between atoms: C8_10  and  C9_11 
ROOT
HETATM    1  C8  UNL     1      24.035  -1.005  54.412  1.00  0.00     0.073 C 
ENDROOT
BRANCH   1   2
HETATM    2  C7  UNL     1      22.832  -0.331  53.914  1.00  0.00    -0.054 A 
HETATM    3  C6  UNL     1      21.593  -0.097  54.446  1.00  0.00     0.010 A 
HETATM    4  C5  UNL     1      20.503   0.536  53.892  1.00  0.00     0.030 A 
HETATM    5  C4  UNL     1      20.724   0.982  52.630  1.00  0.00     0.035 A 
HETATM    6  C21 UNL     1      21.911   0.846  51.906  1.00  0.00     0.030 A 
HETATM    7  C20 UNL     1      22.933   0.177  52.602  1.00  0.00     0.010 A 
BRANCH   5   8
HETATM    8  N1  UNL     1      19.679   1.616  51.881  1.00  0.00    -0.324 N 
HETATM    9  C3  UNL     1      19.381   3.038  51.881  1.00  0.00     0.241 C 
HETATM   10  O1  UNL     1      20.268   3.476  52.671  1.00  0.00    -0.269 OA
HETATM   11  H4  UNL     1      19.060   1.000  51.263  1.00  0.00     0.169 HD
BRANCH   9  12
HETATM   12  C2  UNL     1      18.283   3.654  51.104  1.00  0.00     0.048 C 
HETATM   13  C1  UNL     1      17.077   3.337  51.627  1.00  0.00     0.037 C 
ENDBRANCH   9  12
ENDBRANCH   5   8
ENDBRANCH   1   2
BRANCH   1  14
HETATM   14  C9  UNL     1      25.314  -0.580  53.943  1.00  0.00    -0.065 C 
HETATM   15  C10 UNL     1      26.027  -1.421  52.993  1.00  0.00     0.015 C 
HETATM   16  C11 UNL     1      27.371  -0.707  52.692  1.00  0.00    -0.035 A 
HETATM   17  C12 UNL     1      28.189  -1.706  53.172  1.00  0.00     0.011 A 
HETATM   18  C16 UNL     1      27.286   0.637  52.479  1.00  0.00     0.024 A 
HETATM   19  C13 UNL     1      29.390  -1.080  53.615  1.00  0.00     0.002 A 
HETATM   20  C14 UNL     1      29.567   0.322  53.529  1.00  0.00     0.013 A 
HETATM   21  C15 UNL     1      28.494   1.037  52.977  1.00  0.00    -0.018 A 
HETATM   22  C17 UNL     1      28.803   2.439  53.451  1.00  0.00     0.127 C 
HETATM   23  N2  UNL     1      27.702   2.668  54.203  1.00  0.00    -0.276 NA
HETATM   24  C18 UNL     1      26.705   1.781  54.350  1.00  0.00     0.099 C 
HETATM   25  C19 UNL     1      25.974   0.797  54.277  1.00  0.00     0.068 C 
ENDBRANCH   1  14
TORSDOF 4
ENDMDL
MODEL 2
REMARK VINA RESULT:      -8.4      2.228      3.374
REMARK  4 active torsions:
REMARK  status: ('A' for Active; 'I' for Inactive)
REMARK    1  A    between atoms: C2_2  and  C3_3 
REMARK       I    between atoms: C3_3  and  N1_5 
REMARK    2  A    between atoms: N1_5  and  C4_6 
REMARK    3  A    between atoms: C7_9  and  C8_10 
REMARK    4  A    between atoms: C8_10  and  C9_11 
ROOT
HETATM    1  C8  UNL     1      24.726   1.971  52.363  1.00  0.00     0.073 C 
ENDROOT
BRANCH   1   2
HETATM    2  C7  UNL     1      23.369   1.501  52.656  1.00  0.00    -0.054 A 
HETATM    3  C6  UNL     1      22.129   2.071  52.552  1.00  0.00     0.010 A 
HETATM    4  C5  UNL     1      20.893   1.556  52.872  1.00  0.00     0.030 A 
HETATM    5  C4  UNL     1      20.948   0.292  53.360  1.00  0.00     0.035 A 
HETATM    6  C21 UNL     1      22.105  -0.468  53.548  1.00  0.00     0.030 A 
HETATM    7  C20 UNL     1      23.290   0.192  53.177  1.00  0.00     0.010 A 
BRANCH   5   8
HETATM    8  N1  UNL     1      19.759  -0.380  53.797  1.00  0.00    -0.324 N 
HETATM    9  C3  UNL     1      18.678  -0.831  52.938  1.00  0.00     0.241 C 
HETATM   10  O1  UNL     1      19.104  -0.477  51.800  1.00  0.00    -0.269 OA
HETATM   11  H4  UNL     1      19.648  -0.573  54.844  1.00  0.00     0.169 HD
BRANCH   9  12
HETATM   12  C2  UNL     1      17.458  -1.509  53.429  1.00  0.00     0.048 C 
HETATM   13  C1  UNL     1      17.702  -2.808  53.711  1.00  0.00     0.037 C 
ENDBRANCH   9  12
ENDBRANCH   5   8
ENDBRANCH   1   2
BRANCH   1  14
HETATM   14  C9  UNL     1      25.840   1.225  52.851  1.00  0.00    -0.065 C 
HETATM   15  C10 UNL     1      26.633   1.779  53.939  1.00  0.00     0.015 C 
HETATM   16  C11 UNL     1      27.763   0.757  54.228  1.00  0.00    -0.035 A 
HETATM   17  C12 UNL     1      28.813   1.596  53.926  1.00  0.00     0.011 A 
HETATM   18  C16 UNL     1      27.376  -0.550  54.268  1.00  0.00     0.024 A 
HETATM   19  C13 UNL     1      29.886   0.771  53.482  1.00  0.00     0.002 A 
HETATM   20  C14 UNL     1      29.753  -0.635  53.403  1.00  0.00     0.013 A 
HETATM   21  C15 UNL     1      28.510  -1.151  53.797  1.00  0.00    -0.018 A 
HETATM   22  C17 UNL     1      28.552  -2.526  53.172  1.00  0.00     0.127 C 
HETATM   23  N2  UNL     1      27.496  -2.423  52.333  1.00  0.00    -0.276 NA
HETATM   24  C18 UNL     1      26.727  -1.327  52.238  1.00  0.00     0.099 C 
HETATM   25  C19 UNL     1      26.218  -0.220  52.389  1.00  0.00     0.068 C 
ENDBRANCH   1  14
TORSDOF 4
ENDMDL
MODEL 3
REMARK VINA RESULT:      -8.2      2.603      7.634
REMARK  4 active torsions:
REMARK  status: ('A' for Active; 'I' for Inactive)
REMARK    1  A    between atoms: C2_2  and  C3_3 
REMARK       I    between atoms: C3_3  and  N1_5 
REMARK    2  A    between atoms: N1_5  and  C4_6 
REMARK    3  A    between atoms: C7_9  and  C8_10 
REMARK    4  A    between atoms: C8_10  and  C9_11 
ROOT
HETATM    1  C8  UNL     1      21.209   0.486  53.334  1.00  0.00     0.073 C 
ENDROOT
BRANCH   1   2
HETATM    2  C7  UNL     1      22.583   0.054  53.605  1.00  0.00    -0.054 A 
HETATM    3  C6  UNL     1      23.154  -0.724  54.576  1.00  0.00     0.010 A 
HETATM    4  C5  UNL     1      24.473  -1.067  54.766  1.00  0.00     0.030 A 
HETATM    5  C4  UNL     1      25.306  -0.539  53.835  1.00  0.00     0.035 A 
HETATM    6  C21 UNL     1      24.931   0.279  52.767  1.00  0.00     0.030 A 
HETATM    7  C20 UNL     1      23.551   0.542  52.703  1.00  0.00     0.010 A 
BRANCH   5   8
HETATM    8  N1  UNL     1      26.722  -0.748  53.913  1.00  0.00    -0.324 N 
HETATM    9  C3  UNL     1      27.682   0.172  54.500  1.00  0.00     0.241 C 
HETATM   10  O1  UNL     1      26.922   1.108  54.884  1.00  0.00    -0.269 OA
HETATM   11  H4  UNL     1      27.118  -1.656  53.510  1.00  0.00     0.169 HD
BRANCH   9  12
HETATM   12  C2  UNL     1      29.140  -0.073  54.548  1.00  0.00     0.048 C 
HETATM   13  C1  UNL     1      29.541  -0.841  53.510  1.00  0.00     0.037 C 
ENDBRANCH   9  12
ENDBRANCH   5   8
ENDBRANCH   1   2
BRANCH   1  14
HETATM   14  C9  UNL     1      20.919   1.148  52.103  1.00  0.00    -0.065 C 
HETATM   15  C10 UNL     1      20.619   0.343  50.928  1.00  0.00     0.015 C 
HETATM   16  C11 UNL     1      20.367   1.337  49.764  1.00  0.00    -0.035 A 
HETATM   17  C12 UNL     1      21.406   0.910  48.967  1.00  0.00     0.011 A 
HETATM   18  C16 UNL     1      19.585   2.411  50.069  1.00  0.00     0.024 A 
HETATM   19  C13 UNL     1      21.807   2.026  48.177  1.00  0.00     0.002 A 
HETATM   20  C14 UNL     1      21.173   3.285  48.303  1.00  0.00     0.013 A 
HETATM   21  C15 UNL     1      20.132   3.351  49.241  1.00  0.00    -0.018 A 
HETATM   22  C17 UNL     1      20.018   4.844  49.446  1.00  0.00     0.127 C 
HETATM   23  N2  UNL     1      20.317   4.911  50.764  1.00  0.00    -0.276 NA
HETATM   24  C18 UNL     1      20.590   3.836  51.520  1.00  0.00     0.099 C 
HETATM   25  C19 UNL     1      20.775   2.696  51.935  1.00  0.00     0.068 C 
ENDBRANCH   1  14
TORSDOF 4
ENDMDL
MODEL 4
REMARK VINA RESULT:      -8.1      5.667      8.012
REMARK  4 active torsions:
REMARK  status: ('A' for Active; 'I' for Inactive)
REMARK    1  A    between atoms: C2_2  and  C3_3 
REMARK       I    between atoms: C3_3  and  N1_5 
REMARK    2  A    between atoms: N1_5  and  C4_6 
REMARK    3  A    between atoms: C7_9  and  C8_10 
REMARK    4  A    between atoms: C8_10  and  C9_11 
ROOT
HETATM    1  C8  UNL     1      26.689   3.284  49.365  1.00  0.00     0.073 C 
ENDROOT
BRANCH   1   2
HETATM    2  C7  UNL     1      26.700   4.736  49.161  1.00  0.00    -0.054 A 
HETATM    3  C6  UNL     1      25.814   5.737  49.456  1.00  0.00     0.010 A 
HETATM    4  C5  UNL     1      25.900   7.088  49.208  1.00  0.00     0.030 A 
HETATM    5  C4  UNL     1      27.045   7.448  48.577  1.00  0.00     0.035 A 
HETATM    6  C21 UNL     1      28.074   6.587  48.186  1.00  0.00     0.030 A 
HETATM    7  C20 UNL     1      27.844   5.237  48.506  1.00  0.00     0.010 A 
BRANCH   5   8
HETATM    8  N1  UNL     1      27.275   8.809  48.191  1.00  0.00    -0.324 N 
HETATM    9  C3  UNL     1      27.771   9.863  49.060  1.00  0.00     0.241 C 
HETATM   10  O1  UNL     1      27.923   9.233  50.148  1.00  0.00    -0.269 OA
HETATM   11  H4  UNL     1      27.070   9.085  47.178  1.00  0.00     0.169 HD
BRANCH   9  12
HETATM   12  C2  UNL     1      27.983  11.262  48.628  1.00  0.00     0.048 C 
HETATM   13  C1  UNL     1      29.273  11.633  48.793  1.00  0.00     0.037 C 
ENDBRANCH   9  12
ENDBRANCH   5   8
ENDBRANCH   1   2
BRANCH   1  14
HETATM   14  C9  UNL     1      25.962   2.742  50.467  1.00  0.00    -0.065 C 
HETATM   15  C10 UNL     1      26.685   2.405  51.685  1.00  0.00     0.015 C 
HETATM   16  C11 UNL     1      25.637   1.833  52.676  1.00  0.00    -0.035 A 
HETATM   17  C12 UNL     1      26.200   0.581  52.791  1.00  0.00     0.011 A 
HETATM   18  C16 UNL     1      24.463   2.522  52.751  1.00  0.00     0.024 A 
HETATM   19  C13 UNL     1      25.140  -0.322  53.095  1.00  0.00     0.002 A 
HETATM   20  C14 UNL     1      23.802   0.123  53.214  1.00  0.00     0.013 A 
HETATM   21  C15 UNL     1      23.600   1.498  53.023  1.00  0.00    -0.018 A 
HETATM   22  C17 UNL     1      22.112   1.540  52.759  1.00  0.00     0.127 C 
HETATM   23  N2  UNL     1      22.121   2.043  51.503  1.00  0.00    -0.276 NA
HETATM   24  C18 UNL     1      23.243   2.373  50.844  1.00  0.00     0.099 C 
HETATM   25  C19 UNL     1      24.408   2.588  50.521  1.00  0.00     0.068 C 
ENDBRANCH   1  14
TORSDOF 4
ENDMDL
MODEL 5
REMARK VINA RESULT:      -8.1      4.801      6.493
REMARK  4 active torsions:
REMARK  status: ('A' for Active; 'I' for Inactive)
REMARK    1  A    between atoms: C2_2  and  C3_3 
REMARK       I    between atoms: C3_3  and  N1_5 
REMARK    2  A    between atoms: N1_5  and  C4_6 
REMARK    3  A    between atoms: C7_9  and  C8_10 
REMARK    4  A    between atoms: C8_10  and  C9_11 
ROOT
HETATM    1  C8  UNL     1      23.037   3.763  51.918  1.00  0.00     0.073 C 
ENDROOT
BRANCH   1   2
HETATM    2  C7  UNL     1      23.894   4.758  51.265  1.00  0.00    -0.054 A 
HETATM    3  C6  UNL     1      24.003   6.119  51.363  1.00  0.00     0.010 A 
HETATM    4  C5  UNL     1      24.834   6.985  50.690  1.00  0.00     0.030 A 
HETATM    5  C4  UNL     1      25.654   6.366  49.805  1.00  0.00     0.035 A 
HETATM    6  C21 UNL     1      25.703   4.993  49.551  1.00  0.00     0.030 A 
HETATM    7  C20 UNL     1      24.796   4.237  50.314  1.00  0.00     0.010 A 
BRANCH   5   8
HETATM    8  N1  UNL     1      26.547   7.122  48.976  1.00  0.00    -0.324 N 
HETATM    9  C3  UNL     1      26.230   7.664  47.666  1.00  0.00     0.241 C 
HETATM   10  O1  UNL     1      25.029   7.291  47.529  1.00  0.00    -0.269 OA
HETATM   11  H4  UNL     1      27.533   7.312  49.345  1.00  0.00     0.169 HD
BRANCH   9  12
HETATM   12  C2  UNL     1      27.185   8.429  46.834  1.00  0.00     0.048 C 
HETATM   13  C1  UNL     1      28.395   7.826  46.800  1.00  0.00     0.037 C 
ENDBRANCH   9  12
ENDBRANCH   5   8
ENDBRANCH   1   2
BRANCH   1  14
HETATM   14  C9  UNL     1      23.623   2.559  52.413  1.00  0.00    -0.065 C 
HETATM   15  C10 UNL     1      23.058   1.283  52.000  1.00  0.00     0.015 C 
HETATM   16  C11 UNL     1      23.890   0.181  52.707  1.00  0.00    -0.035 A 
HETATM   17  C12 UNL     1      22.851  -0.353  53.437  1.00  0.00     0.011 A 
HETATM   18  C16 UNL     1      25.241   0.363  52.688  1.00  0.00     0.024 A 
HETATM   19  C13 UNL     1      23.421  -0.916  54.615  1.00  0.00     0.002 A 
HETATM   20  C14 UNL     1      24.812  -0.853  54.866  1.00  0.00     0.013 A 
HETATM   21  C15 UNL     1      25.578  -0.213  53.880  1.00  0.00    -0.018 A 
HETATM   22  C17 UNL     1      26.849   0.081  54.643  1.00  0.00     0.127 C 
HETATM   23  N2  UNL     1      26.845   1.432  54.573  1.00  0.00    -0.276 NA
HETATM   24  C18 UNL     1      25.897   2.139  53.937  1.00  0.00     0.099 C 
HETATM   25  C19 UNL     1      24.920   2.490  53.282  1.00  0.00     0.068 C 
ENDBRANCH   1  14
TORSDOF 4
ENDMDL
MODEL 6
REMARK VINA RESULT:      -8.0      5.027      7.646
REMARK  4 active torsions:
REMARK  status: ('A' for Active; 'I' for Inactive)
REMARK    1  A    between atoms: C2_2  and  C3_3 
REMARK       I    between atoms: C3_3  and  N1_5 
REMARK    2  A    between atoms: N1_5  and  C4_6 
REMARK    3  A    between atoms: C7_9  and  C8_10 
REMARK    4  A    between atoms: C8_10  and  C9_11 
ROOT
HETATM    1  C8  UNL     1      24.380   4.242  51.147  1.00  0.00     0.073 C 
ENDROOT
BRANCH   1   2
HETATM    2  C7  UNL     1      25.444   4.685  50.241  1.00  0.00    -0.054 A 
HETATM    3  C6  UNL     1      26.445   4.035  49.570  1.00  0.00     0.010 A 
HETATM    4  C5  UNL     1      27.423   4.541  48.745  1.00  0.00     0.030 A 
HETATM    5  C4  UNL     1      27.358   5.887  48.595  1.00  0.00     0.035 A 
HETATM    6  C21 UNL     1      26.421   6.736  49.189  1.00  0.00     0.030 A 
HETATM    7  C20 UNL     1      25.486   6.075  50.005  1.00  0.00     0.010 A 
BRANCH   5   8
HETATM    8  N1  UNL     1      28.335   6.588  47.814  1.00  0.00    -0.324 N 
HETATM    9  C3  UNL     1      29.773   6.398  47.889  1.00  0.00     0.241 C 
HETATM   10  O1  UNL     1      29.856   5.496  48.773  1.00  0.00    -0.269 OA
HETATM   11  H4  UNL     1      27.987   7.314  47.109  1.00  0.00     0.169 HD
BRANCH   9  12
HETATM   12  C2  UNL     1      30.752   7.152  47.074  1.00  0.00     0.048 C 
HETATM   13  C1  UNL     1      30.145   7.782  46.043  1.00  0.00     0.037 C 
ENDBRANCH   9  12
ENDBRANCH   5   8
ENDBRANCH   1   2
BRANCH   1  14
HETATM   14  C9  UNL     1      24.483   2.959  51.764  1.00  0.00    -0.065 C 
HETATM   15  C10 UNL     1      23.723   1.850  51.206  1.00  0.00     0.015 C 
HETATM   16  C11 UNL     1      24.028   0.614  52.093  1.00  0.00    -0.035 A 
HETATM   17  C12 UNL     1      22.736   0.410  52.524  1.00  0.00     0.011 A 
HETATM   18  C16 UNL     1      25.339   0.441  52.425  1.00  0.00     0.024 A 
HETATM   19  C13 UNL     1      22.821  -0.211  53.803  1.00  0.00     0.002 A 
HETATM   20  C14 UNL     1      24.070  -0.494  54.406  1.00  0.00     0.013 A 
HETATM   21  C15 UNL     1      25.200  -0.133  53.658  1.00  0.00    -0.018 A 
HETATM   22  C17 UNL     1      26.269  -0.132  54.727  1.00  0.00     0.127 C 
HETATM   23  N2  UNL     1      26.639   1.168  54.672  1.00  0.00    -0.276 NA
HETATM   24  C18 UNL     1      26.105   2.057  53.820  1.00  0.00     0.099 C 
HETATM   25  C19 UNL     1      25.453   2.609  52.939  1.00  0.00     0.068 C 
ENDBRANCH   1  14
TORSDOF 4
ENDMDL
MODEL 7
REMARK VINA RESULT:      -7.7      3.583      4.496
REMARK  4 active torsions:
REMARK  status: ('A' for Active; 'I' for Inactive)
REMARK    1  A    between atoms: C2_2  and  C3_3 
REMARK       I    between atoms: C3_3  and  N1_5 
REMARK    2  A    between atoms: N1_5  and  C4_6 
REMARK    3  A    between atoms: C7_9  and  C8_10 
REMARK    4  A    between atoms: C8_10  and  C9_11 
ROOT
HETATM    1  C8  UNL     1      26.474   3.320  50.465  1.00  0.00     0.073 C 
ENDROOT
BRANCH   1   2
HETATM    2  C7  UNL     1      25.199   4.044  50.439  1.00  0.00    -0.054 A 
HETATM    3  C6  UNL     1      24.212   4.251  51.364  1.00  0.00     0.010 A 
HETATM    4  C5  UNL     1      23.025   4.937  51.246  1.00  0.00     0.030 A 
HETATM    5  C4  UNL     1      22.835   5.476  50.016  1.00  0.00     0.035 A 
HETATM    6  C21 UNL     1      23.713   5.382  48.933  1.00  0.00     0.030 A 
HETATM    7  C20 UNL     1      24.882   4.650  49.205  1.00  0.00     0.010 A 
BRANCH   5   8
HETATM    8  N1  UNL     1      21.626   6.177  49.699  1.00  0.00    -0.324 N 
HETATM    9  C3  UNL     1      21.356   7.574  49.994  1.00  0.00     0.241 C 
HETATM   10  O1  UNL     1      22.436   7.921  50.554  1.00  0.00    -0.269 OA
HETATM   11  H4  UNL     1      20.849   5.637  49.199  1.00  0.00     0.169 HD
BRANCH   9  12
HETATM   12  C2  UNL     1      20.087   8.260  49.663  1.00  0.00     0.048 C 
HETATM   13  C1  UNL     1      19.391   7.574  48.728  1.00  0.00     0.037 C 
ENDBRANCH   9  12
ENDBRANCH   5   8
ENDBRANCH   1   2
BRANCH   1  14
HETATM   14  C9  UNL     1      26.665   2.284  51.427  1.00  0.00    -0.065 C 
HETATM   15  C10 UNL     1      25.947   1.029  51.259  1.00  0.00     0.015 C 
HETATM   16  C11 UNL     1      26.348   0.126  52.455  1.00  0.00    -0.035 A 
HETATM   17  C12 UNL     1      25.084   0.007  52.989  1.00  0.00     0.011 A 
HETATM   18  C16 UNL     1      27.676   0.112  52.760  1.00  0.00     0.024 A 
HETATM   19  C13 UNL     1      25.246  -0.202  54.390  1.00  0.00     0.002 A 
HETATM   20  C14 UNL     1      26.528  -0.242  54.987  1.00  0.00     0.013 A 
HETATM   21  C15 UNL     1      27.611  -0.074  54.112  1.00  0.00    -0.018 A 
HETATM   22  C17 UNL     1      28.715   0.288  55.080  1.00  0.00     0.127 C 
HETATM   23  N2  UNL     1      29.013   1.527  54.626  1.00  0.00    -0.276 NA
HETATM   24  C18 UNL     1      28.403   2.100  53.577  1.00  0.00     0.099 C 
HETATM   25  C19 UNL     1      27.693   2.339  52.604  1.00  0.00     0.068 C 
ENDBRANCH   1  14
TORSDOF 4
ENDMDL
MODEL 8
REMARK VINA RESULT:      -7.6      4.821      7.312
REMARK  4 active torsions:
REMARK  status: ('A' for Active; 'I' for Inactive)
REMARK    1  A    between atoms: C2_2  and  C3_3 
REMARK       I    between atoms: C3_3  and  N1_5 
REMARK    2  A    between atoms: N1_5  and  C4_6 
REMARK    3  A    between atoms: C7_9  and  C8_10 
REMARK    4  A    between atoms: C8_10  and  C9_11 
ROOT
HETATM    1  C8  UNL     1      22.628   4.305  51.698  1.00  0.00     0.073 C 
ENDROOT
BRANCH   1   2
HETATM    2  C7  UNL     1      23.788   4.819  50.963  1.00  0.00    -0.054 A 
HETATM    3  C6  UNL     1      24.684   4.252  50.098  1.00  0.00     0.010 A 
HETATM    4  C5  UNL     1      25.768   4.814  49.460  1.00  0.00     0.030 A 
HETATM    5  C4  UNL     1      25.945   6.125  49.756  1.00  0.00     0.035 A 
HETATM    6  C21 UNL     1      25.150   6.890  50.613  1.00  0.00     0.030 A 
HETATM    7  C20 UNL     1      24.082   6.180  51.190  1.00  0.00     0.010 A 
BRANCH   5   8
HETATM    8  N1  UNL     1      27.059   6.855  49.224  1.00  0.00    -0.324 N 
HETATM    9  C3  UNL     1      27.089   7.536  47.941  1.00  0.00     0.241 C 
HETATM   10  O1  UNL     1      25.923   7.299  47.510  1.00  0.00    -0.269 OA
HETATM   11  H4  UNL     1      27.949   6.912  49.815  1.00  0.00     0.169 HD
BRANCH   9  12
HETATM   12  C2  UNL     1      28.265   8.268  47.420  1.00  0.00     0.048 C 
HETATM   13  C1  UNL     1      28.231   8.346  46.070  1.00  0.00     0.037 C 
ENDBRANCH   9  12
ENDBRANCH   5   8
ENDBRANCH   1   2
BRANCH   1  14
HETATM   14  C9  UNL     1      22.645   2.957  52.168  1.00  0.00    -0.065 C 
HETATM   15  C10 UNL     1      21.460   2.133  51.975  1.00  0.00     0.015 C 
HETATM   16  C11 UNL     1      21.779   0.748  52.597  1.00  0.00    -0.035 A 
HETATM   17  C12 UNL     1      20.788   0.775  53.553  1.00  0.00     0.011 A 
HETATM   18  C16 UNL     1      23.011   0.244  52.304  1.00  0.00     0.024 A 
HETATM   19  C13 UNL     1      21.243  -0.023  54.642  1.00  0.00     0.002 A 
HETATM   20  C14 UNL     1      22.508  -0.657  54.615  1.00  0.00     0.013 A 
HETATM   21  C15 UNL     1      23.265  -0.453  53.452  1.00  0.00    -0.018 A 
HETATM   22  C17 UNL     1      24.646  -0.839  53.931  1.00  0.00     0.127 C 
HETATM   23  N2  UNL     1      25.283   0.341  53.754  1.00  0.00    -0.276 NA
HETATM   24  C18 UNL     1      24.689   1.438  53.257  1.00  0.00     0.099 C 
HETATM   25  C19 UNL     1      23.894   2.239  52.775  1.00  0.00     0.068 C 
ENDBRANCH   1  14
TORSDOF 4
ENDMDL
MODEL 9
REMARK VINA RESULT:      -7.6      6.209      8.240
REMARK  4 active torsions:
REMARK  status: ('A' for Active; 'I' for Inactive)
REMARK    1  A    between atoms: C2_2  and  C3_3 
REMARK       I    between atoms: C3_3  and  N1_5 
REMARK    2  A    between atoms: N1_5  and  C4_6 
REMARK    3  A    between atoms: C7_9  and  C8_10 
REMARK    4  A    between atoms: C8_10  and  C9_11 
ROOT
HETATM    1  C8  UNL     1      26.341   6.362  48.597  1.00  0.00     0.073 C 
ENDROOT
BRANCH   1   2
HETATM    2  C7  UNL     1      26.084   5.104  49.306  1.00  0.00    -0.054 A 
HETATM    3  C6  UNL     1      26.774   3.927  49.419  1.00  0.00     0.010 A 
HETATM    4  C5  UNL     1      26.444   2.777  50.100  1.00  0.00     0.030 A 
HETATM    5  C4  UNL     1      25.253   2.855  50.743  1.00  0.00     0.035 A 
HETATM    6  C21 UNL     1      24.396   3.958  50.756  1.00  0.00     0.030 A 
HETATM    7  C20 UNL     1      24.867   5.058  50.016  1.00  0.00     0.010 A 
BRANCH   5   8
HETATM    8  N1  UNL     1      24.728   1.728  51.457  1.00  0.00    -0.324 N 
HETATM    9  C3  UNL     1      25.044   1.373  52.830  1.00  0.00     0.241 C 
HETATM   10  O1  UNL     1      25.843   2.303  53.146  1.00  0.00    -0.269 OA
HETATM   11  H4  UNL     1      24.041   1.087  50.946  1.00  0.00     0.169 HD
BRANCH   9  12
HETATM   12  C2  UNL     1      24.491   0.192  53.528  1.00  0.00     0.048 C 
HETATM   13  C1  UNL     1      25.451  -0.458  54.223  1.00  0.00     0.037 C 
ENDBRANCH   9  12
ENDBRANCH   5   8
ENDBRANCH   1   2
BRANCH   1  14
HETATM   14  C9  UNL     1      27.679   6.850  48.511  1.00  0.00    -0.065 C 
HETATM   15  C10 UNL     1      28.695   6.006  47.899  1.00  0.00     0.015 C 
HETATM   16  C11 UNL     1      30.027   6.798  47.968  1.00  0.00    -0.035 A 
HETATM   17  C12 UNL     1      30.704   5.894  48.756  1.00  0.00     0.011 A 
HETATM   18  C16 UNL     1      29.945   8.116  47.628  1.00  0.00     0.024 A 
HETATM   19  C13 UNL     1      31.674   6.634  49.493  1.00  0.00     0.002 A 
HETATM   20  C14 UNL     1      31.797   8.037  49.351  1.00  0.00     0.013 A 
HETATM   21  C15 UNL     1      30.915   8.635  48.438  1.00  0.00    -0.018 A 
HETATM   22  C17 UNL     1      30.989  10.082  48.867  1.00  0.00     0.127 C 
HETATM   23  N2  UNL     1      29.698  10.276  49.223  1.00  0.00    -0.276 NA
HETATM   24  C18 UNL     1      28.752   9.328  49.129  1.00  0.00     0.099 C 
HETATM   25  C19 UNL     1      28.131   8.291  48.916  1.00  0.00     0.068 C 
ENDBRANCH   1  14
TORSDOF 4
ENDMDL
