MODEL 1
REMARK VINA RESULT:      -7.9      0.000      0.000
REMARK  8 active torsions:
REMARK  status: ('A' for Active; 'I' for Inactive)
REMARK    1  A    between atoms: O1_2  and  C2_3 
REMARK    2  A    between atoms: C6_9  and  N3_10 
REMARK    3  A    between atoms: N3_10  and  C7_11 
REMARK    4  A    between atoms: C15_21  and  O2_22 
REMARK    5  A    between atoms: O2_22  and  C16_23 
REMARK    6  A    between atoms: C16_23  and  C17_24 
REMARK    7  A    between atoms: C17_24  and  N4_25 
REMARK    8  A    between atoms: N4_25  and  C18_26 
ROOT
HETATM    1  C2  UNL     1      22.630   2.686  50.053  1.00  0.00     0.102 C 
HETATM    2  C3  UNL     1      23.235   2.992  48.887  1.00  0.00     0.059 C 
HETATM    3  C4  UNL     1      23.402   4.360  48.754  1.00  0.00     0.121 C 
HETATM    4  N1  UNL     1      24.010   5.080  49.708  1.00  0.00    -0.254 NA
HETATM    5  C5  UNL     1      24.977   4.644  50.513  1.00  0.00     0.234 C 
HETATM    6  N2  UNL     1      25.394   3.407  50.812  1.00  0.00    -0.225 NA
HETATM    7  C6  UNL     1      25.484   2.968  52.063  1.00  0.00     0.129 C 
HETATM    8  C13 UNL     1      24.219   3.068  52.576  1.00  0.00     0.053 C 
HETATM    9  C14 UNL     1      23.114   3.812  52.270  1.00  0.00     0.043 C 
HETATM   10  C15 UNL     1      22.409   3.447  51.154  1.00  0.00     0.102 C 
ENDROOT
BRANCH   7  11
HETATM   11  N3  UNL     1      26.507   2.472  52.902  1.00  0.00    -0.341 N 
HETATM   12  H7  UNL     1      26.966   3.109  53.564  1.00  0.00     0.167 HD
BRANCH  11  13
HETATM   13  C7  UNL     1      26.948   1.124  52.890  1.00  0.00     0.035 A 
HETATM   14  C8  UNL     1      26.106   0.101  52.446  1.00  0.00     0.032 A 
HETATM   15  C9  UNL     1      26.479  -1.222  52.418  1.00  0.00     0.046 A 
HETATM   16  C10 UNL     1      27.731  -1.598  52.839  1.00  0.00     0.138 A 
HETATM   17  F1  UNL     1      28.063  -2.907  52.798  1.00  0.00    -0.204 F 
HETATM   18  C11 UNL     1      28.598  -0.623  53.287  1.00  0.00     0.074 A 
HETATM   19 CL1  UNL     1      30.167  -1.140  53.812  1.00  0.00    -0.081 Cl
HETATM   20  C12 UNL     1      28.189   0.689  53.301  1.00  0.00     0.056 A 
ENDBRANCH  11  13
ENDBRANCH   7  11
BRANCH  10  21
HETATM   21  O2  UNL     1      21.137   3.721  50.685  1.00  0.00    -0.347 OA
BRANCH  21  22
HETATM   22  C16 UNL     1      20.102   3.696  51.689  1.00  0.00     0.195 C 
BRANCH  22  23
HETATM   23  C17 UNL     1      19.881   2.241  51.983  1.00  0.00     0.141 C 
BRANCH  23  24
HETATM   24  N4  UNL     1      20.328   1.752  53.222  1.00  0.00    -0.412 N 
HETATM   25  H17 UNL     1      19.935   2.265  54.014  1.00  0.00     0.154 HD
BRANCH  24  26
HETATM   26  C18 UNL     1      20.536   0.380  53.430  1.00  0.00     0.014 C 
HETATM   27  C19 UNL     1      21.609  -0.053  52.406  1.00  0.00     0.037 C 
HETATM   28  C20 UNL     1      21.043  -0.034  54.772  1.00  0.00     0.037 C 
HETATM   29  C21 UNL     1      19.337  -0.513  53.101  1.00  0.00     0.037 C 
ENDBRANCH  24  26
ENDBRANCH  23  24
ENDBRANCH  22  23
ENDBRANCH  21  22
ENDBRANCH  10  21
BRANCH   1  30
HETATM   30  O1  UNL     1      22.389   1.403  49.614  1.00  0.00    -0.353 OA
HETATM   31  C1  UNL     1      21.452   1.121  48.605  1.00  0.00     0.210 C 
ENDBRANCH   1  30
TORSDOF 8
ENDMDL
MODEL 2
REMARK VINA RESULT:      -7.6      2.134      3.276
REMARK  8 active torsions:
REMARK  status: ('A' for Active; 'I' for Inactive)
REMARK    1  A    between atoms: O1_2  and  C2_3 
REMARK    2  A    between atoms: C6_9  and  N3_10 
REMARK    3  A    between atoms: N3_10  and  C7_11 
REMARK    4  A    between atoms: C15_21  and  O2_22 
REMARK    5  A    between atoms: O2_22  and  C16_23 
REMARK    6  A    between atoms: C16_23  and  C17_24 
REMARK    7  A    between atoms: C17_24  and  N4_25 
REMARK    8  A    between atoms: N4_25  and  C18_26 
ROOT
HETATM    1  C2  UNL     1      22.132   4.962  50.082  1.00  0.00     0.102 C 
HETATM    2  C3  UNL     1      21.587   5.138  51.302  1.00  0.00     0.059 C 
HETATM    3  C4  UNL     1      20.968   3.981  51.745  1.00  0.00     0.121 C 
HETATM    4  N1  UNL     1      21.625   2.813  51.779  1.00  0.00    -0.254 NA
HETATM    5  C5  UNL     1      22.933   2.662  51.986  1.00  0.00     0.234 C 
HETATM    6  N2  UNL     1      23.948   3.534  51.926  1.00  0.00    -0.225 NA
HETATM    7  C6  UNL     1      25.025   3.321  51.178  1.00  0.00     0.129 C 
HETATM    8  C13 UNL     1      24.562   3.201  49.896  1.00  0.00     0.053 C 
HETATM    9  C14 UNL     1      23.359   2.874  49.336  1.00  0.00     0.043 C 
HETATM   10  C15 UNL     1      22.373   3.824  49.383  1.00  0.00     0.102 C 
ENDROOT
BRANCH   7  11
HETATM   11  N3  UNL     1      26.416   3.197  51.399  1.00  0.00    -0.341 N 
HETATM   12  H7  UNL     1      27.046   3.927  51.048  1.00  0.00     0.167 HD
BRANCH  11  13
HETATM   13  C7  UNL     1      27.008   2.109  52.091  1.00  0.00     0.035 A 
HETATM   14  C8  UNL     1      28.039   2.324  53.009  1.00  0.00     0.032 A 
HETATM   15  C9  UNL     1      28.653   1.308  53.703  1.00  0.00     0.046 A 
HETATM   16  C10 UNL     1      28.262   0.005  53.512  1.00  0.00     0.138 A 
HETATM   17  F1  UNL     1      28.888  -0.968  54.211  1.00  0.00    -0.204 F 
HETATM   18  C11 UNL     1      27.248  -0.257  52.615  1.00  0.00     0.074 A 
HETATM   19 CL1  UNL     1      26.787  -1.914  52.403  1.00  0.00    -0.081 Cl
HETATM   20  C12 UNL     1      26.659   0.786  51.940  1.00  0.00     0.056 A 
ENDBRANCH  11  13
ENDBRANCH   7  11
BRANCH  10  21
HETATM   21  O2  UNL     1      21.180   4.010  48.709  1.00  0.00    -0.347 OA
BRANCH  21  22
HETATM   22  C16 UNL     1      20.680   2.841  48.027  1.00  0.00     0.195 C 
BRANCH  22  23
HETATM   23  C17 UNL     1      19.444   2.451  48.784  1.00  0.00     0.141 C 
BRANCH  23  24
HETATM   24  N4  UNL     1      19.499   1.282  49.563  1.00  0.00    -0.412 N 
HETATM   25  H17 UNL     1      20.452   1.039  49.842  1.00  0.00     0.154 HD
BRANCH  24  26
HETATM   26  C18 UNL     1      18.497   0.986  50.500  1.00  0.00     0.014 C 
HETATM   27  C19 UNL     1      19.169   0.120  51.589  1.00  0.00     0.037 C 
HETATM   28  C20 UNL     1      17.867   2.140  51.207  1.00  0.00     0.037 C 
HETATM   29  C21 UNL     1      17.365   0.099  49.977  1.00  0.00     0.037 C 
ENDBRANCH  24  26
ENDBRANCH  23  24
ENDBRANCH  22  23
ENDBRANCH  21  22
ENDBRANCH  10  21
BRANCH   1  30
HETATM   30  O1  UNL     1      22.293   6.322  49.935  1.00  0.00    -0.353 OA
HETATM   31  C1  UNL     1      21.654   7.246  50.780  1.00  0.00     0.210 C 
ENDBRANCH   1  30
TORSDOF 8
ENDMDL
MODEL 3
REMARK VINA RESULT:      -7.5      2.218      3.211
REMARK  8 active torsions:
REMARK  status: ('A' for Active; 'I' for Inactive)
REMARK    1  A    between atoms: O1_2  and  C2_3 
REMARK    2  A    between atoms: C6_9  and  N3_10 
REMARK    3  A    between atoms: N3_10  and  C7_11 
REMARK    4  A    between atoms: C15_21  and  O2_22 
REMARK    5  A    between atoms: O2_22  and  C16_23 
REMARK    6  A    between atoms: C16_23  and  C17_24 
REMARK    7  A    between atoms: C17_24  and  N4_25 
REMARK    8  A    between atoms: N4_25  and  C18_26 
ROOT
HETATM    1  C2  UNL     1      21.494   1.372  52.621  1.00  0.00     0.102 C 
HETATM    2  C3  UNL     1      21.489   0.392  51.694  1.00  0.00     0.059 C 
HETATM    3  C4  UNL     1      21.224   0.899  50.432  1.00  0.00     0.121 C 
HETATM    4  N1  UNL     1      21.947   1.909  49.925  1.00  0.00    -0.254 NA
HETATM    5  C5  UNL     1      23.230   2.154  50.185  1.00  0.00     0.234 C 
HETATM    6  N2  UNL     1      24.039   1.714  51.157  1.00  0.00    -0.225 NA
HETATM    7  C6  UNL     1      24.725   2.539  51.940  1.00  0.00     0.129 C 
HETATM    8  C13 UNL     1      23.786   3.316  52.563  1.00  0.00     0.053 C 
HETATM    9  C14 UNL     1      22.497   3.674  52.283  1.00  0.00     0.043 C 
HETATM   10  C15 UNL     1      21.533   2.720  52.474  1.00  0.00     0.102 C 
ENDROOT
BRANCH   7  11
HETATM   11  N3  UNL     1      26.087   2.771  52.239  1.00  0.00    -0.341 N 
HETATM   12  H7  UNL     1      26.469   3.718  52.138  1.00  0.00     0.167 HD
BRANCH  11  13
HETATM   13  C7  UNL     1      26.978   1.758  52.681  1.00  0.00     0.035 A 
HETATM   14  C8  UNL     1      28.159   2.090  53.348  1.00  0.00     0.032 A 
HETATM   15  C9  UNL     1      29.061   1.152  53.793  1.00  0.00     0.046 A 
HETATM   16  C10 UNL     1      28.825  -0.186  53.591  1.00  0.00     0.138 A 
HETATM   17  F1  UNL     1      29.733  -1.080  54.041  1.00  0.00    -0.204 F 
HETATM   18  C11 UNL     1      27.671  -0.562  52.935  1.00  0.00     0.074 A 
HETATM   19 CL1  UNL     1      27.413  -2.259  52.698  1.00  0.00    -0.081 Cl
HETATM   20  C12 UNL     1      26.794   0.405  52.504  1.00  0.00     0.056 A 
ENDBRANCH  11  13
ENDBRANCH   7  11
BRANCH  10  21
HETATM   21  O2  UNL     1      20.156   2.753  52.597  1.00  0.00    -0.347 OA
BRANCH  21  22
HETATM   22  C16 UNL     1      19.491   3.702  51.738  1.00  0.00     0.195 C 
BRANCH  22  23
HETATM   23  C17 UNL     1      18.237   3.009  51.291  1.00  0.00     0.141 C 
BRANCH  23  24
HETATM   24  N4  UNL     1      18.002   1.712  51.778  1.00  0.00    -0.412 N 
HETATM   25  H17 UNL     1      18.020   1.665  52.799  1.00  0.00     0.154 HD
BRANCH  24  26
HETATM   26  C18 UNL     1      17.090   0.853  51.146  1.00  0.00     0.014 C 
HETATM   27  C19 UNL     1      15.683   1.334  51.568  1.00  0.00     0.037 C 
HETATM   28  C20 UNL     1      17.099   0.834  49.653  1.00  0.00     0.037 C 
HETATM   29  C21 UNL     1      17.135  -0.601  51.620  1.00  0.00     0.037 C 
ENDBRANCH  24  26
ENDBRANCH  23  24
ENDBRANCH  22  23
ENDBRANCH  21  22
ENDBRANCH  10  21
BRANCH   1  30
HETATM   30  O1  UNL     1      21.446   0.441  53.635  1.00  0.00    -0.353 OA
HETATM   31  C1  UNL     1      22.341  -0.641  53.698  1.00  0.00     0.210 C 
ENDBRANCH   1  30
TORSDOF 8
ENDMDL
MODEL 4
REMARK VINA RESULT:      -7.4      3.606      6.757
REMARK  8 active torsions:
REMARK  status: ('A' for Active; 'I' for Inactive)
REMARK    1  A    between atoms: O1_2  and  C2_3 
REMARK    2  A    between atoms: C6_9  and  N3_10 
REMARK    3  A    between atoms: N3_10  and  C7_11 
REMARK    4  A    between atoms: C15_21  and  O2_22 
REMARK    5  A    between atoms: O2_22  and  C16_23 
REMARK    6  A    between atoms: C16_23  and  C17_24 
REMARK    7  A    between atoms: C17_24  and  N4_25 
REMARK    8  A    between atoms: N4_25  and  C18_26 
ROOT
HETATM    1  C2  UNL     1      24.877   5.677  49.998  1.00  0.00     0.102 C 
HETATM    2  C3  UNL     1      23.546   5.808  49.824  1.00  0.00     0.059 C 
HETATM    3  C4  UNL     1      23.124   5.151  48.680  1.00  0.00     0.121 C 
HETATM    4  N1  UNL     1      23.416   3.858  48.476  1.00  0.00    -0.254 NA
HETATM    5  C5  UNL     1      23.566   2.936  49.425  1.00  0.00     0.234 C 
HETATM    6  N2  UNL     1      23.760   3.044  50.746  1.00  0.00    -0.225 NA
HETATM    7  C6  UNL     1      24.777   2.454  51.366  1.00  0.00     0.129 C 
HETATM    8  C13 UNL     1      25.906   2.963  50.782  1.00  0.00     0.053 C 
HETATM    9  C14 UNL     1      26.184   3.547  49.578  1.00  0.00     0.043 C 
HETATM   10  C15 UNL     1      25.762   4.838  49.402  1.00  0.00     0.102 C 
ENDROOT
BRANCH   7  11
HETATM   11  N3  UNL     1      24.932   1.502  52.398  1.00  0.00    -0.341 N 
HETATM   12  H7  UNL     1      24.101   1.159  52.894  1.00  0.00     0.167 HD
BRANCH  11  13
HETATM   13  C7  UNL     1      26.187   0.977  52.802  1.00  0.00     0.035 A 
HETATM   14  C8  UNL     1      26.519  -0.355  52.543  1.00  0.00     0.032 A 
HETATM   15  C9  UNL     1      27.717  -0.918  52.916  1.00  0.00     0.046 A 
HETATM   16  C10 UNL     1      28.659  -0.167  53.576  1.00  0.00     0.138 A 
HETATM   17  F1  UNL     1      29.826  -0.753  53.927  1.00  0.00    -0.204 F 
HETATM   18  C11 UNL     1      28.376   1.154  53.854  1.00  0.00     0.074 A 
HETATM   19 CL1  UNL     1      29.591   2.065  54.691  1.00  0.00    -0.081 Cl
HETATM   20  C12 UNL     1      27.167   1.681  53.466  1.00  0.00     0.056 A 
ENDBRANCH  11  13
ENDBRANCH   7  11
BRANCH  10  21
HETATM   21  O2  UNL     1      26.083   5.844  48.509  1.00  0.00    -0.347 OA
BRANCH  21  22
HETATM   22  C16 UNL     1      27.495   6.104  48.369  1.00  0.00     0.195 C 
BRANCH  22  23
HETATM   23  C17 UNL     1      27.640   7.583  48.588  1.00  0.00     0.141 C 
BRANCH  23  24
HETATM   24  N4  UNL     1      28.728   8.023  49.360  1.00  0.00    -0.412 N 
HETATM   25  H17 UNL     1      28.898   7.430  50.175  1.00  0.00     0.154 HD
BRANCH  24  26
HETATM   26  C18 UNL     1      29.871   8.572  48.758  1.00  0.00     0.014 C 
HETATM   27  C19 UNL     1      30.976   7.498  48.872  1.00  0.00     0.037 C 
HETATM   28  C20 UNL     1      29.773   8.924  47.311  1.00  0.00     0.037 C 
HETATM   29  C21 UNL     1      30.464   9.783  49.482  1.00  0.00     0.037 C 
ENDBRANCH  24  26
ENDBRANCH  23  24
ENDBRANCH  22  23
ENDBRANCH  21  22
ENDBRANCH  10  21
BRANCH   1  30
HETATM   30  O1  UNL     1      24.873   6.678  50.944  1.00  0.00    -0.353 OA
HETATM   31  C1  UNL     1      24.152   7.871  50.766  1.00  0.00     0.210 C 
ENDBRANCH   1  30
TORSDOF 8
ENDMDL
MODEL 5
REMARK VINA RESULT:      -7.4      1.814      4.697
REMARK  8 active torsions:
REMARK  status: ('A' for Active; 'I' for Inactive)
REMARK    1  A    between atoms: O1_2  and  C2_3 
REMARK    2  A    between atoms: C6_9  and  N3_10 
REMARK    3  A    between atoms: N3_10  and  C7_11 
REMARK    4  A    between atoms: C15_21  and  O2_22 
REMARK    5  A    between atoms: O2_22  and  C16_23 
REMARK    6  A    between atoms: C16_23  and  C17_24 
REMARK    7  A    between atoms: C17_24  and  N4_25 
REMARK    8  A    between atoms: N4_25  and  C18_26 
ROOT
HETATM    1  C2  UNL     1      21.803   3.552  51.839  1.00  0.00     0.102 C 
HETATM    2  C3  UNL     1      20.652   3.478  52.538  1.00  0.00     0.059 C 
HETATM    3  C4  UNL     1      19.751   2.620  51.927  1.00  0.00     0.121 C 
HETATM    4  N1  UNL     1      20.095   1.363  51.612  1.00  0.00    -0.254 NA
HETATM    5  C5  UNL     1      20.969   0.607  52.274  1.00  0.00     0.234 C 
HETATM    6  N2  UNL     1      21.909   0.918  53.177  1.00  0.00    -0.225 NA
HETATM    7  C6  UNL     1      23.181   0.561  53.032  1.00  0.00     0.129 C 
HETATM    8  C13 UNL     1      23.589   1.134  51.858  1.00  0.00     0.053 C 
HETATM    9  C14 UNL     1      22.952   1.582  50.735  1.00  0.00     0.043 C 
HETATM   10  C15 UNL     1      22.275   2.768  50.837  1.00  0.00     0.102 C 
ENDROOT
BRANCH   7  11
HETATM   11  N3  UNL     1      24.114  -0.213  53.757  1.00  0.00    -0.341 N 
HETATM   12  H7  UNL     1      23.775  -0.883  54.457  1.00  0.00     0.167 HD
BRANCH  11  13
HETATM   13  C7  UNL     1      25.519  -0.123  53.576  1.00  0.00     0.035 A 
HETATM   14  C8  UNL     1      26.259  -1.238  53.175  1.00  0.00     0.032 A 
HETATM   15  C9  UNL     1      27.621  -1.210  52.990  1.00  0.00     0.046 A 
HETATM   16  C10 UNL     1      28.325  -0.049  53.198  1.00  0.00     0.138 A 
HETATM   17  F1  UNL     1      29.663  -0.058  53.006  1.00  0.00    -0.204 F 
HETATM   18  C11 UNL     1      27.637   1.079  53.595  1.00  0.00     0.074 A 
HETATM   19 CL1  UNL     1      28.563   2.522  53.851  1.00  0.00    -0.081 Cl
HETATM   20  C12 UNL     1      26.275   1.012  53.771  1.00  0.00     0.056 A 
ENDBRANCH  11  13
ENDBRANCH   7  11
BRANCH  10  21
HETATM   21  O2  UNL     1      21.780   3.678  49.920  1.00  0.00    -0.347 OA
BRANCH  21  22
HETATM   22  C16 UNL     1      22.337   3.567  48.594  1.00  0.00     0.195 C 
BRANCH  22  23
HETATM   23  C17 UNL     1      23.588   4.396  48.628  1.00  0.00     0.141 C 
BRANCH  23  24
HETATM   24  N4  UNL     1      24.812   3.721  48.769  1.00  0.00    -0.412 N 
HETATM   25  H17 UNL     1      25.127   3.288  47.899  1.00  0.00     0.154 HD
BRANCH  24  26
HETATM   26  C18 UNL     1      25.826   4.222  49.600  1.00  0.00     0.014 C 
HETATM   27  C19 UNL     1      25.303   5.566  50.155  1.00  0.00     0.037 C 
HETATM   28  C20 UNL     1      26.204   3.395  50.785  1.00  0.00     0.037 C 
HETATM   29  C21 UNL     1      27.122   4.604  48.881  1.00  0.00     0.037 C 
ENDBRANCH  24  26
ENDBRANCH  23  24
ENDBRANCH  22  23
ENDBRANCH  21  22
ENDBRANCH  10  21
BRANCH   1  30
HETATM   30  O1  UNL     1      22.190   4.662  52.556  1.00  0.00    -0.353 OA
HETATM   31  C1  UNL     1      23.496   4.813  53.053  1.00  0.00     0.210 C 
ENDBRANCH   1  30
TORSDOF 8
ENDMDL
MODEL 6
REMARK VINA RESULT:      -7.4      2.135      3.223
REMARK  8 active torsions:
REMARK  status: ('A' for Active; 'I' for Inactive)
REMARK    1  A    between atoms: O1_2  and  C2_3 
REMARK    2  A    between atoms: C6_9  and  N3_10 
REMARK    3  A    between atoms: N3_10  and  C7_11 
REMARK    4  A    between atoms: C15_21  and  O2_22 
REMARK    5  A    between atoms: O2_22  and  C16_23 
REMARK    6  A    between atoms: C16_23  and  C17_24 
REMARK    7  A    between atoms: C17_24  and  N4_25 
REMARK    8  A    between atoms: N4_25  and  C18_26 
ROOT
HETATM    1  C2  UNL     1      24.300   3.982  49.753  1.00  0.00     0.102 C 
HETATM    2  C3  UNL     1      24.265   5.188  50.354  1.00  0.00     0.059 C 
HETATM    3  C4  UNL     1      22.993   5.477  50.821  1.00  0.00     0.121 C 
HETATM    4  N1  UNL     1      22.339   4.625  51.623  1.00  0.00    -0.254 NA
HETATM    5  C5  UNL     1      22.901   3.799  52.504  1.00  0.00     0.234 C 
HETATM    6  N2  UNL     1      24.164   3.374  52.642  1.00  0.00    -0.225 NA
HETATM    7  C6  UNL     1      24.479   2.083  52.691  1.00  0.00     0.129 C 
HETATM    8  C13 UNL     1      24.037   1.555  51.508  1.00  0.00     0.053 C 
HETATM    9  C14 UNL     1      23.093   1.916  50.588  1.00  0.00     0.043 C 
HETATM   10  C15 UNL     1      23.399   2.968  49.765  1.00  0.00     0.102 C 
ENDROOT
BRANCH   7  11
HETATM   11  N3  UNL     1      25.108   1.218  53.613  1.00  0.00    -0.341 N 
HETATM   12  H7  UNL     1      24.550   0.790  54.362  1.00  0.00     0.167 HD
BRANCH  11  13
HETATM   13  C7  UNL     1      26.489   0.895  53.572  1.00  0.00     0.035 A 
HETATM   14  C8  UNL     1      27.459   1.897  53.657  1.00  0.00     0.032 A 
HETATM   15  C9  UNL     1      28.810   1.642  53.616  1.00  0.00     0.046 A 
HETATM   16  C10 UNL     1      29.268   0.353  53.486  1.00  0.00     0.138 A 
HETATM   17  F1  UNL     1      30.602   0.140  53.449  1.00  0.00    -0.204 F 
HETATM   18  C11 UNL     1      28.347  -0.670  53.398  1.00  0.00     0.074 A 
HETATM   19 CL1  UNL     1      28.967  -2.280  53.231  1.00  0.00    -0.081 Cl
HETATM   20  C12 UNL     1      27.005  -0.376  53.441  1.00  0.00     0.056 A 
ENDBRANCH  11  13
ENDBRANCH   7  11
BRANCH  10  21
HETATM   21  O2  UNL     1      22.888   3.434  48.567  1.00  0.00    -0.347 OA
BRANCH  21  22
HETATM   22  C16 UNL     1      22.096   2.479  47.831  1.00  0.00     0.195 C 
BRANCH  22  23
HETATM   23  C17 UNL     1      20.689   2.693  48.307  1.00  0.00     0.141 C 
BRANCH  23  24
HETATM   24  N4  UNL     1      19.954   1.559  48.695  1.00  0.00    -0.412 N 
HETATM   25  H17 UNL     1      20.423   0.684  48.456  1.00  0.00     0.154 HD
BRANCH  24  26
HETATM   26  C18 UNL     1      19.216   1.546  49.889  1.00  0.00     0.014 C 
HETATM   27  C19 UNL     1      19.370   2.955  50.505  1.00  0.00     0.037 C 
HETATM   28  C20 UNL     1      17.748   1.294  49.776  1.00  0.00     0.037 C 
HETATM   29  C21 UNL     1      19.756   0.612  50.973  1.00  0.00     0.037 C 
ENDBRANCH  24  26
ENDBRANCH  23  24
ENDBRANCH  22  23
ENDBRANCH  21  22
ENDBRANCH  10  21
BRANCH   1  30
HETATM   30  O1  UNL     1      25.531   4.267  49.205  1.00  0.00    -0.353 OA
HETATM   31  C1  UNL     1      26.689   3.555  49.558  1.00  0.00     0.210 C 
ENDBRANCH   1  30
TORSDOF 8
ENDMDL
MODEL 7
REMARK VINA RESULT:      -7.3      3.169      5.541
REMARK  8 active torsions:
REMARK  status: ('A' for Active; 'I' for Inactive)
REMARK    1  A    between atoms: O1_2  and  C2_3 
REMARK    2  A    between atoms: C6_9  and  N3_10 
REMARK    3  A    between atoms: N3_10  and  C7_11 
REMARK    4  A    between atoms: C15_21  and  O2_22 
REMARK    5  A    between atoms: O2_22  and  C16_23 
REMARK    6  A    between atoms: C16_23  and  C17_24 
REMARK    7  A    between atoms: C17_24  and  N4_25 
REMARK    8  A    between atoms: N4_25  and  C18_26 
ROOT
HETATM    1  C2  UNL     1      21.561   1.276  50.948  1.00  0.00     0.102 C 
HETATM    2  C3  UNL     1      20.267   1.622  50.784  1.00  0.00     0.059 C 
HETATM    3  C4  UNL     1      19.724   2.100  51.965  1.00  0.00     0.121 C 
HETATM    4  N1  UNL     1      20.309   3.098  52.643  1.00  0.00    -0.254 NA
HETATM    5  C5  UNL     1      21.018   4.090  52.108  1.00  0.00     0.234 C 
HETATM    6  N2  UNL     1      21.576   4.232  50.899  1.00  0.00    -0.225 NA
HETATM    7  C6  UNL     1      22.863   4.521  50.738  1.00  0.00     0.129 C 
HETATM    8  C13 UNL     1      23.545   3.500  51.343  1.00  0.00     0.053 C 
HETATM    9  C14 UNL     1      23.243   2.588  52.316  1.00  0.00     0.043 C 
HETATM   10  C15 UNL     1      22.422   1.551  51.960  1.00  0.00     0.102 C 
ENDROOT
BRANCH   7  11
HETATM   11  N3  UNL     1      23.611   5.558  50.137  1.00  0.00    -0.341 N 
HETATM   12  H7  UNL     1      23.202   6.497  50.067  1.00  0.00     0.167 HD
BRANCH  11  13
HETATM   13  C7  UNL     1      24.919   5.383  49.615  1.00  0.00     0.035 A 
HETATM   14  C8  UNL     1      25.578   4.157  49.738  1.00  0.00     0.032 A 
HETATM   15  C9  UNL     1      26.847   3.933  49.257  1.00  0.00     0.046 A 
HETATM   16  C10 UNL     1      27.532   4.938  48.618  1.00  0.00     0.138 A 
HETATM   17  F1  UNL     1      28.777   4.682  48.158  1.00  0.00    -0.204 F 
HETATM   18  C11 UNL     1      26.923   6.166  48.474  1.00  0.00     0.074 A 
HETATM   19 CL1  UNL     1      27.824   7.407  47.665  1.00  0.00    -0.081 Cl
HETATM   20  C12 UNL     1      25.654   6.353  48.969  1.00  0.00     0.056 A 
ENDBRANCH  11  13
ENDBRANCH   7  11
BRANCH  10  21
HETATM   21  O2  UNL     1      22.130   0.319  52.515  1.00  0.00    -0.347 OA
BRANCH  21  22
HETATM   22  C16 UNL     1      22.734   0.074  53.803  1.00  0.00     0.195 C 
BRANCH  22  23
HETATM   23  C17 UNL     1      23.909  -0.814  53.517  1.00  0.00     0.141 C 
BRANCH  23  24
HETATM   24  N4  UNL     1      25.159  -0.426  54.030  1.00  0.00    -0.412 N 
HETATM   25  H17 UNL     1      25.310  -0.749  54.987  1.00  0.00     0.154 HD
BRANCH  24  26
HETATM   26  C18 UNL     1      26.299  -0.389  53.213  1.00  0.00     0.014 C 
HETATM   27  C19 UNL     1      27.439   0.176  54.091  1.00  0.00     0.037 C 
HETATM   28  C20 UNL     1      26.790  -1.692  52.673  1.00  0.00     0.037 C 
HETATM   29  C21 UNL     1      26.224   0.590  52.040  1.00  0.00     0.037 C 
ENDBRANCH  24  26
ENDBRANCH  23  24
ENDBRANCH  22  23
ENDBRANCH  21  22
ENDBRANCH  10  21
BRANCH   1  30
HETATM   30  O1  UNL     1      21.555   0.605  49.745  1.00  0.00    -0.353 OA
HETATM   31  C1  UNL     1      21.626   1.279  48.514  1.00  0.00     0.210 C 
ENDBRANCH   1  30
TORSDOF 8
ENDMDL
MODEL 8
REMARK VINA RESULT:      -7.3      1.894      4.579
REMARK  8 active torsions:
REMARK  status: ('A' for Active; 'I' for Inactive)
REMARK    1  A    between atoms: O1_2  and  C2_3 
REMARK    2  A    between atoms: C6_9  and  N3_10 
REMARK    3  A    between atoms: N3_10  and  C7_11 
REMARK    4  A    between atoms: C15_21  and  O2_22 
REMARK    5  A    between atoms: O2_22  and  C16_23 
REMARK    6  A    between atoms: C16_23  and  C17_24 
REMARK    7  A    between atoms: C17_24  and  N4_25 
REMARK    8  A    between atoms: N4_25  and  C18_26 
ROOT
HETATM    1  C2  UNL     1      21.520   3.108  51.469  1.00  0.00     0.102 C 
HETATM    2  C3  UNL     1      20.807   2.542  52.464  1.00  0.00     0.059 C 
HETATM    3  C4  UNL     1      20.678   1.176  52.273  1.00  0.00     0.121 C 
HETATM    4  N1  UNL     1      21.753   0.399  52.076  1.00  0.00    -0.254 NA
HETATM    5  C5  UNL     1      22.969   0.612  52.578  1.00  0.00     0.234 C 
HETATM    6  N2  UNL     1      23.527   1.701  53.122  1.00  0.00    -0.225 NA
HETATM    7  C6  UNL     1      24.677   2.204  52.686  1.00  0.00     0.129 C 
HETATM    8  C13 UNL     1      24.465   2.513  51.369  1.00  0.00     0.053 C 
HETATM    9  C14 UNL     1      23.586   2.088  50.413  1.00  0.00     0.043 C 
HETATM   10  C15 UNL     1      22.296   2.540  50.512  1.00  0.00     0.102 C 
ENDROOT
BRANCH   7  11
HETATM   11  N3  UNL     1      25.954   2.461  53.234  1.00  0.00    -0.341 N 
HETATM   12  H7  UNL     1      26.166   3.398  53.596  1.00  0.00     0.167 HD
BRANCH  11  13
HETATM   13  C7  UNL     1      26.983   1.488  53.318  1.00  0.00     0.035 A 
HETATM   14  C8  UNL     1      28.275   1.848  53.712  1.00  0.00     0.032 A 
HETATM   15  C9  UNL     1      29.311   0.948  53.806  1.00  0.00     0.046 A 
HETATM   16  C10 UNL     1      29.107  -0.376  53.506  1.00  0.00     0.138 A 
HETATM   17  F1  UNL     1      30.149  -1.232  53.609  1.00  0.00    -0.204 F 
HETATM   18  C11 UNL     1      27.849  -0.779  53.111  1.00  0.00     0.074 A 
HETATM   19 CL1  UNL     1      27.636  -2.459  52.739  1.00  0.00    -0.081 Cl
HETATM   20  C12 UNL     1      26.838   0.149  53.028  1.00  0.00     0.056 A 
ENDBRANCH  11  13
ENDBRANCH   7  11
BRANCH  10  21
HETATM   21  O2  UNL     1      21.226   2.598  49.638  1.00  0.00    -0.347 OA
BRANCH  21  22
HETATM   22  C16 UNL     1      21.392   1.838  48.423  1.00  0.00     0.195 C 
BRANCH  22  23
HETATM   23  C17 UNL     1      21.769   2.851  47.381  1.00  0.00     0.141 C 
BRANCH  23  24
HETATM   24  N4  UNL     1      21.164   4.117  47.456  1.00  0.00    -0.412 N 
HETATM   25  H17 UNL     1      20.378   4.141  48.108  1.00  0.00     0.154 HD
BRANCH  24  26
HETATM   26  C18 UNL     1      21.928   5.292  47.381  1.00  0.00     0.014 C 
HETATM   27  C19 UNL     1      21.064   6.408  48.011  1.00  0.00     0.037 C 
HETATM   28  C20 UNL     1      23.230   5.303  48.113  1.00  0.00     0.037 C 
HETATM   29  C21 UNL     1      22.199   5.798  45.963  1.00  0.00     0.037 C 
ENDBRANCH  24  26
ENDBRANCH  23  24
ENDBRANCH  22  23
ENDBRANCH  21  22
ENDBRANCH  10  21
BRANCH   1  30
HETATM   30  O1  UNL     1      21.115   4.363  51.865  1.00  0.00    -0.353 OA
HETATM   31  C1  UNL     1      21.859   5.517  51.565  1.00  0.00     0.210 C 
ENDBRANCH   1  30
TORSDOF 8
ENDMDL
MODEL 9
REMARK VINA RESULT:      -7.2      4.141      7.361
REMARK  8 active torsions:
REMARK  status: ('A' for Active; 'I' for Inactive)
REMARK    1  A    between atoms: O1_2  and  C2_3 
REMARK    2  A    between atoms: C6_9  and  N3_10 
REMARK    3  A    between atoms: N3_10  and  C7_11 
REMARK    4  A    between atoms: C15_21  and  O2_22 
REMARK    5  A    between atoms: O2_22  and  C16_23 
REMARK    6  A    between atoms: C16_23  and  C17_24 
REMARK    7  A    between atoms: C17_24  and  N4_25 
REMARK    8  A    between atoms: N4_25  and  C18_26 
ROOT
HETATM    1  C2  UNL     1      24.255   2.788  52.166  1.00  0.00     0.102 C 
HETATM    2  C3  UNL     1      23.841   3.674  53.095  1.00  0.00     0.059 C 
HETATM    3  C4  UNL     1      23.686   4.937  52.548  1.00  0.00     0.121 C 
HETATM    4  N1  UNL     1      22.927   5.132  51.460  1.00  0.00    -0.254 NA
HETATM    5  C5  UNL     1      21.847   4.427  51.128  1.00  0.00     0.234 C 
HETATM    6  N2  UNL     1      21.398   3.238  51.552  1.00  0.00    -0.225 NA
HETATM    7  C6  UNL     1      21.113   2.245  50.715  1.00  0.00     0.129 C 
HETATM    8  C13 UNL     1      22.279   1.985  50.047  1.00  0.00     0.053 C 
HETATM    9  C14 UNL     1      23.412   2.701  49.778  1.00  0.00     0.043 C 
HETATM   10  C15 UNL     1      24.290   2.886  50.814  1.00  0.00     0.102 C 
ENDROOT
BRANCH   7  11
HETATM   11  N3  UNL     1      19.974   1.475  50.393  1.00  0.00    -0.341 N 
HETATM   12  H7  UNL     1      19.557   1.561  49.458  1.00  0.00     0.167 HD
BRANCH  11  13
HETATM   13  C7  UNL     1      19.356   0.570  51.294  1.00  0.00     0.035 A 
HETATM   14  C8  UNL     1      20.029   0.130  52.436  1.00  0.00     0.032 A 
HETATM   15  C9  UNL     1      19.482  -0.750  53.341  1.00  0.00     0.046 A 
HETATM   16  C10 UNL     1      18.214  -1.242  53.147  1.00  0.00     0.138 A 
HETATM   17  F1  UNL     1      17.708  -2.105  54.056  1.00  0.00    -0.204 F 
HETATM   18  C11 UNL     1      17.510  -0.836  52.033  1.00  0.00     0.074 A 
HETATM   19 CL1  UNL     1      15.916  -1.484  51.825  1.00  0.00    -0.081 Cl
HETATM   20  C12 UNL     1      18.091   0.044  51.151  1.00  0.00     0.056 A 
ENDBRANCH  11  13
ENDBRANCH   7  11
BRANCH  10  21
HETATM   21  O2  UNL     1      25.618   3.262  50.896  1.00  0.00    -0.347 OA
BRANCH  21  22
HETATM   22  C16 UNL     1      26.423   2.903  49.754  1.00  0.00     0.195 C 
BRANCH  22  23
HETATM   23  C17 UNL     1      26.952   4.206  49.227  1.00  0.00     0.141 C 
BRANCH  23  24
HETATM   24  N4  UNL     1      26.560   5.382  49.889  1.00  0.00    -0.412 N 
HETATM   25  H17 UNL     1      27.198   5.641  50.644  1.00  0.00     0.154 HD
BRANCH  24  26
HETATM   26  C18 UNL     1      25.982   6.451  49.188  1.00  0.00     0.014 C 
HETATM   27  C19 UNL     1      25.738   7.567  50.229  1.00  0.00     0.037 C 
HETATM   28  C20 UNL     1      26.793   7.065  48.095  1.00  0.00     0.037 C 
HETATM   29  C21 UNL     1      24.589   6.173  48.619  1.00  0.00     0.037 C 
ENDBRANCH  24  26
ENDBRANCH  23  24
ENDBRANCH  22  23
ENDBRANCH  21  22
ENDBRANCH  10  21
BRANCH   1  30
HETATM   30  O1  UNL     1      24.573   1.876  53.148  1.00  0.00    -0.353 OA
HETATM   31  C1  UNL     1      24.116   0.548  53.112  1.00  0.00     0.210 C 
ENDBRANCH   1  30
TORSDOF 8
ENDMDL
