MODEL 1
REMARK VINA RESULT:      -7.3      0.000      0.000
REMARK  4 active torsions:
REMARK  status: ('A' for Active; 'I' for Inactive)
REMARK    1  A    between atoms: N1_2  and  C2_3 
REMARK    2  A    between atoms: N1_2  and  C3_5 
REMARK    3  A    between atoms: C3_5  and  C4_6 
REMARK    4  A    between atoms: C6_8  and  N2_9 
ROOT
HETATM    1  C4  UNL     1      24.334   1.999  51.723  1.00  0.00     0.235 A 
HETATM    2  C5  UNL     1      24.338   2.641  53.071  1.00  0.00     0.121 A 
HETATM    3  C6  UNL     1      24.394   1.143  52.877  1.00  0.00     0.205 A 
HETATM    4  N3  UNL     1      23.448   0.400  53.475  1.00  0.00    -0.406 NA
HETATM    5  C12 UNL     1      22.783  -0.318  54.174  1.00  0.00     0.294 A 
HETATM    6  N4  UNL     1      21.670  -0.133  53.357  1.00  0.00    -0.241 NA
HETATM    7  C13 UNL     1      20.499  -0.467  53.257  1.00  0.00     0.138 A 
HETATM    8  C14 UNL     1      20.268   0.321  52.007  1.00  0.00     0.131 A 
HETATM    9  N5  UNL     1      20.839   1.140  51.115  1.00  0.00    -0.271 NA
HETATM   10  C15 UNL     1      22.180   1.357  51.471  1.00  0.00     0.418 A 
HETATM   11  N6  UNL     1      23.163   2.135  50.869  1.00  0.00     0.119 NA
HETATM   12  H20 UNL     1      23.399   1.733  49.935  1.00  0.00     0.319 HD
ENDROOT
BRANCH   3  13
HETATM   13  N2  UNL     1      25.700   0.521  53.091  1.00  0.00    -0.370 N 
HETATM   14  C7  UNL     1      25.692  -0.879  52.885  1.00  0.00     0.150 C 
HETATM   15  C8  UNL     1      27.056  -1.276  52.401  1.00  0.00     0.032 C 
HETATM   16  C9  UNL     1      27.936  -0.737  53.277  1.00  0.00     0.111 C 
HETATM   17  F1  UNL     1      29.269  -0.978  53.024  1.00  0.00    -0.209 F 
HETATM   18  C10 UNL     1      27.630   0.102  54.498  1.00  0.00     0.161 C 
HETATM   19 CL1  UNL     1      29.051   1.083  54.887  1.00  0.00    -0.116 Cl
HETATM   20  C11 UNL     1      26.448   1.030  54.173  1.00  0.00     0.148 C 
ENDBRANCH   3  13
BRANCH   1  21
HETATM   21  C3  UNL     1      25.568   2.397  50.945  1.00  0.00     0.166 C 
BRANCH  21  22
HETATM   22  N1  UNL     1      25.602   3.719  50.405  1.00  0.00    -0.384 N 
HETATM   23  C1  UNL     1      26.660   3.928  49.404  1.00  0.00     0.146 C 
BRANCH  22  24
HETATM   24  C2  UNL     1      24.963   4.990  50.430  1.00  0.00     0.513 C 
HETATM   25  O1  UNL     1      24.215   5.784  51.034  1.00  0.00    -0.412 OA
ENDBRANCH  22  24
ENDBRANCH  21  22
ENDBRANCH   1  21
TORSDOF 4
ENDMDL
MODEL 2
REMARK VINA RESULT:      -7.3      3.150      5.436
REMARK  4 active torsions:
REMARK  status: ('A' for Active; 'I' for Inactive)
REMARK    1  A    between atoms: N1_2  and  C2_3 
REMARK    2  A    between atoms: N1_2  and  C3_5 
REMARK    3  A    between atoms: C3_5  and  C4_6 
REMARK    4  A    between atoms: C6_8  and  N2_9 
ROOT
HETATM    1  C4  UNL     1      25.279   2.335  53.110  1.00  0.00     0.235 A 
HETATM    2  C5  UNL     1      25.263   2.024  51.650  1.00  0.00     0.121 A 
HETATM    3  C6  UNL     1      25.016   0.978  52.712  1.00  0.00     0.205 A 
HETATM    4  N3  UNL     1      25.803  -0.110  52.714  1.00  0.00    -0.406 NA
HETATM    5  C12 UNL     1      26.309  -1.196  52.611  1.00  0.00     0.294 A 
HETATM    6  N4  UNL     1      27.494  -0.731  53.175  1.00  0.00    -0.241 NA
HETATM    7  C13 UNL     1      28.612  -1.113  53.488  1.00  0.00     0.138 A 
HETATM    8  C14 UNL     1      29.042   0.222  54.007  1.00  0.00     0.131 A 
HETATM    9  N5  UNL     1      28.657   1.489  54.203  1.00  0.00    -0.271 NA
HETATM   10  C15 UNL     1      27.336   1.652  53.755  1.00  0.00     0.418 A 
HETATM   11  N6  UNL     1      26.517   2.775  53.735  1.00  0.00     0.119 NA
HETATM   12  H20 UNL     1      26.298   3.061  54.715  1.00  0.00     0.319 HD
ENDROOT
BRANCH   3  13
HETATM   13  N2  UNL     1      23.624   0.564  52.888  1.00  0.00    -0.370 N 
HETATM   14  C7  UNL     1      23.469  -0.501  53.805  1.00  0.00     0.150 C 
HETATM   15  C8  UNL     1      22.124  -0.353  54.453  1.00  0.00     0.032 C 
HETATM   16  C9  UNL     1      21.235  -0.210  53.442  1.00  0.00     0.111 C 
HETATM   17  F1  UNL     1      19.916  -0.058  53.811  1.00  0.00    -0.209 F 
HETATM   18  C10 UNL     1      21.518  -0.196  51.956  1.00  0.00     0.161 C 
HETATM   19 CL1  UNL     1      20.205   0.661  51.134  1.00  0.00    -0.116 Cl
HETATM   20  C11 UNL     1      22.839   0.553  51.715  1.00  0.00     0.148 C 
ENDBRANCH   3  13
BRANCH   1  21
HETATM   21  C3  UNL     1      24.173   3.307  53.455  1.00  0.00     0.166 C 
BRANCH  21  22
HETATM   22  N1  UNL     1      23.710   4.167  52.412  1.00  0.00    -0.384 N 
HETATM   23  C1  UNL     1      22.252   4.135  52.215  1.00  0.00     0.146 C 
BRANCH  22  24
HETATM   24  C2  UNL     1      24.119   5.124  51.443  1.00  0.00     0.513 C 
HETATM   25  O1  UNL     1      24.870   5.405  50.488  1.00  0.00    -0.412 OA
ENDBRANCH  22  24
ENDBRANCH  21  22
ENDBRANCH   1  21
TORSDOF 4
ENDMDL
MODEL 3
REMARK VINA RESULT:      -7.2      3.495      6.348
REMARK  4 active torsions:
REMARK  status: ('A' for Active; 'I' for Inactive)
REMARK    1  A    between atoms: N1_2  and  C2_3 
REMARK    2  A    between atoms: N1_2  and  C3_5 
REMARK    3  A    between atoms: C3_5  and  C4_6 
REMARK    4  A    between atoms: C6_8  and  N2_9 
ROOT
HETATM    1  C4  UNL     1      25.336  -0.097  53.220  1.00  0.00     0.235 A 
HETATM    2  C5  UNL     1      25.213   0.738  54.451  1.00  0.00     0.121 A 
HETATM    3  C6  UNL     1      25.908   1.222  53.199  1.00  0.00     0.205 A 
HETATM    4  N3  UNL     1      27.182   1.633  53.309  1.00  0.00    -0.406 NA
HETATM    5  C12 UNL     1      28.222   2.230  53.396  1.00  0.00     0.294 A 
HETATM    6  N4  UNL     1      28.935   1.038  53.476  1.00  0.00    -0.241 NA
HETATM    7  C13 UNL     1      30.079   0.619  53.585  1.00  0.00     0.138 A 
HETATM    8  C14 UNL     1      29.671  -0.820  53.563  1.00  0.00     0.131 A 
HETATM    9  N5  UNL     1      28.627  -1.654  53.478  1.00  0.00    -0.271 NA
HETATM   10  C15 UNL     1      27.441  -0.910  53.363  1.00  0.00     0.418 A 
HETATM   11  N6  UNL     1      26.118  -1.324  53.263  1.00  0.00     0.119 NA
HETATM   12  H20 UNL     1      25.979  -1.824  52.357  1.00  0.00     0.319 HD
ENDROOT
BRANCH   3  13
HETATM   13  N2  UNL     1      25.162   2.182  52.387  1.00  0.00    -0.370 N 
HETATM   14  C7  UNL     1      25.856   2.588  51.223  1.00  0.00     0.150 C 
HETATM   15  C8  UNL     1      24.835   2.910  50.172  1.00  0.00     0.032 C 
HETATM   16  C9  UNL     1      23.955   3.759  50.752  1.00  0.00     0.111 C 
HETATM   17  F1  UNL     1      22.915   4.193  49.958  1.00  0.00    -0.209 F 
HETATM   18  C10 UNL     1      23.975   4.286  52.170  1.00  0.00     0.161 C 
HETATM   19 CL1  UNL     1      22.333   4.774  52.620  1.00  0.00    -0.116 Cl
HETATM   20  C11 UNL     1      24.440   3.158  53.106  1.00  0.00     0.148 C 
ENDBRANCH   3  13
BRANCH   1  21
HETATM   21  C3  UNL     1      23.969  -0.397  52.647  1.00  0.00     0.166 C 
BRANCH  21  22
HETATM   22  N1  UNL     1      22.888  -0.535  53.573  1.00  0.00    -0.384 N 
HETATM   23  C1  UNL     1      21.818   0.460  53.393  1.00  0.00     0.146 C 
BRANCH  22  24
HETATM   24  C2  UNL     1      22.388  -1.317  54.650  1.00  0.00     0.513 C 
HETATM   25  O1  UNL     1      22.611  -1.872  55.744  1.00  0.00    -0.412 OA
ENDBRANCH  22  24
ENDBRANCH  21  22
ENDBRANCH   1  21
TORSDOF 4
ENDMDL
MODEL 4
REMARK VINA RESULT:      -7.1      3.386      5.117
REMARK  4 active torsions:
REMARK  status: ('A' for Active; 'I' for Inactive)
REMARK    1  A    between atoms: N1_2  and  C2_3 
REMARK    2  A    between atoms: N1_2  and  C3_5 
REMARK    3  A    between atoms: C3_5  and  C4_6 
REMARK    4  A    between atoms: C6_8  and  N2_9 
ROOT
HETATM    1  C4  UNL     1      25.281   0.949  53.454  1.00  0.00     0.235 A 
HETATM    2  C5  UNL     1      25.357   0.384  52.074  1.00  0.00     0.121 A 
HETATM    3  C6  UNL     1      24.182   1.202  52.560  1.00  0.00     0.205 A 
HETATM    4  N3  UNL     1      22.961   0.649  52.485  1.00  0.00    -0.406 NA
HETATM    5  C12 UNL     1      21.841   0.303  52.218  1.00  0.00     0.294 A 
HETATM    6  N4  UNL     1      21.825  -0.580  53.294  1.00  0.00    -0.241 NA
HETATM    7  C13 UNL     1      21.098  -1.394  53.845  1.00  0.00     0.138 A 
HETATM    8  C14 UNL     1      22.102  -1.741  54.898  1.00  0.00     0.131 A 
HETATM    9  N5  UNL     1      23.336  -1.488  55.350  1.00  0.00    -0.271 NA
HETATM   10  C15 UNL     1      23.945  -0.521  54.534  1.00  0.00     0.418 A 
HETATM   11  N6  UNL     1      25.212   0.047  54.594  1.00  0.00     0.119 NA
HETATM   12  H20 UNL     1      25.294   0.621  55.462  1.00  0.00     0.319 HD
ENDROOT
BRANCH   3  13
HETATM   13  N2  UNL     1      24.118   2.578  52.069  1.00  0.00    -0.370 N 
HETATM   14  C7  UNL     1      23.128   3.355  52.713  1.00  0.00     0.150 C 
HETATM   15  C8  UNL     1      23.601   4.779  52.723  1.00  0.00     0.032 C 
HETATM   16  C9  UNL     1      23.947   5.067  51.446  1.00  0.00     0.111 C 
HETATM   17  F1  UNL     1      24.416   6.343  51.217  1.00  0.00    -0.209 F 
HETATM   18  C10 UNL     1      23.882   4.154  50.242  1.00  0.00     0.161 C 
HETATM   19 CL1  UNL     1      25.025   4.739  49.022  1.00  0.00    -0.116 Cl
HETATM   20  C11 UNL     1      24.288   2.737  50.677  1.00  0.00     0.148 C 
ENDBRANCH   3  13
BRANCH   1  21
HETATM   21  C3  UNL     1      26.392   1.950  53.675  1.00  0.00     0.166 C 
BRANCH  21  22
HETATM   22  N1  UNL     1      27.728   1.446  53.713  1.00  0.00    -0.384 N 
HETATM   23  C1  UNL     1      28.762   2.493  53.669  1.00  0.00     0.146 C 
BRANCH  22  24
HETATM   24  C2  UNL     1      28.510   0.262  53.810  1.00  0.00     0.513 C 
HETATM   25  O1  UNL     1      28.839  -0.733  54.485  1.00  0.00    -0.412 OA
ENDBRANCH  22  24
ENDBRANCH  21  22
ENDBRANCH   1  21
TORSDOF 4
ENDMDL
MODEL 5
REMARK VINA RESULT:      -7.0      3.304      6.028
REMARK  4 active torsions:
REMARK  status: ('A' for Active; 'I' for Inactive)
REMARK    1  A    between atoms: N1_2  and  C2_3 
REMARK    2  A    between atoms: N1_2  and  C3_5 
REMARK    3  A    between atoms: C3_5  and  C4_6 
REMARK    4  A    between atoms: C6_8  and  N2_9 
ROOT
HETATM    1  C4  UNL     1      25.542   1.826  51.761  1.00  0.00     0.235 A 
HETATM    2  C5  UNL     1      25.191   2.711  52.910  1.00  0.00     0.121 A 
HETATM    3  C6  UNL     1      24.344   2.616  51.662  1.00  0.00     0.205 A 
HETATM    4  N3  UNL     1      24.088   3.750  50.992  1.00  0.00    -0.406 NA
HETATM    5  C12 UNL     1      23.634   4.750  50.500  1.00  0.00     0.294 A 
HETATM    6  N4  UNL     1      24.823   4.992  49.819  1.00  0.00    -0.241 NA
HETATM    7  C13 UNL     1      25.332   5.793  49.048  1.00  0.00     0.138 A 
HETATM    8  C14 UNL     1      26.637   5.066  48.980  1.00  0.00     0.131 A 
HETATM    9  N5  UNL     1      27.312   3.998  49.422  1.00  0.00    -0.271 NA
HETATM   10  C15 UNL     1      26.496   3.254  50.290  1.00  0.00     0.418 A 
HETATM   11  N6  UNL     1      26.755   2.087  51.000  1.00  0.00     0.119 NA
HETATM   12  H20 UNL     1      26.890   1.298  50.331  1.00  0.00     0.319 HD
ENDROOT
BRANCH   3  13
HETATM   13  N2  UNL     1      23.108   1.843  51.789  1.00  0.00    -0.370 N 
HETATM   14  C7  UNL     1      22.371   1.768  50.584  1.00  0.00     0.150 C 
HETATM   15  C8  UNL     1      21.629   0.464  50.585  1.00  0.00     0.032 C 
HETATM   16  C9  UNL     1      20.976   0.405  51.769  1.00  0.00     0.111 C 
HETATM   17  F1  UNL     1      20.217  -0.724  51.989  1.00  0.00    -0.209 F 
HETATM   18  C10 UNL     1      20.983   1.431  52.881  1.00  0.00     0.161 C 
HETATM   19 CL1  UNL     1      20.566   0.625  54.402  1.00  0.00    -0.116 Cl
HETATM   20  C11 UNL     1      22.397   2.023  52.994  1.00  0.00     0.148 C 
ENDBRANCH   3  13
BRANCH   1  21
HETATM   21  C3  UNL     1      25.523   0.375  52.187  1.00  0.00     0.166 C 
BRANCH  21  22
HETATM   22  N1  UNL     1      26.066   0.065  53.472  1.00  0.00    -0.384 N 
HETATM   23  C1  UNL     1      25.132  -0.651  54.357  1.00  0.00     0.146 C 
BRANCH  22  24
HETATM   24  C2  UNL     1      27.232   0.152  54.281  1.00  0.00     0.513 C 
HETATM   25  O1  UNL     1      27.994   0.867  54.960  1.00  0.00    -0.412 OA
ENDBRANCH  22  24
ENDBRANCH  21  22
ENDBRANCH   1  21
TORSDOF 4
ENDMDL
MODEL 6
REMARK VINA RESULT:      -6.8      3.570      5.980
REMARK  4 active torsions:
REMARK  status: ('A' for Active; 'I' for Inactive)
REMARK    1  A    between atoms: N1_2  and  C2_3 
REMARK    2  A    between atoms: N1_2  and  C3_5 
REMARK    3  A    between atoms: C3_5  and  C4_6 
REMARK    4  A    between atoms: C6_8  and  N2_9 
ROOT
HETATM    1  C4  UNL     1      23.095   2.584  52.355  1.00  0.00     0.235 A 
HETATM    2  C5  UNL     1      23.948   3.622  53.006  1.00  0.00     0.121 A 
HETATM    3  C6  UNL     1      24.301   2.986  51.681  1.00  0.00     0.205 A 
HETATM    4  N3  UNL     1      25.495   2.383  51.575  1.00  0.00    -0.406 NA
HETATM    5  C12 UNL     1      26.630   2.050  51.356  1.00  0.00     0.294 A 
HETATM    6  N4  UNL     1      26.436   0.842  52.020  1.00  0.00    -0.241 NA
HETATM    7  C13 UNL     1      27.031  -0.181  52.326  1.00  0.00     0.138 A 
HETATM    8  C14 UNL     1      25.855  -0.787  53.023  1.00  0.00     0.131 A 
HETATM    9  N5  UNL     1      24.574  -0.597  53.362  1.00  0.00    -0.271 NA
HETATM   10  C15 UNL     1      24.145   0.654  52.889  1.00  0.00     0.418 A 
HETATM   11  N6  UNL     1      22.917   1.295  53.005  1.00  0.00     0.119 NA
HETATM   12  H20 UNL     1      22.197   0.762  52.469  1.00  0.00     0.319 HD
ENDROOT
BRANCH   3  13
HETATM   13  N2  UNL     1      24.074   3.813  50.497  1.00  0.00    -0.370 N 
HETATM   14  C7  UNL     1      23.793   3.059  49.334  1.00  0.00     0.150 C 
HETATM   15  C8  UNL     1      22.898   3.886  48.458  1.00  0.00     0.032 C 
HETATM   16  C9  UNL     1      23.501   5.092  48.340  1.00  0.00     0.111 C 
HETATM   17  F1  UNL     1      22.846   6.026  47.566  1.00  0.00    -0.209 F 
HETATM   18  C10 UNL     1      24.808   5.538  48.958  1.00  0.00     0.161 C 
HETATM   19 CL1  UNL     1      24.811   7.305  49.070  1.00  0.00    -0.116 Cl
HETATM   20  C11 UNL     1      24.910   4.943  50.372  1.00  0.00     0.148 C 
ENDBRANCH   3  13
BRANCH   1  21
HETATM   21  C3  UNL     1      21.741   3.158  52.004  1.00  0.00     0.166 C 
BRANCH  21  22
HETATM   22  N1  UNL     1      20.796   2.277  51.394  1.00  0.00    -0.384 N 
HETATM   23  C1  UNL     1      19.483   2.256  52.059  1.00  0.00     0.146 C 
BRANCH  22  24
HETATM   24  C2  UNL     1      20.595   1.374  50.314  1.00  0.00     0.513 C 
HETATM   25  O1  UNL     1      20.863   1.058  49.138  1.00  0.00    -0.412 OA
ENDBRANCH  22  24
ENDBRANCH  21  22
ENDBRANCH   1  21
TORSDOF 4
ENDMDL
MODEL 7
REMARK VINA RESULT:      -6.5      2.963      5.398
REMARK  4 active torsions:
REMARK  status: ('A' for Active; 'I' for Inactive)
REMARK    1  A    between atoms: N1_2  and  C2_3 
REMARK    2  A    between atoms: N1_2  and  C3_5 
REMARK    3  A    between atoms: C3_5  and  C4_6 
REMARK    4  A    between atoms: C6_8  and  N2_9 
ROOT
HETATM    1  C4  UNL     1      21.787   3.129  49.838  1.00  0.00     0.235 A 
HETATM    2  C5  UNL     1      22.976   3.022  48.940  1.00  0.00     0.121 A 
HETATM    3  C6  UNL     1      23.080   3.431  50.392  1.00  0.00     0.205 A 
HETATM    4  N3  UNL     1      23.668   4.605  50.671  1.00  0.00    -0.406 NA
HETATM    5  C12 UNL     1      24.390   5.514  50.985  1.00  0.00     0.294 A 
HETATM    6  N4  UNL     1      23.405   6.446  50.669  1.00  0.00    -0.241 NA
HETATM    7  C13 UNL     1      23.205   7.652  50.657  1.00  0.00     0.138 A 
HETATM    8  C14 UNL     1      21.809   7.527  50.137  1.00  0.00     0.131 A 
HETATM    9  N5  UNL     1      20.868   6.660  49.744  1.00  0.00    -0.271 NA
HETATM   10  C15 UNL     1      21.361   5.350  49.857  1.00  0.00     0.418 A 
HETATM   11  N6  UNL     1      20.767   4.129  49.558  1.00  0.00     0.119 NA
HETATM   12  H20 UNL     1      19.969   3.964  50.210  1.00  0.00     0.319 HD
ENDROOT
BRANCH   3  13
HETATM   13  N2  UNL     1      23.589   2.410  51.306  1.00  0.00    -0.370 N 
HETATM   14  C7  UNL     1      23.031   2.492  52.603  1.00  0.00     0.150 C 
HETATM   15  C8  UNL     1      23.001   1.106  53.176  1.00  0.00     0.032 C 
HETATM   16  C9  UNL     1      24.250   0.609  53.019  1.00  0.00     0.111 C 
HETATM   17  F1  UNL     1      24.456  -0.673  53.482  1.00  0.00    -0.209 F 
HETATM   18  C10 UNL     1      25.446   1.292  52.394  1.00  0.00     0.161 C 
HETATM   19 CL1  UNL     1      26.580   0.053  51.832  1.00  0.00    -0.116 Cl
HETATM   20  C11 UNL     1      24.965   2.119  51.191  1.00  0.00     0.148 C 
ENDBRANCH   3  13
BRANCH   1  21
HETATM   21  C3  UNL     1      21.129   1.778  50.005  1.00  0.00     0.166 C 
BRANCH  21  22
HETATM   22  N1  UNL     1      20.076   1.678  50.965  1.00  0.00    -0.384 N 
HETATM   23  C1  UNL     1      19.776   0.298  51.381  1.00  0.00     0.146 C 
BRANCH  22  24
HETATM   24  C2  UNL     1      19.160   2.429  51.752  1.00  0.00     0.513 C 
HETATM   25  O1  UNL     1      18.763   3.550  52.128  1.00  0.00    -0.412 OA
ENDBRANCH  22  24
ENDBRANCH  21  22
ENDBRANCH   1  21
TORSDOF 4
ENDMDL
MODEL 8
REMARK VINA RESULT:      -6.4      4.197      6.166
REMARK  4 active torsions:
REMARK  status: ('A' for Active; 'I' for Inactive)
REMARK    1  A    between atoms: N1_2  and  C2_3 
REMARK    2  A    between atoms: N1_2  and  C3_5 
REMARK    3  A    between atoms: C3_5  and  C4_6 
REMARK    4  A    between atoms: C6_8  and  N2_9 
ROOT
HETATM    1  C4  UNL     1      19.879   1.835  51.648  1.00  0.00     0.235 A 
HETATM    2  C5  UNL     1      20.437   2.998  52.401  1.00  0.00     0.121 A 
HETATM    3  C6  UNL     1      21.301   2.046  51.605  1.00  0.00     0.205 A 
HETATM    4  N3  UNL     1      22.304   1.427  52.248  1.00  0.00    -0.406 NA
HETATM    5  C12 UNL     1      23.347   1.041  52.707  1.00  0.00     0.294 A 
HETATM    6  N4  UNL     1      22.696   0.041  53.424  1.00  0.00    -0.241 NA
HETATM    7  C13 UNL     1      22.925  -0.877  54.199  1.00  0.00     0.138 A 
HETATM    8  C14 UNL     1      21.490  -1.280  54.318  1.00  0.00     0.131 A 
HETATM    9  N5  UNL     1      20.245  -1.001  53.916  1.00  0.00    -0.271 NA
HETATM   10  C15 UNL     1      20.270   0.094  53.037  1.00  0.00     0.418 A 
HETATM   11  N6  UNL     1      19.237   0.752  52.378  1.00  0.00     0.119 NA
HETATM   12  H20 UNL     1      18.806   0.106  51.680  1.00  0.00     0.319 HD
ENDROOT
BRANCH   3  13
HETATM   13  N2  UNL     1      21.790   2.551  50.323  1.00  0.00    -0.370 N 
HETATM   14  C7  UNL     1      22.059   1.527  49.386  1.00  0.00     0.150 C 
HETATM   15  C8  UNL     1      21.821   2.088  48.015  1.00  0.00     0.032 C 
HETATM   16  C9  UNL     1      22.522   3.245  47.957  1.00  0.00     0.111 C 
HETATM   17  F1  UNL     1      22.448   3.941  46.770  1.00  0.00    -0.209 F 
HETATM   18  C10 UNL     1      23.376   3.864  49.042  1.00  0.00     0.161 C 
HETATM   19 CL1  UNL     1      23.505   5.605  48.740  1.00  0.00    -0.116 Cl
HETATM   20  C11 UNL     1      22.687   3.638  50.398  1.00  0.00     0.148 C 
ENDBRANCH   3  13
BRANCH   1  21
HETATM   21  C3  UNL     1      18.956   2.312  50.550  1.00  0.00     0.166 C 
BRANCH  21  22
HETATM   22  N1  UNL     1      17.976   3.292  50.899  1.00  0.00    -0.384 N 
HETATM   23  C1  UNL     1      18.045   4.519  50.089  1.00  0.00     0.146 C 
BRANCH  22  24
HETATM   24  C2  UNL     1      16.871   3.563  51.753  1.00  0.00     0.513 C 
HETATM   25  O1  UNL     1      16.353   4.315  52.601  1.00  0.00    -0.412 OA
ENDBRANCH  22  24
ENDBRANCH  21  22
ENDBRANCH   1  21
TORSDOF 4
ENDMDL
MODEL 9
REMARK VINA RESULT:      -6.2      3.744      5.603
REMARK  4 active torsions:
REMARK  status: ('A' for Active; 'I' for Inactive)
REMARK    1  A    between atoms: N1_2  and  C2_3 
REMARK    2  A    between atoms: N1_2  and  C3_5 
REMARK    3  A    between atoms: C3_5  and  C4_6 
REMARK    4  A    between atoms: C6_8  and  N2_9 
ROOT
HETATM    1  C4  UNL     1      21.195   2.841  51.391  1.00  0.00     0.235 A 
HETATM    2  C5  UNL     1      21.307   3.720  52.592  1.00  0.00     0.121 A 
HETATM    3  C6  UNL     1      22.508   3.273  51.791  1.00  0.00     0.205 A 
HETATM    4  N3  UNL     1      23.489   2.627  52.441  1.00  0.00    -0.406 NA
HETATM    5  C12 UNL     1      24.486   2.268  53.009  1.00  0.00     0.294 A 
HETATM    6  N4  UNL     1      23.968   0.986  53.174  1.00  0.00    -0.241 NA
HETATM    7  C13 UNL     1      24.258  -0.103  53.648  1.00  0.00     0.138 A 
HETATM    8  C14 UNL     1      22.964  -0.741  53.254  1.00  0.00     0.131 A 
HETATM    9  N5  UNL     1      21.788  -0.533  52.650  1.00  0.00    -0.271 NA
HETATM   10  C15 UNL     1      21.718   0.797  52.204  1.00  0.00     0.418 A 
HETATM   11  N6  UNL     1      20.703   1.480  51.544  1.00  0.00     0.119 NA
HETATM   12  H20 UNL     1      20.578   1.075  50.590  1.00  0.00     0.319 HD
ENDROOT
BRANCH   3  13
HETATM   13  N2  UNL     1      23.097   4.281  50.911  1.00  0.00    -0.370 N 
HETATM   14  C7  UNL     1      23.910   3.728  49.893  1.00  0.00     0.150 C 
HETATM   15  C8  UNL     1      23.838   4.641  48.705  1.00  0.00     0.032 C 
HETATM   16  C9  UNL     1      24.108   5.883  49.171  1.00  0.00     0.111 C 
HETATM   17  F1  UNL     1      24.097   6.897  48.237  1.00  0.00    -0.209 F 
HETATM   18  C10 UNL     1      24.417   6.290  50.594  1.00  0.00     0.161 C 
HETATM   19 CL1  UNL     1      24.031   8.007  50.792  1.00  0.00    -0.116 Cl
HETATM   20  C11 UNL     1      23.536   5.462  51.544  1.00  0.00     0.148 C 
ENDBRANCH   3  13
BRANCH   1  21
HETATM   21  C3  UNL     1      20.411   3.535  50.300  1.00  0.00     0.166 C 
BRANCH  21  22
HETATM   22  N1  UNL     1      20.570   3.045  48.967  1.00  0.00    -0.384 N 
HETATM   23  C1  UNL     1      20.180   4.011  47.927  1.00  0.00     0.146 C 
BRANCH  22  24
HETATM   24  C2  UNL     1      21.009   1.936  48.193  1.00  0.00     0.513 C 
HETATM   25  O1  UNL     1      21.883   1.072  47.988  1.00  0.00    -0.412 OA
ENDBRANCH  22  24
ENDBRANCH  21  22
ENDBRANCH   1  21
TORSDOF 4
ENDMDL
