MODEL 1
REMARK VINA RESULT:      -7.7      0.000      0.000
REMARK  5 active torsions:
REMARK  status: ('A' for Active; 'I' for Inactive)
REMARK    1  A    between atoms: C5_5  and  S1_6 
REMARK    2  A    between atoms: S1_6  and  C6_7 
REMARK    3  A    between atoms: C6_7  and  C7_8 
REMARK    4  A    between atoms: C7_8  and  C8_9 
REMARK    5  A    between atoms: C8_9  and  C10_11 
ROOT
HETATM    1  C6  UNL     1      24.293   3.692  51.909  1.00  0.00     0.080 C 
ENDROOT
BRANCH   1   2
HETATM    2  S1  UNL     1      25.464   2.781  50.891  1.00  0.00    -0.130 SA
BRANCH   2   3
HETATM    3  C5  UNL     1      26.590   1.839  51.874  1.00  0.00     0.001 A 
HETATM    4  C4  UNL     1      27.608   2.347  52.651  1.00  0.00     0.019 A 
HETATM    5  C3  UNL     1      28.458   1.548  53.399  1.00  0.00     0.008 A 
HETATM    6  C2  UNL     1      28.234   0.191  53.330  1.00  0.00    -0.056 A 
HETATM    7  C1  UNL     1      29.136  -0.672  54.123  1.00  0.00     0.049 C 
HETATM    8  C17 UNL     1      27.240  -0.399  52.579  1.00  0.00    -0.055 A 
HETATM    9  C16 UNL     1      26.435   0.470  51.862  1.00  0.00     0.025 A 
HETATM   10  C18 UNL     1      27.048  -1.853  52.543  1.00  0.00     0.049 C 
ENDBRANCH   2   3
ENDBRANCH   1   2
BRANCH   1  11
HETATM   11  C7  UNL     1      22.925   3.071  51.847  1.00  0.00     0.019 C 
BRANCH  11  12
HETATM   12  C8  UNL     1      22.951   1.700  51.202  1.00  0.00     0.015 C 
HETATM   13  C9  UNL     1      21.998   1.628  50.030  1.00  0.00     0.015 C 
BRANCH  12  14
HETATM   14  C10 UNL     1      22.517   0.738  52.235  1.00  0.00    -0.058 A 
HETATM   15  C11 UNL     1      23.366   0.184  53.087  1.00  0.00    -0.012 A 
HETATM   16  C12 UNL     1      23.137  -0.788  54.180  1.00  0.00     0.110 A 
HETATM   17  C13 UNL     1      21.676  -1.125  54.233  1.00  0.00     0.152 A 
HETATM   18  O1  UNL     1      21.426  -1.950  55.147  1.00  0.00    -0.293 OA
HETATM   19  C14 UNL     1      20.741  -0.524  53.304  1.00  0.00     0.051 A 
HETATM   20  C15 UNL     1      21.129   0.337  52.381  1.00  0.00     0.011 A 
ENDBRANCH  12  14
ENDBRANCH  11  12
ENDBRANCH   1  11
TORSDOF 5
ENDMDL
MODEL 2
REMARK VINA RESULT:      -7.5      3.223      5.701
REMARK  5 active torsions:
REMARK  status: ('A' for Active; 'I' for Inactive)
REMARK    1  A    between atoms: C5_5  and  S1_6 
REMARK    2  A    between atoms: S1_6  and  C6_7 
REMARK    3  A    between atoms: C6_7  and  C7_8 
REMARK    4  A    between atoms: C7_8  and  C8_9 
REMARK    5  A    between atoms: C8_9  and  C10_11 
ROOT
HETATM    1  C6  UNL     1      22.684   2.800  51.918  1.00  0.00     0.080 C 
ENDROOT
BRANCH   1   2
HETATM    2  S1  UNL     1      23.060   2.590  50.171  1.00  0.00    -0.130 SA
BRANCH   2   3
HETATM    3  C5  UNL     1      24.480   3.526  49.691  1.00  0.00     0.001 A 
HETATM    4  C4  UNL     1      25.787   3.097  49.740  1.00  0.00     0.019 A 
HETATM    5  C3  UNL     1      26.857   3.887  49.348  1.00  0.00     0.008 A 
HETATM    6  C2  UNL     1      26.546   5.150  48.896  1.00  0.00    -0.056 A 
HETATM    7  C1  UNL     1      27.680   6.003  48.477  1.00  0.00     0.049 C 
HETATM    8  C17 UNL     1      25.267   5.657  48.816  1.00  0.00    -0.055 A 
HETATM    9  C16 UNL     1      24.257   4.804  49.226  1.00  0.00     0.025 A 
HETATM   10  C18 UNL     1      24.995   7.014  48.327  1.00  0.00     0.049 C 
ENDBRANCH   2   3
ENDBRANCH   1   2
BRANCH   1  11
HETATM   11  C7  UNL     1      23.831   2.342  52.776  1.00  0.00     0.019 C 
BRANCH  11  12
HETATM   12  C8  UNL     1      24.285   0.942  52.419  1.00  0.00     0.015 C 
HETATM   13  C9  UNL     1      23.516  -0.100  53.201  1.00  0.00     0.015 C 
BRANCH  12  14
HETATM   14  C10 UNL     1      25.715   0.856  52.781  1.00  0.00    -0.058 A 
HETATM   15  C11 UNL     1      26.431   1.925  53.096  1.00  0.00    -0.012 A 
HETATM   16  C12 UNL     1      27.854   2.051  53.482  1.00  0.00     0.110 A 
HETATM   17  C13 UNL     1      28.481   0.688  53.482  1.00  0.00     0.152 A 
HETATM   18  O1  UNL     1      29.694   0.738  53.805  1.00  0.00    -0.293 OA
HETATM   19  C14 UNL     1      27.705  -0.487  53.139  1.00  0.00     0.051 A 
HETATM   20  C15 UNL     1      26.426  -0.410  52.815  1.00  0.00     0.011 A 
ENDBRANCH  12  14
ENDBRANCH  11  12
ENDBRANCH   1  11
TORSDOF 5
ENDMDL
MODEL 3
REMARK VINA RESULT:      -7.2      4.342      6.354
REMARK  5 active torsions:
REMARK  status: ('A' for Active; 'I' for Inactive)
REMARK    1  A    between atoms: C5_5  and  S1_6 
REMARK    2  A    between atoms: S1_6  and  C6_7 
REMARK    3  A    between atoms: C6_7  and  C7_8 
REMARK    4  A    between atoms: C7_8  and  C8_9 
REMARK    5  A    between atoms: C8_9  and  C10_11 
ROOT
HETATM    1  C6  UNL     1      24.065   2.888  51.293  1.00  0.00     0.080 C 
ENDROOT
BRANCH   1   2
HETATM    2  S1  UNL     1      24.512   2.604  53.013  1.00  0.00    -0.130 SA
BRANCH   2   3
HETATM    3  C5  UNL     1      25.993   1.651  53.154  1.00  0.00     0.001 A 
HETATM    4  C4  UNL     1      27.222   2.118  53.563  1.00  0.00     0.019 A 
HETATM    5  C3  UNL     1      28.347   1.313  53.650  1.00  0.00     0.008 A 
HETATM    6  C2  UNL     1      28.176  -0.009  53.301  1.00  0.00    -0.056 A 
HETATM    7  C1  UNL     1      29.370  -0.878  53.388  1.00  0.00     0.049 C 
HETATM    8  C17 UNL     1      26.984  -0.557  52.881  1.00  0.00    -0.055 A 
HETATM    9  C16 UNL     1      25.910   0.316  52.822  1.00  0.00     0.025 A 
HETATM   10  C18 UNL     1      26.860  -1.974  52.519  1.00  0.00     0.049 C 
ENDBRANCH   2   3
ENDBRANCH   1   2
BRANCH   1  11
HETATM   11  C7  UNL     1      24.774   4.095  50.742  1.00  0.00     0.019 C 
BRANCH  11  12
HETATM   12  C8  UNL     1      25.587   3.763  49.508  1.00  0.00     0.015 C 
HETATM   13  C9  UNL     1      26.546   2.623  49.774  1.00  0.00     0.015 C 
BRANCH  12  14
HETATM   14  C10 UNL     1      26.363   4.975  49.174  1.00  0.00    -0.058 A 
HETATM   15  C11 UNL     1      25.897   6.195  49.391  1.00  0.00    -0.012 A 
HETATM   16  C12 UNL     1      26.505   7.519  49.131  1.00  0.00     0.110 A 
HETATM   17  C13 UNL     1      27.864   7.319  48.527  1.00  0.00     0.152 A 
HETATM   18  O1  UNL     1      28.427   8.416  48.286  1.00  0.00    -0.293 OA
HETATM   19  C14 UNL     1      28.382   5.987  48.286  1.00  0.00     0.051 A 
HETATM   20  C15 UNL     1      27.688   4.904  48.585  1.00  0.00     0.011 A 
ENDBRANCH  12  14
ENDBRANCH  11  12
ENDBRANCH   1  11
TORSDOF 5
ENDMDL
MODEL 4
REMARK VINA RESULT:      -7.2      2.312      5.027
REMARK  5 active torsions:
REMARK  status: ('A' for Active; 'I' for Inactive)
REMARK    1  A    between atoms: C5_5  and  S1_6 
REMARK    2  A    between atoms: S1_6  and  C6_7 
REMARK    3  A    between atoms: C6_7  and  C7_8 
REMARK    4  A    between atoms: C7_8  and  C8_9 
REMARK    5  A    between atoms: C8_9  and  C10_11 
ROOT
HETATM    1  C6  UNL     1      26.864   0.825  51.940  1.00  0.00     0.080 C 
ENDROOT
BRANCH   1   2
HETATM    2  S1  UNL     1      26.601   0.441  53.678  1.00  0.00    -0.130 SA
BRANCH   2   3
HETATM    3  C5  UNL     1      24.973  -0.179  53.971  1.00  0.00     0.001 A 
HETATM    4  C4  UNL     1      24.571  -0.918  55.062  1.00  0.00     0.019 A 
HETATM    5  C3  UNL     1      23.273  -1.375  55.229  1.00  0.00     0.008 A 
HETATM    6  C2  UNL     1      22.381  -1.049  54.231  1.00  0.00    -0.056 A 
HETATM    7  C1  UNL     1      20.993  -1.533  54.397  1.00  0.00     0.049 C 
HETATM    8  C17 UNL     1      22.700  -0.315  53.109  1.00  0.00    -0.055 A 
HETATM    9  C16 UNL     1      24.017   0.103  53.019  1.00  0.00     0.025 A 
HETATM   10  C18 UNL     1      21.707   0.002  52.076  1.00  0.00     0.049 C 
ENDBRANCH   2   3
ENDBRANCH   1   2
BRANCH   1  11
HETATM   11  C7  UNL     1      26.766   2.306  51.693  1.00  0.00     0.019 C 
BRANCH  11  12
HETATM   12  C8  UNL     1      26.022   2.620  50.411  1.00  0.00     0.015 C 
HETATM   13  C9  UNL     1      26.652   3.788  49.685  1.00  0.00     0.015 C 
BRANCH  12  14
HETATM   14  C10 UNL     1      24.644   2.982  50.800  1.00  0.00    -0.058 A 
HETATM   15  C11 UNL     1      23.615   2.832  49.979  1.00  0.00    -0.012 A 
HETATM   16  C12 UNL     1      22.178   3.130  50.172  1.00  0.00     0.110 A 
HETATM   17  C13 UNL     1      21.977   3.684  51.552  1.00  0.00     0.152 A 
HETATM   18  O1  UNL     1      20.770   3.955  51.769  1.00  0.00    -0.293 OA
HETATM   19  C14 UNL     1      23.098   3.852  52.456  1.00  0.00     0.051 A 
HETATM   20  C15 UNL     1      24.330   3.527  52.109  1.00  0.00     0.011 A 
ENDBRANCH  12  14
ENDBRANCH  11  12
ENDBRANCH   1  11
TORSDOF 5
ENDMDL
MODEL 5
REMARK VINA RESULT:      -7.1      1.398      1.998
REMARK  5 active torsions:
REMARK  status: ('A' for Active; 'I' for Inactive)
REMARK    1  A    between atoms: C5_5  and  S1_6 
REMARK    2  A    between atoms: S1_6  and  C6_7 
REMARK    3  A    between atoms: C6_7  and  C7_8 
REMARK    4  A    between atoms: C7_8  and  C8_9 
REMARK    5  A    between atoms: C8_9  and  C10_11 
ROOT
HETATM    1  C6  UNL     1      23.871   2.276  52.890  1.00  0.00     0.080 C 
ENDROOT
BRANCH   1   2
HETATM    2  S1  UNL     1      25.292   2.356  51.790  1.00  0.00    -0.130 SA
BRANCH   2   3
HETATM    3  C5  UNL     1      26.647   1.400  52.403  1.00  0.00     0.001 A 
HETATM    4  C4  UNL     1      27.802   1.898  52.962  1.00  0.00     0.019 A 
HETATM    5  C3  UNL     1      28.829   1.088  53.422  1.00  0.00     0.008 A 
HETATM    6  C2  UNL     1      28.637  -0.270  53.292  1.00  0.00    -0.056 A 
HETATM    7  C1  UNL     1      29.727  -1.143  53.778  1.00  0.00     0.049 C 
HETATM    8  C17 UNL     1      27.514  -0.849  52.744  1.00  0.00    -0.055 A 
HETATM    9  C16 UNL     1      26.536   0.029  52.309  1.00  0.00     0.025 A 
HETATM   10  C18 UNL     1      27.364  -2.305  52.630  1.00  0.00     0.049 C 
ENDBRANCH   2   3
ENDBRANCH   1   2
BRANCH   1  11
HETATM   11  C7  UNL     1      22.583   2.326  52.114  1.00  0.00     0.019 C 
BRANCH  11  12
HETATM   12  C8  UNL     1      22.336   1.048  51.339  1.00  0.00     0.015 C 
HETATM   13  C9  UNL     1      22.059   1.336  49.880  1.00  0.00     0.015 C 
BRANCH  12  14
HETATM   14  C10 UNL     1      21.144   0.414  51.939  1.00  0.00    -0.058 A 
HETATM   15  C11 UNL     1      19.959   0.435  51.348  1.00  0.00    -0.012 A 
HETATM   16  C12 UNL     1      18.660  -0.131  51.774  1.00  0.00     0.110 A 
HETATM   17  C13 UNL     1      18.838  -0.813  53.099  1.00  0.00     0.152 A 
HETATM   18  O1  UNL     1      17.761  -1.314  53.509  1.00  0.00    -0.293 OA
HETATM   19  C14 UNL     1      20.131  -0.840  53.753  1.00  0.00     0.051 A 
HETATM   20  C15 UNL     1      21.197  -0.274  53.217  1.00  0.00     0.011 A 
ENDBRANCH  12  14
ENDBRANCH  11  12
ENDBRANCH   1  11
TORSDOF 5
ENDMDL
MODEL 6
REMARK VINA RESULT:      -7.1      3.514      5.631
REMARK  5 active torsions:
REMARK  status: ('A' for Active; 'I' for Inactive)
REMARK    1  A    between atoms: C5_5  and  S1_6 
REMARK    2  A    between atoms: S1_6  and  C6_7 
REMARK    3  A    between atoms: C6_7  and  C7_8 
REMARK    4  A    between atoms: C7_8  and  C8_9 
REMARK    5  A    between atoms: C8_9  and  C10_11 
ROOT
HETATM    1  C6  UNL     1      24.402   3.244  52.136  1.00  0.00     0.080 C 
ENDROOT
BRANCH   1   2
HETATM    2  S1  UNL     1      24.239   3.263  50.344  1.00  0.00    -0.130 SA
BRANCH   2   3
HETATM    3  C5  UNL     1      25.478   4.269  49.586  1.00  0.00     0.001 A 
HETATM    4  C4  UNL     1      26.780   3.897  49.331  1.00  0.00     0.019 A 
HETATM    5  C3  UNL     1      27.703   4.739  48.732  1.00  0.00     0.008 A 
HETATM    6  C2  UNL     1      27.251   5.995  48.395  1.00  0.00    -0.056 A 
HETATM    7  C1  UNL     1      28.228   6.903  47.757  1.00  0.00     0.049 C 
HETATM    8  C17 UNL     1      25.968   6.447  48.615  1.00  0.00    -0.055 A 
HETATM    9  C16 UNL     1      25.108   5.544  49.217  1.00  0.00     0.025 A 
HETATM   10  C18 UNL     1      25.541   7.799  48.235  1.00  0.00     0.049 C 
ENDBRANCH   2   3
ENDBRANCH   1   2
BRANCH   1  11
HETATM   11  C7  UNL     1      23.467   2.241  52.753  1.00  0.00     0.019 C 
BRANCH  11  12
HETATM   12  C8  UNL     1      23.774   0.827  52.306  1.00  0.00     0.015 C 
HETATM   13  C9  UNL     1      22.727  -0.145  52.805  1.00  0.00     0.015 C 
BRANCH  12  14
HETATM   14  C10 UNL     1      25.080   0.471  52.897  1.00  0.00    -0.058 A 
HETATM   15  C11 UNL     1      25.277   0.431  54.206  1.00  0.00    -0.012 A 
HETATM   16  C12 UNL     1      26.490   0.103  54.988  1.00  0.00     0.110 A 
HETATM   17  C13 UNL     1      27.608  -0.218  54.039  1.00  0.00     0.152 A 
HETATM   18  O1  UNL     1      28.666  -0.505  54.654  1.00  0.00    -0.293 OA
HETATM   19  C14 UNL     1      27.401  -0.176  52.606  1.00  0.00     0.051 A 
HETATM   20  C15 UNL     1      26.233   0.142  52.078  1.00  0.00     0.011 A 
ENDBRANCH  12  14
ENDBRANCH  11  12
ENDBRANCH   1  11
TORSDOF 5
ENDMDL
MODEL 7
REMARK VINA RESULT:      -7.0      1.512      2.251
REMARK  5 active torsions:
REMARK  status: ('A' for Active; 'I' for Inactive)
REMARK    1  A    between atoms: C5_5  and  S1_6 
REMARK    2  A    between atoms: S1_6  and  C6_7 
REMARK    3  A    between atoms: C6_7  and  C7_8 
REMARK    4  A    between atoms: C7_8  and  C8_9 
REMARK    5  A    between atoms: C8_9  and  C10_11 
ROOT
HETATM    1  C6  UNL     1      21.906   2.810  49.814  1.00  0.00     0.080 C 
ENDROOT
BRANCH   1   2
HETATM    2  S1  UNL     1      23.528   3.560  50.030  1.00  0.00    -0.130 SA
BRANCH   2   3
HETATM    3  C5  UNL     1      24.384   2.876  51.417  1.00  0.00     0.001 A 
HETATM    4  C4  UNL     1      24.322   3.335  52.714  1.00  0.00     0.019 A 
HETATM    5  C3  UNL     1      25.024   2.750  53.757  1.00  0.00     0.008 A 
HETATM    6  C2  UNL     1      25.803   1.662  53.430  1.00  0.00    -0.056 A 
HETATM    7  C1  UNL     1      26.557   1.030  54.535  1.00  0.00     0.049 C 
HETATM    8  C17 UNL     1      25.921   1.140  52.161  1.00  0.00    -0.055 A 
HETATM    9  C16 UNL     1      25.188   1.783  51.177  1.00  0.00     0.025 A 
HETATM   10  C18 UNL     1      26.768  -0.022  51.870  1.00  0.00     0.049 C 
ENDBRANCH   2   3
ENDBRANCH   1   2
BRANCH   1  11
HETATM   11  C7  UNL     1      21.403   2.229  51.107  1.00  0.00     0.019 C 
BRANCH  11  12
HETATM   12  C8  UNL     1      20.894   0.813  50.934  1.00  0.00     0.015 C 
HETATM   13  C9  UNL     1      19.390   0.787  50.771  1.00  0.00     0.015 C 
BRANCH  12  14
HETATM   14  C10 UNL     1      21.256   0.080  52.165  1.00  0.00    -0.058 A 
HETATM   15  C11 UNL     1      22.509  -0.023  52.583  1.00  0.00    -0.012 A 
HETATM   16  C12 UNL     1      23.074  -0.703  53.770  1.00  0.00     0.110 A 
HETATM   17  C13 UNL     1      21.957  -1.339  54.545  1.00  0.00     0.152 A 
HETATM   18  O1  UNL     1      22.384  -1.931  55.567  1.00  0.00    -0.293 OA
HETATM   19  C14 UNL     1      20.584  -1.230  54.093  1.00  0.00     0.051 A 
HETATM   20  C15 UNL     1      20.260  -0.574  52.994  1.00  0.00     0.011 A 
ENDBRANCH  12  14
ENDBRANCH  11  12
ENDBRANCH   1  11
TORSDOF 5
ENDMDL
MODEL 8
REMARK VINA RESULT:      -7.0      2.759      6.022
REMARK  5 active torsions:
REMARK  status: ('A' for Active; 'I' for Inactive)
REMARK    1  A    between atoms: C5_5  and  S1_6 
REMARK    2  A    between atoms: S1_6  and  C6_7 
REMARK    3  A    between atoms: C6_7  and  C7_8 
REMARK    4  A    between atoms: C7_8  and  C8_9 
REMARK    5  A    between atoms: C8_9  and  C10_11 
ROOT
HETATM    1  C6  UNL     1      20.126  -0.146  53.612  1.00  0.00     0.080 C 
ENDROOT
BRANCH   1   2
HETATM    2  S1  UNL     1      19.515   0.242  51.964  1.00  0.00    -0.130 SA
BRANCH   2   3
HETATM    3  C5  UNL     1      20.633   1.289  51.083  1.00  0.00     0.001 A 
HETATM    4  C4  UNL     1      21.543   0.883  50.133  1.00  0.00     0.019 A 
HETATM    5  C3  UNL     1      22.394   1.760  49.479  1.00  0.00     0.008 A 
HETATM    6  C2  UNL     1      22.286   3.088  49.830  1.00  0.00    -0.056 A 
HETATM    7  C1  UNL     1      23.190   4.033  49.139  1.00  0.00     0.049 C 
HETATM    8  C17 UNL     1      21.404   3.576  50.769  1.00  0.00    -0.055 A 
HETATM    9  C16 UNL     1      20.590   2.635  51.375  1.00  0.00     0.025 A 
HETATM   10  C18 UNL     1      21.333   5.003  51.104  1.00  0.00     0.049 C 
ENDBRANCH   2   3
ENDBRANCH   1   2
BRANCH   1  11
HETATM   11  C7  UNL     1      21.489   0.448  53.836  1.00  0.00     0.019 C 
BRANCH  11  12
HETATM   12  C8  UNL     1      22.591  -0.580  53.677  1.00  0.00     0.015 C 
HETATM   13  C9  UNL     1      22.878  -1.282  54.986  1.00  0.00     0.015 C 
BRANCH  12  14
HETATM   14  C10 UNL     1      23.799   0.157  53.252  1.00  0.00    -0.058 A 
HETATM   15  C11 UNL     1      24.967  -0.442  53.075  1.00  0.00    -0.012 A 
HETATM   16  C12 UNL     1      26.277   0.106  52.659  1.00  0.00     0.110 A 
HETATM   17  C13 UNL     1      26.135   1.582  52.429  1.00  0.00     0.152 A 
HETATM   18  O1  UNL     1      27.223   2.100  52.072  1.00  0.00    -0.293 OA
HETATM   19  C14 UNL     1      24.861   2.245  52.621  1.00  0.00     0.051 A 
HETATM   20  C15 UNL     1      23.781   1.587  53.000  1.00  0.00     0.011 A 
ENDBRANCH  12  14
ENDBRANCH  11  12
ENDBRANCH   1  11
TORSDOF 5
ENDMDL
MODEL 9
REMARK VINA RESULT:      -7.0      3.379      5.128
REMARK  5 active torsions:
REMARK  status: ('A' for Active; 'I' for Inactive)
REMARK    1  A    between atoms: C5_5  and  S1_6 
REMARK    2  A    between atoms: S1_6  and  C6_7 
REMARK    3  A    between atoms: C6_7  and  C7_8 
REMARK    4  A    between atoms: C7_8  and  C8_9 
REMARK    5  A    between atoms: C8_9  and  C10_11 
ROOT
HETATM    1  C6  UNL     1      24.701   3.373  51.763  1.00  0.00     0.080 C 
ENDROOT
BRANCH   1   2
HETATM    2  S1  UNL     1      24.259   4.331  50.306  1.00  0.00    -0.130 SA
BRANCH   2   3
HETATM    3  C5  UNL     1      25.688   4.974  49.489  1.00  0.00     0.001 A 
HETATM    4  C4  UNL     1      26.854   4.287  49.235  1.00  0.00     0.019 A 
HETATM    5  C3  UNL     1      27.941   4.854  48.588  1.00  0.00     0.008 A 
HETATM    6  C2  UNL     1      27.799   6.168  48.200  1.00  0.00    -0.056 A 
HETATM    7  C1  UNL     1      28.952   6.785  47.510  1.00  0.00     0.049 C 
HETATM    8  C17 UNL     1      26.669   6.927  48.415  1.00  0.00    -0.055 A 
HETATM    9  C16 UNL     1      25.630   6.285  49.067  1.00  0.00     0.025 A 
HETATM   10  C18 UNL     1      26.573   8.325  47.980  1.00  0.00     0.049 C 
ENDBRANCH   2   3
ENDBRANCH   1   2
BRANCH   1  11
HETATM   11  C7  UNL     1      24.758   1.904  51.447  1.00  0.00     0.019 C 
BRANCH  11  12
HETATM   12  C8  UNL     1      25.446   1.113  52.541  1.00  0.00     0.015 C 
HETATM   13  C9  UNL     1      26.476   0.166  51.966  1.00  0.00     0.015 C 
BRANCH  12  14
HETATM   14  C10 UNL     1      24.395   0.326  53.219  1.00  0.00    -0.058 A 
HETATM   15  C11 UNL     1      24.645  -0.412  54.290  1.00  0.00    -0.012 A 
HETATM   16  C12 UNL     1      23.747  -1.262  55.104  1.00  0.00     0.110 A 
HETATM   17  C13 UNL     1      22.362  -1.197  54.529  1.00  0.00     0.152 A 
HETATM   18  O1  UNL     1      21.557  -1.903  55.186  1.00  0.00    -0.293 OA
HETATM   19  C14 UNL     1      22.081  -0.392  53.358  1.00  0.00     0.051 A 
HETATM   20  C15 UNL     1      23.020   0.312  52.752  1.00  0.00     0.011 A 
ENDBRANCH  12  14
ENDBRANCH  11  12
ENDBRANCH   1  11
TORSDOF 5
ENDMDL
