MODEL 1
REMARK VINA RESULT:      -7.5      0.000      0.000
REMARK  7 active torsions:
REMARK  status: ('A' for Active; 'I' for Inactive)
REMARK    1  A    between atoms: N1_2  and  C3_4 
REMARK    2  A    between atoms: C3_4  and  C4_5 
REMARK    3  A    between atoms: C5_6  and  C6_7 
REMARK    4  A    between atoms: C6_7  and  O1_8 
REMARK    5  A    between atoms: C6_7  and  C11_14 
REMARK    6  A    between atoms: O1_8  and  C7_9 
REMARK    7  A    between atoms: N4_20  and  C15_21 
ROOT
HETATM    1  C11 UNL     1      24.363   2.726  51.830  1.00  0.00     0.159 C 
HETATM    2  C12 UNL     1      23.936   3.489  53.057  1.00  0.00     0.119 C 
HETATM    3  N2  UNL     1      23.732   4.784  52.991  1.00  0.00    -0.256 NA
HETATM    4  C13 UNL     1      23.864   5.647  51.846  1.00  0.00     0.228 C 
HETATM    5  N3  UNL     1      23.825   5.418  50.601  1.00  0.00    -0.263 NA
HETATM    6  C14 UNL     1      23.629   4.164  49.873  1.00  0.00     0.275 C 
HETATM    7  N4  UNL     1      23.366   3.078  50.837  1.00  0.00    -0.350 N 
ENDROOT
BRANCH   1   8
HETATM    8  C6  UNL     1      24.381   1.247  52.126  1.00  0.00     0.172 C 
BRANCH   8   9
HETATM    9  C5  UNL     1      25.728   0.672  51.982  1.00  0.00     0.005 C 
HETATM   10  C4  UNL     1      26.323  -0.117  52.902  1.00  0.00     0.002 C 
BRANCH  10  11
HETATM   11  C3  UNL     1      27.673  -0.745  52.852  1.00  0.00     0.298 C 
BRANCH  11  12
HETATM   12  N1  UNL     1      28.690  -0.033  53.551  1.00  0.00     0.083 N 
HETATM   13  C1  UNL     1      28.261   0.227  54.898  1.00  0.00     0.309 C 
HETATM   14  C2  UNL     1      29.886  -0.852  53.594  1.00  0.00     0.309 C 
ENDBRANCH  11  12
ENDBRANCH  10  11
ENDBRANCH   8   9
BRANCH   8  15
HETATM   15  O1  UNL     1      23.712   0.910  53.269  1.00  0.00    -0.372 OA
BRANCH  15  16
HETATM   16  C7  UNL     1      23.016  -0.226  53.373  1.00  0.00     0.148 C 
HETATM   17  C8  UNL     1      21.538   0.124  53.380  1.00  0.00     0.060 C 
HETATM   18  C9  UNL     1      21.159  -0.097  54.818  1.00  0.00     0.170 C 
HETATM   19  O2  UNL     1      21.836  -1.286  55.097  1.00  0.00    -0.389 OA
HETATM   20  C10 UNL     1      23.128  -0.962  54.683  1.00  0.00     0.199 C 
ENDBRANCH  15  16
ENDBRANCH   8  15
ENDBRANCH   1   8
BRANCH   7  21
HETATM   21  C15 UNL     1      22.109   2.495  50.636  1.00  0.00     0.034 A 
HETATM   22  C16 UNL     1      22.090   1.418  49.739  1.00  0.00     0.032 A 
HETATM   23  C17 UNL     1      20.898   0.763  49.435  1.00  0.00     0.046 A 
HETATM   24  C18 UNL     1      19.704   1.153  50.007  1.00  0.00     0.138 A 
HETATM   25  F1  UNL     1      18.519   0.544  49.741  1.00  0.00    -0.204 F 
HETATM   26  C19 UNL     1      19.700   2.206  50.889  1.00  0.00     0.074 A 
HETATM   27 CL1  UNL     1      18.222   2.749  51.648  1.00  0.00    -0.081 Cl
HETATM   28  C20 UNL     1      20.886   2.829  51.166  1.00  0.00     0.056 A 
ENDBRANCH   7  21
TORSDOF 7
ENDMDL
MODEL 2
REMARK VINA RESULT:      -6.8      3.867      5.985
REMARK  7 active torsions:
REMARK  status: ('A' for Active; 'I' for Inactive)
REMARK    1  A    between atoms: N1_2  and  C3_4 
REMARK    2  A    between atoms: C3_4  and  C4_5 
REMARK    3  A    between atoms: C5_6  and  C6_7 
REMARK    4  A    between atoms: C6_7  and  O1_8 
REMARK    5  A    between atoms: C6_7  and  C11_14 
REMARK    6  A    between atoms: O1_8  and  C7_9 
REMARK    7  A    between atoms: N4_20  and  C15_21 
ROOT
HETATM    1  C11 UNL     1      22.131   3.187  49.974  1.00  0.00     0.159 C 
HETATM    2  C12 UNL     1      22.775   2.288  48.951  1.00  0.00     0.119 C 
HETATM    3  N2  UNL     1      22.462   2.402  47.681  1.00  0.00    -0.256 NA
HETATM    4  C13 UNL     1      21.531   3.319  47.075  1.00  0.00     0.228 C 
HETATM    5  N3  UNL     1      21.075   4.438  47.451  1.00  0.00    -0.263 NA
HETATM    6  C14 UNL     1      21.340   5.212  48.665  1.00  0.00     0.275 C 
HETATM    7  N4  UNL     1      22.373   4.523  49.464  1.00  0.00    -0.350 N 
ENDROOT
BRANCH   1   8
HETATM    8  C6  UNL     1      22.766   2.966  51.324  1.00  0.00     0.172 C 
BRANCH   8   9
HETATM    9  C5  UNL     1      21.813   2.408  52.297  1.00  0.00     0.005 C 
HETATM   10  C4  UNL     1      21.897   1.167  52.821  1.00  0.00     0.002 C 
BRANCH  10  11
HETATM   11  C3  UNL     1      20.990   0.512  53.804  1.00  0.00     0.298 C 
BRANCH  11  12
HETATM   12  N1  UNL     1      21.588  -0.529  54.570  1.00  0.00     0.083 N 
HETATM   13  C1  UNL     1      20.901  -1.768  54.325  1.00  0.00     0.309 C 
HETATM   14  C2  UNL     1      22.971  -0.676  54.158  1.00  0.00     0.309 C 
ENDBRANCH  11  12
ENDBRANCH  10  11
ENDBRANCH   8   9
BRANCH   8  15
HETATM   15  O1  UNL     1      23.981   2.343  51.261  1.00  0.00    -0.372 OA
BRANCH  15  16
HETATM   16  C7  UNL     1      25.064   2.840  51.866  1.00  0.00     0.148 C 
HETATM   17  C8  UNL     1      26.288   2.394  51.086  1.00  0.00     0.060 C 
HETATM   18  C9  UNL     1      26.881   1.345  51.987  1.00  0.00     0.170 C 
HETATM   19  O2  UNL     1      26.743   1.952  53.236  1.00  0.00    -0.389 OA
HETATM   20  C10 UNL     1      25.388   2.280  53.227  1.00  0.00     0.199 C 
ENDBRANCH  15  16
ENDBRANCH   8  15
ENDBRANCH   1   8
BRANCH   7  21
HETATM   21  C15 UNL     1      23.514   5.317  49.635  1.00  0.00     0.034 A 
HETATM   22  C16 UNL     1      23.348   6.419  50.486  1.00  0.00     0.032 A 
HETATM   23  C17 UNL     1      24.402   7.300  50.725  1.00  0.00     0.046 A 
HETATM   24  C18 UNL     1      25.635   7.114  50.134  1.00  0.00     0.138 A 
HETATM   25  F1  UNL     1      26.690   7.947  50.339  1.00  0.00    -0.204 F 
HETATM   26  C19 UNL     1      25.818   6.041  49.297  1.00  0.00     0.074 A 
HETATM   27 CL1  UNL     1      27.356   5.749  48.518  1.00  0.00    -0.081 Cl
HETATM   28  C20 UNL     1      24.766   5.195  49.082  1.00  0.00     0.056 A 
ENDBRANCH   7  21
TORSDOF 7
ENDMDL
MODEL 3
REMARK VINA RESULT:      -6.7      2.548      5.374
REMARK  7 active torsions:
REMARK  status: ('A' for Active; 'I' for Inactive)
REMARK    1  A    between atoms: N1_2  and  C3_4 
REMARK    2  A    between atoms: C3_4  and  C4_5 
REMARK    3  A    between atoms: C5_6  and  C6_7 
REMARK    4  A    between atoms: C6_7  and  O1_8 
REMARK    5  A    between atoms: C6_7  and  C11_14 
REMARK    6  A    between atoms: O1_8  and  C7_9 
REMARK    7  A    between atoms: N4_20  and  C15_21 
ROOT
HETATM    1  C11 UNL     1      23.093   1.027  53.158  1.00  0.00     0.159 C 
HETATM    2  C12 UNL     1      23.378  -0.421  52.854  1.00  0.00     0.119 C 
HETATM    3  N2  UNL     1      22.548  -1.356  53.253  1.00  0.00    -0.256 NA
HETATM    4  C13 UNL     1      21.321  -1.197  53.990  1.00  0.00     0.228 C 
HETATM    5  N3  UNL     1      20.531  -0.217  54.125  1.00  0.00    -0.263 NA
HETATM    6  C14 UNL     1      20.590   1.133  53.563  1.00  0.00     0.275 C 
HETATM    7  N4  UNL     1      21.749   1.230  52.654  1.00  0.00    -0.350 N 
ENDROOT
BRANCH   1   8
HETATM    8  C6  UNL     1      24.105   1.906  52.466  1.00  0.00     0.172 C 
BRANCH   8   9
HETATM    9  C5  UNL     1      23.871   3.334  52.737  1.00  0.00     0.005 C 
HETATM   10  C4  UNL     1      23.846   4.295  51.789  1.00  0.00     0.002 C 
BRANCH  10  11
HETATM   11  C3  UNL     1      23.619   5.758  51.958  1.00  0.00     0.298 C 
BRANCH  11  12
HETATM   12  N1  UNL     1      24.512   6.591  51.224  1.00  0.00     0.083 N 
HETATM   13  C1  UNL     1      25.003   5.880  50.075  1.00  0.00     0.309 C 
HETATM   14  C2  UNL     1      23.790   7.764  50.772  1.00  0.00     0.309 C 
ENDBRANCH  11  12
ENDBRANCH  10  11
ENDBRANCH   8   9
BRANCH   8  15
HETATM   15  O1  UNL     1      25.394   1.478  52.615  1.00  0.00    -0.372 OA
BRANCH  15  16
HETATM   16  C7  UNL     1      26.138   1.826  53.669  1.00  0.00     0.148 C 
HETATM   17  C8  UNL     1      27.511   2.234  53.164  1.00  0.00     0.060 C 
HETATM   18  C9  UNL     1      28.367   1.067  53.577  1.00  0.00     0.170 C 
HETATM   19  O2  UNL     1      27.883   0.818  54.862  1.00  0.00    -0.389 OA
HETATM   20  C10 UNL     1      26.513   0.719  54.619  1.00  0.00     0.199 C 
ENDBRANCH  15  16
ENDBRANCH   8  15
ENDBRANCH   1   8
BRANCH   7  21
HETATM   21  C15 UNL     1      21.358   1.536  51.344  1.00  0.00     0.034 A 
HETATM   22  C16 UNL     1      20.018   1.918  51.198  1.00  0.00     0.032 A 
HETATM   23  C17 UNL     1      19.497   2.229  49.943  1.00  0.00     0.046 A 
HETATM   24  C18 UNL     1      20.284   2.172  48.810  1.00  0.00     0.138 A 
HETATM   25  F1  UNL     1      19.819   2.467  47.567  1.00  0.00    -0.204 F 
HETATM   26  C19 UNL     1      21.601   1.801  48.931  1.00  0.00     0.074 A 
HETATM   27 CL1  UNL     1      22.650   1.708  47.536  1.00  0.00    -0.081 Cl
HETATM   28  C20 UNL     1      22.082   1.500  50.176  1.00  0.00     0.056 A 
ENDBRANCH   7  21
TORSDOF 7
ENDMDL
MODEL 4
REMARK VINA RESULT:      -6.7      3.067      4.782
REMARK  7 active torsions:
REMARK  status: ('A' for Active; 'I' for Inactive)
REMARK    1  A    between atoms: N1_2  and  C3_4 
REMARK    2  A    between atoms: C3_4  and  C4_5 
REMARK    3  A    between atoms: C5_6  and  C6_7 
REMARK    4  A    between atoms: C6_7  and  O1_8 
REMARK    5  A    between atoms: C6_7  and  C11_14 
REMARK    6  A    between atoms: O1_8  and  C7_9 
REMARK    7  A    between atoms: N4_20  and  C15_21 
ROOT
HETATM    1  C11 UNL     1      24.652   5.038  49.481  1.00  0.00     0.159 C 
HETATM    2  C12 UNL     1      24.412   5.893  50.698  1.00  0.00     0.119 C 
HETATM    3  N2  UNL     1      23.557   6.887  50.648  1.00  0.00    -0.256 NA
HETATM    4  C13 UNL     1      22.759   7.316  49.529  1.00  0.00     0.228 C 
HETATM    5  N3  UNL     1      22.360   6.714  48.489  1.00  0.00    -0.263 NA
HETATM    6  C14 UNL     1      22.579   5.335  48.049  1.00  0.00     0.275 C 
HETATM    7  N4  UNL     1      23.324   4.604  49.093  1.00  0.00    -0.350 N 
ENDROOT
BRANCH   1   8
HETATM    8  C6  UNL     1      25.552   3.880  49.836  1.00  0.00     0.172 C 
BRANCH   8   9
HETATM    9  C5  UNL     1      26.906   4.044  49.282  1.00  0.00     0.005 C 
HETATM   10  C4  UNL     1      27.371   5.186  48.733  1.00  0.00     0.002 C 
BRANCH  10  11
HETATM   11  C3  UNL     1      28.715   5.454  48.148  1.00  0.00     0.298 C 
BRANCH  11  12
HETATM   12  N1  UNL     1      28.886   6.762  47.613  1.00  0.00     0.083 N 
HETATM   13  C1  UNL     1      27.631   7.463  47.638  1.00  0.00     0.309 C 
HETATM   14  C2  UNL     1      29.837   7.483  48.436  1.00  0.00     0.309 C 
ENDBRANCH  11  12
ENDBRANCH  10  11
ENDBRANCH   8   9
BRANCH   8  15
HETATM   15  O1  UNL     1      25.490   3.524  51.154  1.00  0.00    -0.372 OA
BRANCH  15  16
HETATM   16  C7  UNL     1      25.400   2.248  51.539  1.00  0.00     0.148 C 
HETATM   17  C8  UNL     1      24.762   2.213  52.917  1.00  0.00     0.060 C 
HETATM   18  C9  UNL     1      25.929   1.877  53.805  1.00  0.00     0.170 C 
HETATM   19  O2  UNL     1      26.570   0.893  53.050  1.00  0.00    -0.389 OA
HETATM   20  C10 UNL     1      26.699   1.540  51.821  1.00  0.00     0.199 C 
ENDBRANCH  15  16
ENDBRANCH   8  15
ENDBRANCH   1   8
BRANCH   7  21
HETATM   21  C15 UNL     1      22.595   3.515  49.587  1.00  0.00     0.034 A 
HETATM   22  C16 UNL     1      22.494   2.423  48.714  1.00  0.00     0.032 A 
HETATM   23  C17 UNL     1      21.778   1.284  49.077  1.00  0.00     0.046 A 
HETATM   24  C18 UNL     1      21.150   1.196  50.303  1.00  0.00     0.138 A 
HETATM   25  F1  UNL     1      20.442   0.106  50.699  1.00  0.00    -0.204 F 
HETATM   26  C19 UNL     1      21.237   2.255  51.173  1.00  0.00     0.074 A 
HETATM   27 CL1  UNL     1      20.464   2.208  52.741  1.00  0.00    -0.081 Cl
HETATM   28  C20 UNL     1      21.945   3.360  50.788  1.00  0.00     0.056 A 
ENDBRANCH   7  21
TORSDOF 7
ENDMDL
MODEL 5
REMARK VINA RESULT:      -6.6      1.909      2.291
REMARK  7 active torsions:
REMARK  status: ('A' for Active; 'I' for Inactive)
REMARK    1  A    between atoms: N1_2  and  C3_4 
REMARK    2  A    between atoms: C3_4  and  C4_5 
REMARK    3  A    between atoms: C5_6  and  C6_7 
REMARK    4  A    between atoms: C6_7  and  O1_8 
REMARK    5  A    between atoms: C6_7  and  C11_14 
REMARK    6  A    between atoms: O1_8  and  C7_9 
REMARK    7  A    between atoms: N4_20  and  C15_21 
ROOT
HETATM    1  C11 UNL     1      24.214   3.387  51.324  1.00  0.00     0.159 C 
HETATM    2  C12 UNL     1      23.530   4.303  52.305  1.00  0.00     0.119 C 
HETATM    3  N2  UNL     1      23.688   5.603  52.216  1.00  0.00    -0.256 NA
HETATM    4  C13 UNL     1      24.471   6.339  51.257  1.00  0.00     0.228 C 
HETATM    5  N3  UNL     1      24.881   6.050  50.094  1.00  0.00    -0.263 NA
HETATM    6  C14 UNL     1      24.696   4.836  49.297  1.00  0.00     0.275 C 
HETATM    7  N4  UNL     1      23.816   3.904  50.029  1.00  0.00    -0.350 N 
ENDROOT
BRANCH   1   8
HETATM    8  C6  UNL     1      23.754   1.967  51.541  1.00  0.00     0.172 C 
BRANCH   8   9
HETATM    9  C5  UNL     1      24.849   1.098  52.002  1.00  0.00     0.005 C 
HETATM   10  C4  UNL     1      26.086   1.534  52.321  1.00  0.00     0.002 C 
BRANCH  10  11
HETATM   11  C3  UNL     1      27.256   0.742  52.794  1.00  0.00     0.298 C 
BRANCH  11  12
HETATM   12  N1  UNL     1      27.869   1.230  53.983  1.00  0.00     0.083 N 
HETATM   13  C1  UNL     1      28.696   0.205  54.558  1.00  0.00     0.309 C 
HETATM   14  C2  UNL     1      28.703   2.366  53.645  1.00  0.00     0.309 C 
ENDBRANCH  11  12
ENDBRANCH  10  11
ENDBRANCH   8   9
BRANCH   8  15
HETATM   15  O1  UNL     1      22.586   1.872  52.245  1.00  0.00    -0.372 OA
BRANCH  15  16
HETATM   16  C7  UNL     1      21.877   0.740  52.290  1.00  0.00     0.148 C 
HETATM   17  C8  UNL     1      21.311   0.482  50.904  1.00  0.00     0.060 C 
HETATM   18  C9  UNL     1      19.855   0.814  51.083  1.00  0.00     0.170 C 
HETATM   19  O2  UNL     1      19.593   0.225  52.321  1.00  0.00    -0.389 OA
HETATM   20  C10 UNL     1      20.609   0.776  53.101  1.00  0.00     0.199 C 
ENDBRANCH  15  16
ENDBRANCH   8  15
ENDBRANCH   1   8
BRANCH   7  21
HETATM   21  C15 UNL     1      22.644   3.624  49.314  1.00  0.00     0.034 A 
HETATM   22  C16 UNL     1      22.823   2.847  48.161  1.00  0.00     0.032 A 
HETATM   23  C17 UNL     1      21.739   2.516  47.350  1.00  0.00     0.046 A 
HETATM   24  C18 UNL     1      20.462   2.940  47.656  1.00  0.00     0.138 A 
HETATM   25  F1  UNL     1      19.377   2.640  46.895  1.00  0.00    -0.204 F 
HETATM   26  C19 UNL     1      20.265   3.702  48.782  1.00  0.00     0.074 A 
HETATM   27 CL1  UNL     1      18.673   4.271  49.226  1.00  0.00    -0.081 Cl
HETATM   28  C20 UNL     1      21.348   4.012  49.557  1.00  0.00     0.056 A 
ENDBRANCH   7  21
TORSDOF 7
ENDMDL
MODEL 6
REMARK VINA RESULT:      -6.4      3.129      5.071
REMARK  7 active torsions:
REMARK  status: ('A' for Active; 'I' for Inactive)
REMARK    1  A    between atoms: N1_2  and  C3_4 
REMARK    2  A    between atoms: C3_4  and  C4_5 
REMARK    3  A    between atoms: C5_6  and  C6_7 
REMARK    4  A    between atoms: C6_7  and  O1_8 
REMARK    5  A    between atoms: C6_7  and  C11_14 
REMARK    6  A    between atoms: O1_8  and  C7_9 
REMARK    7  A    between atoms: N4_20  and  C15_21 
ROOT
HETATM    1  C11 UNL     1      23.244   2.535  51.947  1.00  0.00     0.159 C 
HETATM    2  C12 UNL     1      22.778   1.103  51.987  1.00  0.00     0.119 C 
HETATM    3  N2  UNL     1      21.557   0.817  52.373  1.00  0.00    -0.256 NA
HETATM    4  C13 UNL     1      20.523   1.725  52.795  1.00  0.00     0.228 C 
HETATM    5  N3  UNL     1      20.332   2.958  52.575  1.00  0.00    -0.263 NA
HETATM    6  C14 UNL     1      21.119   3.914  51.794  1.00  0.00     0.275 C 
HETATM    7  N4  UNL     1      22.239   3.206  51.144  1.00  0.00    -0.350 N 
ENDROOT
BRANCH   1   8
HETATM    8  C6  UNL     1      24.617   2.612  51.328  1.00  0.00     0.172 C 
BRANCH   8   9
HETATM    9  C5  UNL     1      25.045   4.003  51.105  1.00  0.00     0.005 C 
HETATM   10  C4  UNL     1      25.603   4.455  49.962  1.00  0.00     0.002 C 
BRANCH  10  11
HETATM   11  C3  UNL     1      26.067   5.833  49.638  1.00  0.00     0.298 C 
BRANCH  11  12
HETATM   12  N1  UNL     1      26.857   5.936  48.458  1.00  0.00     0.083 N 
HETATM   13  C1  UNL     1      27.395   7.265  48.350  1.00  0.00     0.309 C 
HETATM   14  C2  UNL     1      27.957   4.996  48.548  1.00  0.00     0.309 C 
ENDBRANCH  11  12
ENDBRANCH  10  11
ENDBRANCH   8   9
BRANCH   8  15
HETATM   15  O1  UNL     1      25.535   1.799  51.932  1.00  0.00    -0.372 OA
BRANCH  15  16
HETATM   16  C7  UNL     1      26.129   2.134  53.081  1.00  0.00     0.148 C 
HETATM   17  C8  UNL     1      27.630   2.157  52.849  1.00  0.00     0.060 C 
HETATM   18  C9  UNL     1      28.085   0.909  53.556  1.00  0.00     0.170 C 
HETATM   19  O2  UNL     1      27.322   0.966  54.724  1.00  0.00    -0.389 OA
HETATM   20  C10 UNL     1      26.040   1.129  54.199  1.00  0.00     0.199 C 
ENDBRANCH  15  16
ENDBRANCH   8  15
ENDBRANCH   1   8
BRANCH   7  21
HETATM   21  C15 UNL     1      22.173   3.297  49.748  1.00  0.00     0.034 A 
HETATM   22  C16 UNL     1      22.153   2.069  49.072  1.00  0.00     0.032 A 
HETATM   23  C17 UNL     1      22.109   2.022  47.680  1.00  0.00     0.046 A 
HETATM   24  C18 UNL     1      22.082   3.178  46.927  1.00  0.00     0.138 A 
HETATM   25  F1  UNL     1      22.038   3.180  45.569  1.00  0.00    -0.204 F 
HETATM   26  C19 UNL     1      22.101   4.392  47.570  1.00  0.00     0.074 A 
HETATM   27 CL1  UNL     1      22.070   5.894  46.675  1.00  0.00    -0.081 Cl
HETATM   28  C20 UNL     1      22.146   4.406  48.937  1.00  0.00     0.056 A 
ENDBRANCH   7  21
TORSDOF 7
ENDMDL
MODEL 7
REMARK VINA RESULT:      -6.3      3.307      5.964
REMARK  7 active torsions:
REMARK  status: ('A' for Active; 'I' for Inactive)
REMARK    1  A    between atoms: N1_2  and  C3_4 
REMARK    2  A    between atoms: C3_4  and  C4_5 
REMARK    3  A    between atoms: C5_6  and  C6_7 
REMARK    4  A    between atoms: C6_7  and  O1_8 
REMARK    5  A    between atoms: C6_7  and  C11_14 
REMARK    6  A    between atoms: O1_8  and  C7_9 
REMARK    7  A    between atoms: N4_20  and  C15_21 
ROOT
HETATM    1  C11 UNL     1      24.342   2.090  51.729  1.00  0.00     0.159 C 
HETATM    2  C12 UNL     1      24.411   2.579  53.152  1.00  0.00     0.119 C 
HETATM    3  N2  UNL     1      25.553   2.572  53.798  1.00  0.00    -0.256 NA
HETATM    4  C13 UNL     1      26.841   2.138  53.320  1.00  0.00     0.228 C 
HETATM    5  N3  UNL     1      27.318   2.020  52.154  1.00  0.00    -0.263 NA
HETATM    6  C14 UNL     1      26.713   2.290  50.849  1.00  0.00     0.275 C 
HETATM    7  N4  UNL     1      25.365   2.858  51.047  1.00  0.00    -0.350 N 
ENDROOT
BRANCH   1   8
HETATM    8  C6  UNL     1      22.965   2.341  51.166  1.00  0.00     0.172 C 
BRANCH   8   9
HETATM    9  C5  UNL     1      22.889   2.021  49.731  1.00  0.00     0.005 C 
HETATM   10  C4  UNL     1      22.301   2.806  48.805  1.00  0.00     0.002 C 
BRANCH  10  11
HETATM   11  C3  UNL     1      22.172   2.575  47.339  1.00  0.00     0.298 C 
BRANCH  11  12
HETATM   12  N1  UNL     1      21.238   3.424  46.678  1.00  0.00     0.083 N 
HETATM   13  C1  UNL     1      20.716   4.387  47.609  1.00  0.00     0.309 C 
HETATM   14  C2  UNL     1      21.923   4.130  45.613  1.00  0.00     0.309 C 
ENDBRANCH  11  12
ENDBRANCH  10  11
ENDBRANCH   8   9
BRANCH   8  15
HETATM   15  O1  UNL     1      21.957   1.837  51.940  1.00  0.00    -0.372 OA
BRANCH  15  16
HETATM   16  C7  UNL     1      21.686   0.530  51.984  1.00  0.00     0.148 C 
HETATM   17  C8  UNL     1      20.220   0.339  51.635  1.00  0.00     0.060 C 
HETATM   18  C9  UNL     1      19.611   0.003  52.968  1.00  0.00     0.170 C 
HETATM   19  O2  UNL     1      20.565  -0.872  53.489  1.00  0.00    -0.389 OA
HETATM   20  C10 UNL     1      21.729  -0.117  53.344  1.00  0.00     0.199 C 
ENDBRANCH  15  16
ENDBRANCH   8  15
ENDBRANCH   1   8
BRANCH   7  21
HETATM   21  C15 UNL     1      25.256   4.143  50.501  1.00  0.00     0.034 A 
HETATM   22  C16 UNL     1      26.094   4.397  49.406  1.00  0.00     0.032 A 
HETATM   23  C17 UNL     1      26.097   5.644  48.785  1.00  0.00     0.046 A 
HETATM   24  C18 UNL     1      25.278   6.663  49.226  1.00  0.00     0.138 A 
HETATM   25  F1  UNL     1      25.248   7.894  48.650  1.00  0.00    -0.204 F 
HETATM   26  C19 UNL     1      24.449   6.436  50.297  1.00  0.00     0.074 A 
HETATM   27 CL1  UNL     1      23.387   7.685  50.904  1.00  0.00    -0.081 Cl
HETATM   28  C20 UNL     1      24.469   5.202  50.887  1.00  0.00     0.056 A 
ENDBRANCH   7  21
TORSDOF 7
ENDMDL
MODEL 8
REMARK VINA RESULT:      -6.2     10.219     12.775
REMARK  7 active torsions:
REMARK  status: ('A' for Active; 'I' for Inactive)
REMARK    1  A    between atoms: N1_2  and  C3_4 
REMARK    2  A    between atoms: C3_4  and  C4_5 
REMARK    3  A    between atoms: C5_6  and  C6_7 
REMARK    4  A    between atoms: C6_7  and  O1_8 
REMARK    5  A    between atoms: C6_7  and  C11_14 
REMARK    6  A    between atoms: O1_8  and  C7_9 
REMARK    7  A    between atoms: N4_20  and  C15_21 
ROOT
HETATM    1  C11 UNL     1      32.434   5.318  47.834  1.00  0.00     0.159 C 
HETATM    2  C12 UNL     1      33.701   5.541  48.619  1.00  0.00     0.119 C 
HETATM    3  N2  UNL     1      34.750   4.781  48.410  1.00  0.00    -0.256 NA
HETATM    4  C13 UNL     1      34.884   3.689  47.480  1.00  0.00     0.228 C 
HETATM    5  N3  UNL     1      34.265   3.399  46.415  1.00  0.00    -0.263 NA
HETATM    6  C14 UNL     1      33.167   4.091  45.737  1.00  0.00     0.275 C 
HETATM    7  N4  UNL     1      32.871   5.349  46.452  1.00  0.00    -0.350 N 
ENDROOT
BRANCH   1   8
HETATM    8  C6  UNL     1      31.439   6.408  48.145  1.00  0.00     0.172 C 
BRANCH   8   9
HETATM    9  C5  UNL     1      30.196   5.871  48.723  1.00  0.00     0.005 C 
HETATM   10  C4  UNL     1      29.051   5.688  48.032  1.00  0.00     0.002 C 
BRANCH  10  11
HETATM   11  C3  UNL     1      27.749   5.155  48.520  1.00  0.00     0.298 C 
BRANCH  11  12
HETATM   12  N1  UNL     1      26.828   6.143  48.972  1.00  0.00     0.083 N 
HETATM   13  C1  UNL     1      26.673   7.157  47.965  1.00  0.00     0.309 C 
HETATM   14  C2  UNL     1      25.542   5.514  49.200  1.00  0.00     0.309 C 
ENDBRANCH  11  12
ENDBRANCH  10  11
ENDBRANCH   8   9
BRANCH   8  15
HETATM   15  O1  UNL     1      31.984   7.476  48.801  1.00  0.00    -0.372 OA
BRANCH  15  16
HETATM   16  C7  UNL     1      31.781   8.733  48.398  1.00  0.00     0.148 C 
HETATM   17  C8  UNL     1      30.963   9.444  49.462  1.00  0.00     0.060 C 
HETATM   18  C9  UNL     1      29.609   9.546  48.815  1.00  0.00     0.170 C 
HETATM   19  O2  UNL     1      29.957   9.907  47.513  1.00  0.00    -0.389 OA
HETATM   20  C10 UNL     1      30.887   8.916  47.199  1.00  0.00     0.199 C 
ENDBRANCH  15  16
ENDBRANCH   8  15
ENDBRANCH   1   8
BRANCH   7  21
HETATM   21  C15 UNL     1      33.058   6.469  45.633  1.00  0.00     0.034 A 
HETATM   22  C16 UNL     1      32.116   6.619  44.605  1.00  0.00     0.032 A 
HETATM   23  C17 UNL     1      32.202   7.681  43.708  1.00  0.00     0.046 A 
HETATM   24  C18 UNL     1      33.213   8.616  43.803  1.00  0.00     0.138 A 
HETATM   25  F1  UNL     1      33.335   9.668  42.952  1.00  0.00    -0.204 F 
HETATM   26  C19 UNL     1      34.146   8.489  44.803  1.00  0.00     0.074 A 
HETATM   27 CL1  UNL     1      35.451   9.639  44.979  1.00  0.00    -0.081 Cl
HETATM   28  C20 UNL     1      34.036   7.435  45.667  1.00  0.00     0.056 A 
ENDBRANCH   7  21
TORSDOF 7
ENDMDL
MODEL 9
REMARK VINA RESULT:      -6.1      3.485      6.292
REMARK  7 active torsions:
REMARK  status: ('A' for Active; 'I' for Inactive)
REMARK    1  A    between atoms: N1_2  and  C3_4 
REMARK    2  A    between atoms: C3_4  and  C4_5 
REMARK    3  A    between atoms: C5_6  and  C6_7 
REMARK    4  A    between atoms: C6_7  and  O1_8 
REMARK    5  A    between atoms: C6_7  and  C11_14 
REMARK    6  A    between atoms: O1_8  and  C7_9 
REMARK    7  A    between atoms: N4_20  and  C15_21 
ROOT
HETATM    1  C11 UNL     1      24.276   2.055  51.485  1.00  0.00     0.159 C 
HETATM    2  C12 UNL     1      24.353   2.291  52.971  1.00  0.00     0.119 C 
HETATM    3  N2  UNL     1      25.519   2.336  53.573  1.00  0.00    -0.256 NA
HETATM    4  C13 UNL     1      26.826   2.183  52.989  1.00  0.00     0.228 C 
HETATM    5  N3  UNL     1      27.253   2.342  51.808  1.00  0.00    -0.263 NA
HETATM    6  C14 UNL     1      26.547   2.747  50.591  1.00  0.00     0.275 C 
HETATM    7  N4  UNL     1      25.146   3.071  50.926  1.00  0.00    -0.350 N 
ENDROOT
BRANCH   1   8
HETATM    8  C6  UNL     1      22.850   2.201  51.016  1.00  0.00     0.172 C 
BRANCH   8   9
HETATM    9  C5  UNL     1      22.728   2.025  49.559  1.00  0.00     0.005 C 
HETATM   10  C4  UNL     1      22.170   2.928  48.726  1.00  0.00     0.002 C 
BRANCH  10  11
HETATM   11  C3  UNL     1      22.000   2.846  47.249  1.00  0.00     0.298 C 
BRANCH  11  12
HETATM   12  N1  UNL     1      21.455   4.015  46.643  1.00  0.00     0.083 N 
HETATM   13  C1  UNL     1      22.233   5.163  47.020  1.00  0.00     0.309 C 
HETATM   14  C2  UNL     1      21.516   3.865  45.202  1.00  0.00     0.309 C 
ENDBRANCH  11  12
ENDBRANCH  10  11
ENDBRANCH   8   9
BRANCH   8  15
HETATM   15  O1  UNL     1      21.951   1.504  51.773  1.00  0.00    -0.372 OA
BRANCH  15  16
HETATM   16  C7  UNL     1      21.000   2.116  52.484  1.00  0.00     0.148 C 
HETATM   17  C8  UNL     1      19.662   1.501  52.112  1.00  0.00     0.060 C 
HETATM   18  C9  UNL     1      19.032   2.580  51.275  1.00  0.00     0.170 C 
HETATM   19  O2  UNL     1      19.360   3.720  52.010  1.00  0.00    -0.389 OA
HETATM   20  C10 UNL     1      20.739   3.561  52.150  1.00  0.00     0.199 C 
ENDBRANCH  15  16
ENDBRANCH   8  15
ENDBRANCH   1   8
BRANCH   7  21
HETATM   21  C15 UNL     1      24.834   4.403  50.626  1.00  0.00     0.034 A 
HETATM   22  C16 UNL     1      24.068   5.066  51.594  1.00  0.00     0.032 A 
HETATM   23  C17 UNL     1      23.673   6.390  51.407  1.00  0.00     0.046 A 
HETATM   24  C18 UNL     1      24.023   7.084  50.267  1.00  0.00     0.138 A 
HETATM   25  F1  UNL     1      23.661   8.375  50.043  1.00  0.00    -0.204 F 
HETATM   26  C19 UNL     1      24.774   6.453  49.306  1.00  0.00     0.074 A 
HETATM   27 CL1  UNL     1      25.251   7.277  47.839  1.00  0.00    -0.081 Cl
HETATM   28  C20 UNL     1      25.145   5.154  49.518  1.00  0.00     0.056 A 
ENDBRANCH   7  21
TORSDOF 7
ENDMDL
