MODEL 1
REMARK VINA RESULT:      -7.1      0.000      0.000
REMARK  7 active torsions:
REMARK  status: ('A' for Active; 'I' for Inactive)
REMARK    1  A    between atoms: O1_2  and  C2_3 
REMARK    2  A    between atoms: N3_12  and  C9_13 
REMARK    3  A    between atoms: C9_13  and  C10_14 
REMARK    4  A    between atoms: C10_14  and  C11_15 
REMARK    5  A    between atoms: C10_14  and  O2_20 
REMARK    6  A    between atoms: C12_16  and  C13_18 
REMARK    7  A    between atoms: O2_20  and  C14_21 
ROOT
HETATM    1  C2  UNL     1      20.873  -0.328  53.477  1.00  0.00     0.070 A 
HETATM    2  C3  UNL     1      21.538   0.116  52.346  1.00  0.00     0.039 A 
HETATM    3  C4  UNL     1      22.918   0.069  52.356  1.00  0.00     0.035 A 
HETATM    4  C5  UNL     1      23.554  -0.413  53.480  1.00  0.00     0.064 A 
HETATM    5  C6  UNL     1      22.899  -0.855  54.607  1.00  0.00     0.079 A 
HETATM    6  C7  UNL     1      21.519  -0.813  54.608  1.00  0.00     0.070 A 
HETATM    7  N1  UNL     1      23.675  -1.330  55.705  1.00  0.00    -0.275 N 
HETATM    8  N2  UNL     1      25.085  -1.338  55.619  1.00  0.00    -0.169 NA
HETATM    9  C8  UNL     1      25.665  -0.909  54.530  1.00  0.00     0.232 A 
HETATM   10  N3  UNL     1      24.957  -0.414  53.376  1.00  0.00    -0.336 N 
HETATM   11  H7  UNL     1      23.150  -1.661  56.546  1.00  0.00     0.189 HD
ENDROOT
BRANCH  10  12
HETATM   12  C9  UNL     1      25.856  -0.019  52.348  1.00  0.00     0.166 C 
BRANCH  12  13
HETATM   13  C10 UNL     1      26.667   1.232  52.725  1.00  0.00     0.164 C 
BRANCH  13  14
HETATM   14  C11 UNL     1      26.412   2.212  51.635  1.00  0.00     0.028 C 
HETATM   15  C12 UNL     1      25.717   3.085  50.875  1.00  0.00     0.039 C 
HETATM   16 CL1  UNL     1      25.939   4.145  49.470  1.00  0.00    -0.087 Cl
BRANCH  15  17
HETATM   17  C13 UNL     1      24.277   3.320  51.236  1.00  0.00     0.273 C 
HETATM   18  F1  UNL     1      23.455   3.326  50.126  1.00  0.00    -0.250 F 
ENDBRANCH  15  17
ENDBRANCH  13  14
BRANCH  13  19
HETATM   19  O2  UNL     1      27.988   0.902  52.695  1.00  0.00    -0.376 OA
BRANCH  19  20
HETATM   20  C14 UNL     1      28.676   0.843  53.843  1.00  0.00     0.114 C 
HETATM   21  C15 UNL     1      29.337   2.039  54.377  1.00  0.00     0.039 C 
HETATM   22  C16 UNL     1      29.658  -0.311  53.789  1.00  0.00     0.039 C 
ENDBRANCH  19  20
ENDBRANCH  13  19
ENDBRANCH  12  13
ENDBRANCH  10  12
BRANCH   1  23
HETATM   23  O1  UNL     1      19.483  -0.265  53.428  1.00  0.00    -0.356 OA
HETATM   24  C1  UNL     1      18.770  -0.161  52.208  1.00  0.00     0.210 C 
ENDBRANCH   1  23
TORSDOF 7
ENDMDL
MODEL 2
REMARK VINA RESULT:      -6.9      3.497      6.836
REMARK  7 active torsions:
REMARK  status: ('A' for Active; 'I' for Inactive)
REMARK    1  A    between atoms: O1_2  and  C2_3 
REMARK    2  A    between atoms: N3_12  and  C9_13 
REMARK    3  A    between atoms: C9_13  and  C10_14 
REMARK    4  A    between atoms: C10_14  and  C11_15 
REMARK    5  A    between atoms: C10_14  and  O2_20 
REMARK    6  A    between atoms: C12_16  and  C13_18 
REMARK    7  A    between atoms: O2_20  and  C14_21 
ROOT
HETATM    1  C2  UNL     1      26.383   5.297  49.346  1.00  0.00     0.070 A 
HETATM    2  C3  UNL     1      26.605   3.930  49.312  1.00  0.00     0.039 A 
HETATM    3  C4  UNL     1      25.743   3.126  50.031  1.00  0.00     0.035 A 
HETATM    4  C5  UNL     1      24.719   3.719  50.736  1.00  0.00     0.064 A 
HETATM    5  C6  UNL     1      24.494   5.076  50.774  1.00  0.00     0.079 A 
HETATM    6  C7  UNL     1      25.349   5.891  50.059  1.00  0.00     0.070 A 
HETATM    7  N1  UNL     1      23.397   5.565  51.545  1.00  0.00    -0.275 N 
HETATM    8  N2  UNL     1      22.572   4.660  52.246  1.00  0.00    -0.169 NA
HETATM    9  C8  UNL     1      22.822   3.379  52.183  1.00  0.00     0.232 A 
HETATM   10  N3  UNL     1      23.907   2.802  51.429  1.00  0.00    -0.336 N 
HETATM   11  H7  UNL     1      23.251   6.600  51.553  1.00  0.00     0.189 HD
ENDROOT
BRANCH  10  12
HETATM   12  C9  UNL     1      23.926   1.386  51.551  1.00  0.00     0.166 C 
BRANCH  12  13
HETATM   13  C10 UNL     1      23.747   0.919  53.005  1.00  0.00     0.164 C 
BRANCH  13  14
HETATM   14  C11 UNL     1      25.126   0.804  53.555  1.00  0.00     0.028 C 
HETATM   15  C12 UNL     1      26.379   0.324  53.699  1.00  0.00     0.039 C 
HETATM   16 CL1  UNL     1      27.842   0.602  54.663  1.00  0.00    -0.087 Cl
BRANCH  15  17
HETATM   17  C13 UNL     1      26.787  -0.817  52.810  1.00  0.00     0.273 C 
HETATM   18  F1  UNL     1      26.687  -0.496  51.470  1.00  0.00    -0.250 F 
ENDBRANCH  15  17
ENDBRANCH  13  14
BRANCH  13  19
HETATM   19  O2  UNL     1      23.198  -0.327  52.984  1.00  0.00    -0.376 OA
BRANCH  19  20
HETATM   20  C14 UNL     1      22.059  -0.552  53.653  1.00  0.00     0.114 C 
HETATM   21  C15 UNL     1      21.153   0.556  53.975  1.00  0.00     0.039 C 
HETATM   22  C16 UNL     1      22.355  -1.358  54.903  1.00  0.00     0.039 C 
ENDBRANCH  19  20
ENDBRANCH  13  19
ENDBRANCH  12  13
ENDBRANCH  10  12
BRANCH   1  23
HETATM   23  O1  UNL     1      27.272   6.075  48.609  1.00  0.00    -0.356 OA
HETATM   24  C1  UNL     1      28.588   5.643  48.305  1.00  0.00     0.210 C 
ENDBRANCH   1  23
TORSDOF 7
ENDMDL
MODEL 3
REMARK VINA RESULT:      -6.9      1.759      2.131
REMARK  7 active torsions:
REMARK  status: ('A' for Active; 'I' for Inactive)
REMARK    1  A    between atoms: O1_2  and  C2_3 
REMARK    2  A    between atoms: N3_12  and  C9_13 
REMARK    3  A    between atoms: C9_13  and  C10_14 
REMARK    4  A    between atoms: C10_14  and  C11_15 
REMARK    5  A    between atoms: C10_14  and  O2_20 
REMARK    6  A    between atoms: C12_16  and  C13_18 
REMARK    7  A    between atoms: O2_20  and  C14_21 
ROOT
HETATM    1  C2  UNL     1      19.330   0.138  52.026  1.00  0.00     0.070 A 
HETATM    2  C3  UNL     1      20.373   0.609  51.246  1.00  0.00     0.039 A 
HETATM    3  C4  UNL     1      21.658   0.414  51.712  1.00  0.00     0.035 A 
HETATM    4  C5  UNL     1      21.833  -0.231  52.916  1.00  0.00     0.064 A 
HETATM    5  C6  UNL     1      20.801  -0.701  53.697  1.00  0.00     0.079 A 
HETATM    6  C7  UNL     1      19.511  -0.512  53.241  1.00  0.00     0.070 A 
HETATM    7  N1  UNL     1      21.116  -1.353  54.926  1.00  0.00    -0.275 N 
HETATM    8  N2  UNL     1      22.465  -1.503  55.316  1.00  0.00    -0.169 NA
HETATM    9  C8  UNL     1      23.414  -1.042  54.546  1.00  0.00     0.232 A 
HETATM   10  N3  UNL     1      23.182  -0.372  53.289  1.00  0.00    -0.336 N 
HETATM   11  H7  UNL     1      20.312  -1.700  55.495  1.00  0.00     0.189 HD
ENDROOT
BRANCH  10  12
HETATM   12  C9  UNL     1      24.405   0.016  52.677  1.00  0.00     0.166 C 
BRANCH  12  13
HETATM   13  C10 UNL     1      25.162   1.075  53.496  1.00  0.00     0.164 C 
BRANCH  13  14
HETATM   14  C11 UNL     1      24.544   2.377  53.126  1.00  0.00     0.028 C 
HETATM   15  C12 UNL     1      24.092   3.363  52.323  1.00  0.00     0.039 C 
HETATM   16 CL1  UNL     1      23.319   4.956  52.426  1.00  0.00    -0.087 Cl
BRANCH  15  17
HETATM   17  C13 UNL     1      24.234   3.165  50.840  1.00  0.00     0.273 C 
HETATM   18  F1  UNL     1      25.453   2.608  50.503  1.00  0.00    -0.250 F 
ENDBRANCH  15  17
ENDBRANCH  13  14
BRANCH  13  19
HETATM   19  O2  UNL     1      26.457   1.088  53.074  1.00  0.00    -0.376 OA
BRANCH  19  20
HETATM   20  C14 UNL     1      27.423   1.441  53.933  1.00  0.00     0.114 C 
HETATM   21  C15 UNL     1      28.487   2.362  53.517  1.00  0.00     0.039 C 
HETATM   22  C16 UNL     1      28.028   0.198  54.556  1.00  0.00     0.039 C 
ENDBRANCH  19  20
ENDBRANCH  13  19
ENDBRANCH  12  13
ENDBRANCH  10  12
BRANCH   1  23
HETATM   23  O1  UNL     1      18.050   0.352  51.523  1.00  0.00    -0.356 OA
HETATM   24  C1  UNL     1      17.754   0.269  50.139  1.00  0.00     0.210 C 
ENDBRANCH   1  23
TORSDOF 7
ENDMDL
MODEL 4
REMARK VINA RESULT:      -6.9      2.716      5.703
REMARK  7 active torsions:
REMARK  status: ('A' for Active; 'I' for Inactive)
REMARK    1  A    between atoms: O1_2  and  C2_3 
REMARK    2  A    between atoms: N3_12  and  C9_13 
REMARK    3  A    between atoms: C9_13  and  C10_14 
REMARK    4  A    between atoms: C10_14  and  C11_15 
REMARK    5  A    between atoms: C10_14  and  O2_20 
REMARK    6  A    between atoms: C12_16  and  C13_18 
REMARK    7  A    between atoms: O2_20  and  C14_21 
ROOT
HETATM    1  C2  UNL     1      26.533   0.192  54.339  1.00  0.00     0.070 A 
HETATM    2  C3  UNL     1      26.682   1.419  53.714  1.00  0.00     0.039 A 
HETATM    3  C4  UNL     1      25.610   1.900  52.989  1.00  0.00     0.035 A 
HETATM    4  C5  UNL     1      24.461   1.142  52.926  1.00  0.00     0.064 A 
HETATM    5  C6  UNL     1      24.308  -0.078  53.545  1.00  0.00     0.079 A 
HETATM    6  C7  UNL     1      25.373  -0.569  54.274  1.00  0.00     0.070 A 
HETATM    7  N1  UNL     1      23.065  -0.765  53.402  1.00  0.00    -0.275 N 
HETATM    8  N2  UNL     1      22.027  -0.189  52.638  1.00  0.00    -0.169 NA
HETATM    9  C8  UNL     1      22.216   0.971  52.067  1.00  0.00     0.232 A 
HETATM   10  N3  UNL     1      23.438   1.730  52.161  1.00  0.00    -0.336 N 
HETATM   11  H7  UNL     1      22.978  -1.688  53.885  1.00  0.00     0.189 HD
ENDROOT
BRANCH  10  12
HETATM   12  C9  UNL     1      23.346   2.950  51.436  1.00  0.00     0.166 C 
BRANCH  12  13
HETATM   13  C10 UNL     1      23.495   2.745  49.919  1.00  0.00     0.164 C 
BRANCH  13  14
HETATM   14  C11 UNL     1      24.803   3.360  49.565  1.00  0.00     0.028 C 
HETATM   15  C12 UNL     1      25.687   4.336  49.269  1.00  0.00     0.039 C 
HETATM   16 CL1  UNL     1      27.401   4.544  48.863  1.00  0.00    -0.087 Cl
BRANCH  15  17
HETATM   17  C13 UNL     1      25.173   5.748  49.244  1.00  0.00     0.273 C 
HETATM   18  F1  UNL     1      24.372   5.993  48.145  1.00  0.00    -0.250 F 
ENDBRANCH  15  17
ENDBRANCH  13  14
BRANCH  13  19
HETATM   19  O2  UNL     1      22.513   3.457  49.299  1.00  0.00    -0.376 OA
BRANCH  19  20
HETATM   20  C14 UNL     1      21.693   2.834  48.442  1.00  0.00     0.114 C 
HETATM   21  C15 UNL     1      21.582   1.371  48.450  1.00  0.00     0.039 C 
HETATM   22  C16 UNL     1      21.961   3.326  47.033  1.00  0.00     0.039 C 
ENDBRANCH  19  20
ENDBRANCH  13  19
ENDBRANCH  12  13
ENDBRANCH  10  12
BRANCH   1  23
HETATM   23  O1  UNL     1      27.635  -0.259  55.061  1.00  0.00    -0.356 OA
HETATM   24  C1  UNL     1      28.965  -0.091  54.601  1.00  0.00     0.210 C 
ENDBRANCH   1  23
TORSDOF 7
ENDMDL
MODEL 5
REMARK VINA RESULT:      -6.8      3.000      6.533
REMARK  7 active torsions:
REMARK  status: ('A' for Active; 'I' for Inactive)
REMARK    1  A    between atoms: O1_2  and  C2_3 
REMARK    2  A    between atoms: N3_12  and  C9_13 
REMARK    3  A    between atoms: C9_13  and  C10_14 
REMARK    4  A    between atoms: C10_14  and  C11_15 
REMARK    5  A    between atoms: C10_14  and  O2_20 
REMARK    6  A    between atoms: C12_16  and  C13_18 
REMARK    7  A    between atoms: O2_20  and  C14_21 
ROOT
HETATM    1  C2  UNL     1      26.993   0.551  53.420  1.00  0.00     0.070 A 
HETATM    2  C3  UNL     1      26.111   0.879  52.403  1.00  0.00     0.039 A 
HETATM    3  C4  UNL     1      24.797   0.480  52.545  1.00  0.00     0.035 A 
HETATM    4  C5  UNL     1      24.436  -0.215  53.678  1.00  0.00     0.064 A 
HETATM    5  C6  UNL     1      25.308  -0.544  54.692  1.00  0.00     0.079 A 
HETATM    6  C7  UNL     1      26.625  -0.150  54.561  1.00  0.00     0.070 A 
HETATM    7  N1  UNL     1      24.808  -1.269  55.815  1.00  0.00    -0.275 N 
HETATM    8  N2  UNL     1      23.445  -1.632  55.866  1.00  0.00    -0.169 NA
HETATM    9  C8  UNL     1      22.652  -1.300  54.883  1.00  0.00     0.232 A 
HETATM   10  N3  UNL     1      23.075  -0.569  53.714  1.00  0.00    -0.336 N 
HETATM   11  H7  UNL     1      25.494  -1.502  56.568  1.00  0.00     0.189 HD
ENDROOT
BRANCH  10  12
HETATM   12  C9  UNL     1      21.992  -0.355  52.818  1.00  0.00     0.166 C 
BRANCH  12  13
HETATM   13  C10 UNL     1      20.834   0.419  53.470  1.00  0.00     0.164 C 
BRANCH  13  14
HETATM   14  C11 UNL     1      19.685  -0.527  53.484  1.00  0.00     0.028 C 
HETATM   15  C12 UNL     1      18.508  -1.071  53.108  1.00  0.00     0.039 C 
HETATM   16 CL1  UNL     1      17.429  -2.412  53.537  1.00  0.00    -0.087 Cl
BRANCH  15  17
HETATM   17  C13 UNL     1      17.779  -0.417  51.968  1.00  0.00     0.273 C 
HETATM   18  F1  UNL     1      18.588  -0.247  50.861  1.00  0.00    -0.250 F 
ENDBRANCH  15  17
ENDBRANCH  13  14
BRANCH  13  19
HETATM   19  O2  UNL     1      20.511   1.461  52.655  1.00  0.00    -0.376 OA
BRANCH  19  20
HETATM   20  C14 UNL     1      21.450   1.982  51.854  1.00  0.00     0.114 C 
HETATM   21  C15 UNL     1      22.066   3.275  52.173  1.00  0.00     0.039 C 
HETATM   22  C16 UNL     1      20.952   1.984  50.422  1.00  0.00     0.039 C 
ENDBRANCH  19  20
ENDBRANCH  13  19
ENDBRANCH  12  13
ENDBRANCH  10  12
BRANCH   1  23
HETATM   23  O1  UNL     1      28.309   0.971  53.241  1.00  0.00    -0.356 OA
HETATM   24  C1  UNL     1      29.359   0.567  54.102  1.00  0.00     0.210 C 
ENDBRANCH   1  23
TORSDOF 7
ENDMDL
MODEL 6
REMARK VINA RESULT:      -6.7      1.799      6.254
REMARK  7 active torsions:
REMARK  status: ('A' for Active; 'I' for Inactive)
REMARK    1  A    between atoms: O1_2  and  C2_3 
REMARK    2  A    between atoms: N3_12  and  C9_13 
REMARK    3  A    between atoms: C9_13  and  C10_14 
REMARK    4  A    between atoms: C10_14  and  C11_15 
REMARK    5  A    between atoms: C10_14  and  O2_20 
REMARK    6  A    between atoms: C12_16  and  C13_18 
REMARK    7  A    between atoms: O2_20  and  C14_21 
ROOT
HETATM    1  C2  UNL     1      26.330   0.083  53.028  1.00  0.00     0.070 A 
HETATM    2  C3  UNL     1      25.583   0.912  52.207  1.00  0.00     0.039 A 
HETATM    3  C4  UNL     1      24.219   0.959  52.418  1.00  0.00     0.035 A 
HETATM    4  C5  UNL     1      23.679   0.186  53.422  1.00  0.00     0.064 A 
HETATM    5  C6  UNL     1      24.416  -0.640  54.240  1.00  0.00     0.079 A 
HETATM    6  C7  UNL     1      25.781  -0.694  54.040  1.00  0.00     0.070 A 
HETATM    7  N1  UNL     1      23.735  -1.390  55.245  1.00  0.00    -0.275 N 
HETATM    8  N2  UNL     1      22.334  -1.274  55.380  1.00  0.00    -0.169 NA
HETATM    9  C8  UNL     1      21.674  -0.478  54.582  1.00  0.00     0.232 A 
HETATM   10  N3  UNL     1      22.283   0.314  53.543  1.00  0.00    -0.336 N 
HETATM   11  H7  UNL     1      24.321  -2.006  55.851  1.00  0.00     0.189 HD
ENDROOT
BRANCH  10  12
HETATM   12  C9  UNL     1      21.313   1.079  52.840  1.00  0.00     0.166 C 
BRANCH  12  13
HETATM   13  C10 UNL     1      20.583   0.257  51.765  1.00  0.00     0.164 C 
BRANCH  13  14
HETATM   14  C11 UNL     1      21.133   0.729  50.465  1.00  0.00     0.028 C 
HETATM   15  C12 UNL     1      21.723   1.568  49.587  1.00  0.00     0.039 C 
HETATM   16 CL1  UNL     1      22.210   1.634  47.883  1.00  0.00    -0.087 Cl
BRANCH  15  17
HETATM   17  C13 UNL     1      22.151   2.915  50.101  1.00  0.00     0.273 C 
HETATM   18  F1  UNL     1      23.443   3.229  49.726  1.00  0.00    -0.250 F 
ENDBRANCH  15  17
ENDBRANCH  13  14
BRANCH  13  19
HETATM   19  O2  UNL     1      19.262   0.585  51.807  1.00  0.00    -0.376 OA
BRANCH  19  20
HETATM   20  C14 UNL     1      18.342  -0.384  51.713  1.00  0.00     0.114 C 
HETATM   21  C15 UNL     1      17.026  -0.106  51.126  1.00  0.00     0.039 C 
HETATM   22  C16 UNL     1      18.176  -1.060  53.060  1.00  0.00     0.039 C 
ENDBRANCH  19  20
ENDBRANCH  13  19
ENDBRANCH  12  13
ENDBRANCH  10  12
BRANCH   1  23
HETATM   23  O1  UNL     1      27.701   0.064  52.786  1.00  0.00    -0.356 OA
HETATM   24  C1  UNL     1      28.579  -0.821  53.459  1.00  0.00     0.210 C 
ENDBRANCH   1  23
TORSDOF 7
ENDMDL
MODEL 7
REMARK VINA RESULT:      -6.6      3.507      7.077
REMARK  7 active torsions:
REMARK  status: ('A' for Active; 'I' for Inactive)
REMARK    1  A    between atoms: O1_2  and  C2_3 
REMARK    2  A    between atoms: N3_12  and  C9_13 
REMARK    3  A    between atoms: C9_13  and  C10_14 
REMARK    4  A    between atoms: C10_14  and  C11_15 
REMARK    5  A    between atoms: C10_14  and  O2_20 
REMARK    6  A    between atoms: C12_16  and  C13_18 
REMARK    7  A    between atoms: O2_20  and  C14_21 
ROOT
HETATM    1  C2  UNL     1      26.360   0.280  54.098  1.00  0.00     0.070 A 
HETATM    2  C3  UNL     1      25.212  -0.482  53.957  1.00  0.00     0.039 A 
HETATM    3  C4  UNL     1      24.229  -0.007  53.112  1.00  0.00     0.035 A 
HETATM    4  C5  UNL     1      24.440   1.188  52.460  1.00  0.00     0.064 A 
HETATM    5  C6  UNL     1      25.578   1.951  52.596  1.00  0.00     0.079 A 
HETATM    6  C7  UNL     1      26.568   1.485  53.438  1.00  0.00     0.070 A 
HETATM    7  N1  UNL     1      25.673   3.172  51.864  1.00  0.00    -0.275 N 
HETATM    8  N2  UNL     1      24.611   3.573  51.024  1.00  0.00    -0.169 NA
HETATM    9  C8  UNL     1      23.549   2.819  50.925  1.00  0.00     0.232 A 
HETATM   10  N3  UNL     1      23.372   1.572  51.628  1.00  0.00    -0.336 N 
HETATM   11  H7  UNL     1      26.550   3.727  51.987  1.00  0.00     0.189 HD
ENDROOT
BRANCH  10  12
HETATM   12  C9  UNL     1      22.118   0.979  51.321  1.00  0.00     0.166 C 
BRANCH  12  13
HETATM   13  C10 UNL     1      20.957   1.623  52.097  1.00  0.00     0.164 C 
BRANCH  13  14
HETATM   14  C11 UNL     1      20.157   0.486  52.628  1.00  0.00     0.028 C 
HETATM   15  C12 UNL     1      19.884  -0.622  53.349  1.00  0.00     0.039 C 
HETATM   16 CL1  UNL     1      18.552  -1.752  53.658  1.00  0.00    -0.087 Cl
BRANCH  15  17
HETATM   17  C13 UNL     1      20.987  -1.176  54.208  1.00  0.00     0.273 C 
HETATM   18  F1  UNL     1      21.366  -0.294  55.201  1.00  0.00    -0.250 F 
ENDBRANCH  15  17
ENDBRANCH  13  14
BRANCH  13  19
HETATM   19  O2  UNL     1      20.182   2.305  51.209  1.00  0.00    -0.376 OA
BRANCH  19  20
HETATM   20  C14 UNL     1      19.613   3.458  51.584  1.00  0.00     0.114 C 
HETATM   21  C15 UNL     1      18.154   3.608  51.564  1.00  0.00     0.039 C 
HETATM   22  C16 UNL     1      20.262   4.610  50.843  1.00  0.00     0.039 C 
ENDBRANCH  19  20
ENDBRANCH  13  19
ENDBRANCH  12  13
ENDBRANCH  10  12
BRANCH   1  23
HETATM   23  O1  UNL     1      27.328  -0.232  54.957  1.00  0.00    -0.356 OA
HETATM   24  C1  UNL     1      28.667   0.232  54.957  1.00  0.00     0.210 C 
ENDBRANCH   1  23
TORSDOF 7
ENDMDL
MODEL 8
REMARK VINA RESULT:      -6.4      3.643      6.658
REMARK  7 active torsions:
REMARK  status: ('A' for Active; 'I' for Inactive)
REMARK    1  A    between atoms: O1_2  and  C2_3 
REMARK    2  A    between atoms: N3_12  and  C9_13 
REMARK    3  A    between atoms: C9_13  and  C10_14 
REMARK    4  A    between atoms: C10_14  and  C11_15 
REMARK    5  A    between atoms: C10_14  and  O2_20 
REMARK    6  A    between atoms: C12_16  and  C13_18 
REMARK    7  A    between atoms: O2_20  and  C14_21 
ROOT
HETATM    1  C2  UNL     1      26.598   4.158  49.507  1.00  0.00     0.070 A 
HETATM    2  C3  UNL     1      26.685   3.006  50.272  1.00  0.00     0.039 A 
HETATM    3  C4  UNL     1      25.636   2.725  51.124  1.00  0.00     0.035 A 
HETATM    4  C5  UNL     1      24.570   3.597  51.170  1.00  0.00     0.064 A 
HETATM    5  C6  UNL     1      24.478   4.743  50.413  1.00  0.00     0.079 A 
HETATM    6  C7  UNL     1      25.521   5.034  49.556  1.00  0.00     0.070 A 
HETATM    7  N1  UNL     1      23.319   5.564  50.553  1.00  0.00    -0.275 N 
HETATM    8  N2  UNL     1      22.299   5.190  51.455  1.00  0.00    -0.169 NA
HETATM    9  C8  UNL     1      22.427   4.094  52.154  1.00  0.00     0.232 A 
HETATM   10  N3  UNL     1      23.563   3.210  52.073  1.00  0.00    -0.336 N 
HETATM   11  H7  UNL     1      23.278   6.426  49.965  1.00  0.00     0.189 HD
ENDROOT
BRANCH  10  12
HETATM   12  C9  UNL     1      23.419   2.101  52.950  1.00  0.00     0.166 C 
BRANCH  12  13
HETATM   13  C10 UNL     1      23.307   0.765  52.196  1.00  0.00     0.164 C 
BRANCH  13  14
HETATM   14  C11 UNL     1      21.847   0.524  52.034  1.00  0.00     0.028 C 
HETATM   15  C12 UNL     1      20.594   0.164  52.381  1.00  0.00     0.039 C 
HETATM   16 CL1  UNL     1      18.966   0.056  51.684  1.00  0.00    -0.087 Cl
BRANCH  15  17
HETATM   17  C13 UNL     1      20.379  -0.320  53.788  1.00  0.00     0.273 C 
HETATM   18  F1  UNL     1      21.064   0.444  54.712  1.00  0.00    -0.250 F 
ENDBRANCH  15  17
ENDBRANCH  13  14
BRANCH  13  19
HETATM   19  O2  UNL     1      23.810  -0.215  52.996  1.00  0.00    -0.376 OA
BRANCH  19  20
HETATM   20  C14 UNL     1      25.075  -0.123  53.430  1.00  0.00     0.114 C 
HETATM   21  C15 UNL     1      26.185  -0.578  52.585  1.00  0.00     0.039 C 
HETATM   22  C16 UNL     1      25.186  -0.742  54.809  1.00  0.00     0.039 C 
ENDBRANCH  19  20
ENDBRANCH  13  19
ENDBRANCH  12  13
ENDBRANCH  10  12
BRANCH   1  23
HETATM   23  O1  UNL     1      27.674   4.406  48.659  1.00  0.00    -0.356 OA
HETATM   24  C1  UNL     1      28.131   5.717  48.376  1.00  0.00     0.210 C 
ENDBRANCH   1  23
TORSDOF 7
ENDMDL
MODEL 9
REMARK VINA RESULT:      -6.4      8.164     10.403
REMARK  7 active torsions:
REMARK  status: ('A' for Active; 'I' for Inactive)
REMARK    1  A    between atoms: O1_2  and  C2_3 
REMARK    2  A    between atoms: N3_12  and  C9_13 
REMARK    3  A    between atoms: C9_13  and  C10_14 
REMARK    4  A    between atoms: C10_14  and  C11_15 
REMARK    5  A    between atoms: C10_14  and  O2_20 
REMARK    6  A    between atoms: C12_16  and  C13_18 
REMARK    7  A    between atoms: O2_20  and  C14_21 
ROOT
HETATM    1  C2  UNL     1      26.891   6.351  48.532  1.00  0.00     0.070 A 
HETATM    2  C3  UNL     1      27.543   5.129  48.508  1.00  0.00     0.039 A 
HETATM    3  C4  UNL     1      28.915   5.140  48.362  1.00  0.00     0.035 A 
HETATM    4  C5  UNL     1      29.558   6.354  48.250  1.00  0.00     0.064 A 
HETATM    5  C6  UNL     1      28.916   7.571  48.273  1.00  0.00     0.079 A 
HETATM    6  C7  UNL     1      27.543   7.573  48.418  1.00  0.00     0.070 A 
HETATM    7  N1  UNL     1      29.698   8.758  48.147  1.00  0.00    -0.275 N 
HETATM    8  N2  UNL     1      31.099   8.664  48.002  1.00  0.00    -0.169 NA
HETATM    9  C8  UNL     1      31.668   7.488  47.984  1.00  0.00     0.232 A 
HETATM   10  N3  UNL     1      30.953   6.242  48.106  1.00  0.00    -0.336 N 
HETATM   11  H7  UNL     1      29.182   9.667  48.169  1.00  0.00     0.189 HD
ENDROOT
BRANCH  10  12
HETATM   12  C9  UNL     1      31.838   5.131  48.053  1.00  0.00     0.166 C 
BRANCH  12  13
HETATM   13  C10 UNL     1      32.156   4.701  46.611  1.00  0.00     0.164 C 
BRANCH  13  14
HETATM   14  C11 UNL     1      32.050   3.216  46.610  1.00  0.00     0.028 C 
HETATM   15  C12 UNL     1      32.311   1.944  46.976  1.00  0.00     0.039 C 
HETATM   16 CL1  UNL     1      31.821   0.285  46.582  1.00  0.00    -0.087 Cl
BRANCH  15  17
HETATM   17  C13 UNL     1      33.329   1.733  48.062  1.00  0.00     0.273 C 
HETATM   18  F1  UNL     1      33.008   0.665  48.877  1.00  0.00    -0.250 F 
ENDBRANCH  15  17
ENDBRANCH  13  14
BRANCH  13  19
HETATM   19  O2  UNL     1      33.450   5.032  46.348  1.00  0.00    -0.376 OA
BRANCH  19  20
HETATM   20  C14 UNL     1      34.013   4.616  45.206  1.00  0.00     0.114 C 
HETATM   21  C15 UNL     1      35.278   3.872  45.228  1.00  0.00     0.039 C 
HETATM   22  C16 UNL     1      34.113   5.777  44.236  1.00  0.00     0.039 C 
ENDBRANCH  19  20
ENDBRANCH  13  19
ENDBRANCH  12  13
ENDBRANCH  10  12
BRANCH   1  23
HETATM   23  O1  UNL     1      25.507   6.299  48.681  1.00  0.00    -0.356 OA
HETATM   24  C1  UNL     1      24.851   5.206  49.300  1.00  0.00     0.210 C 
ENDBRANCH   1  23
TORSDOF 7
ENDMDL
