MODEL 1
REMARK VINA RESULT:      -9.2      0.000      0.000
REMARK  2 active torsions:
REMARK  status: ('A' for Active; 'I' for Inactive)
REMARK    1  A    between atoms: C7_7  and  N1_8 
REMARK    2  A    between atoms: N1_8  and  C8_9 
ROOT
HETATM    1  C1  UNL     1      30.536  -1.583  53.831  1.00  0.00     0.018 C 
HETATM    2  C2  UNL     1      29.574  -0.855  53.768  1.00  0.00    -0.078 C 
HETATM    3  C3  UNL     1      28.411  -0.005  53.697  1.00  0.00     0.019 A 
HETATM    4  C4  UNL     1      28.505   1.363  53.619  1.00  0.00     0.021 A 
HETATM    5  C5  UNL     1      27.399   2.184  53.555  1.00  0.00     0.004 A 
HETATM    6  C6  UNL     1      26.166   1.525  53.576  1.00  0.00     0.029 A 
HETATM    7  C7  UNL     1      26.073   0.126  53.654  1.00  0.00     0.035 A 
HETATM    8  C21 UNL     1      27.199  -0.645  53.715  1.00  0.00     0.050 A 
ENDROOT
BRANCH   7   9
HETATM    9  N1  UNL     1      24.708  -0.081  53.661  1.00  0.00    -0.340 N 
HETATM   10  H5  UNL     1      24.769  -1.026  54.176  1.00  0.00     0.167 HD
BRANCH   9  11
HETATM   11  C8  UNL     1      23.348  -0.284  53.668  1.00  0.00     0.143 A 
HETATM   12  N2  UNL     1      22.672  -1.020  54.604  1.00  0.00    -0.223 NA
HETATM   13  C9  UNL     1      21.343  -1.199  54.499  1.00  0.00     0.237 A 
HETATM   14  N3  UNL     1      20.675  -0.668  53.495  1.00  0.00    -0.223 NA
HETATM   15  C10 UNL     1      21.205   0.060  52.531  1.00  0.00     0.150 A 
HETATM   16  C11 UNL     1      22.563   0.245  52.633  1.00  0.00     0.058 A 
HETATM   17  N4  UNL     1      20.815   0.715  51.423  1.00  0.00    -0.299 N 
HETATM   18  C12 UNL     1      22.971   1.021  51.568  1.00  0.00     0.044 A 
HETATM   19  C13 UNL     1      21.868   1.318  50.803  1.00  0.00     0.020 A 
HETATM   20  C20 UNL     1      21.951   2.136  49.591  1.00  0.00     0.063 C 
HETATM   21  C19 UNL     1      20.977   1.754  48.521  1.00  0.00     0.057 C 
HETATM   22  C18 UNL     1      19.567   2.065  48.936  1.00  0.00     0.014 C 
HETATM   23  C17 UNL     1      18.893   1.627  50.010  1.00  0.00     0.049 C 
HETATM   24 CL1  UNL     1      18.648   3.151  47.895  1.00  0.00    -0.089 Cl
HETATM   25  C14 UNL     1      19.430   0.718  51.025  1.00  0.00     0.038 C 
HETATM   26  C15 UNL     1      18.586  -0.126  51.597  1.00  0.00    -0.001 C 
HETATM   27  C16 UNL     1      17.152  -0.309  51.362  1.00  0.00     0.038 C 
ENDBRANCH   9  11
ENDBRANCH   7   9
TORSDOF 2
ENDMDL
MODEL 2
REMARK VINA RESULT:      -9.2      2.566      7.673
REMARK  2 active torsions:
REMARK  status: ('A' for Active; 'I' for Inactive)
REMARK    1  A    between atoms: C7_7  and  N1_8 
REMARK    2  A    between atoms: N1_8  and  C8_9 
ROOT
HETATM    1  C1  UNL     1      15.711   1.135  50.215  1.00  0.00     0.018 C 
HETATM    2  C2  UNL     1      16.441   0.520  50.955  1.00  0.00    -0.078 C 
HETATM    3  C3  UNL     1      17.331  -0.199  51.834  1.00  0.00     0.019 A 
HETATM    4  C4  UNL     1      16.899  -1.231  52.632  1.00  0.00     0.021 A 
HETATM    5  C5  UNL     1      17.740  -1.920  53.479  1.00  0.00     0.004 A 
HETATM    6  C6  UNL     1      19.072  -1.494  53.472  1.00  0.00     0.029 A 
HETATM    7  C7  UNL     1      19.510  -0.440  52.654  1.00  0.00     0.035 A 
HETATM    8  C21 UNL     1      18.637   0.213  51.831  1.00  0.00     0.050 A 
ENDROOT
BRANCH   7   9
HETATM    9  N1  UNL     1      20.852  -0.354  52.973  1.00  0.00    -0.340 N 
HETATM   10  H5  UNL     1      21.009  -1.421  52.960  1.00  0.00     0.167 HD
BRANCH   9  11
HETATM   11  C8  UNL     1      22.187  -0.267  53.288  1.00  0.00     0.143 A 
HETATM   12  N2  UNL     1      22.797  -0.952  54.304  1.00  0.00    -0.223 NA
HETATM   13  C9  UNL     1      24.103  -0.765  54.564  1.00  0.00     0.237 A 
HETATM   14  N3  UNL     1      24.812   0.081  53.844  1.00  0.00    -0.223 NA
HETATM   15  C10 UNL     1      24.346   0.801  52.841  1.00  0.00     0.150 A 
HETATM   16  C11 UNL     1      23.012   0.613  52.572  1.00  0.00     0.058 A 
HETATM   17  N4  UNL     1      24.790   1.706  51.950  1.00  0.00    -0.299 N 
HETATM   18  C12 UNL     1      22.672   1.421  51.507  1.00  0.00     0.044 A 
HETATM   19  C13 UNL     1      23.794   2.111  51.114  1.00  0.00     0.020 A 
HETATM   20  C20 UNL     1      23.780   3.059  49.997  1.00  0.00     0.063 C 
HETATM   21  C19 UNL     1      24.709   4.220  50.162  1.00  0.00     0.057 C 
HETATM   22  C18 UNL     1      26.144   3.779  50.098  1.00  0.00     0.014 C 
HETATM   23  C17 UNL     1      26.780   2.882  50.865  1.00  0.00     0.049 C 
HETATM   24 CL1  UNL     1      27.154   4.521  48.858  1.00  0.00    -0.089 Cl
HETATM   25  C14 UNL     1      26.167   2.129  51.962  1.00  0.00     0.038 C 
HETATM   26  C15 UNL     1      26.933   1.828  52.998  1.00  0.00    -0.001 C 
HETATM   27  C16 UNL     1      28.342   2.145  53.237  1.00  0.00     0.038 C 
ENDBRANCH   9  11
ENDBRANCH   7   9
TORSDOF 2
ENDMDL
MODEL 3
REMARK VINA RESULT:      -9.0      2.237      3.500
REMARK  2 active torsions:
REMARK  status: ('A' for Active; 'I' for Inactive)
REMARK    1  A    between atoms: C7_7  and  N1_8 
REMARK    2  A    between atoms: N1_8  and  C8_9 
ROOT
HETATM    1  C1  UNL     1      29.827  -2.382  53.627  1.00  0.00     0.018 C 
HETATM    2  C2  UNL     1      29.353  -1.273  53.567  1.00  0.00    -0.078 C 
HETATM    3  C3  UNL     1      28.765   0.042  53.488  1.00  0.00     0.019 A 
HETATM    4  C4  UNL     1      29.435   1.171  53.895  1.00  0.00     0.021 A 
HETATM    5  C5  UNL     1      28.880   2.431  53.828  1.00  0.00     0.004 A 
HETATM    6  C6  UNL     1      27.580   2.483  53.314  1.00  0.00     0.029 A 
HETATM    7  C7  UNL     1      26.899   1.328  52.899  1.00  0.00     0.035 A 
HETATM    8  C21 UNL     1      27.492   0.100  52.985  1.00  0.00     0.050 A 
ENDROOT
BRANCH   7   9
HETATM    9  N1  UNL     1      25.680   1.832  52.490  1.00  0.00    -0.340 N 
HETATM   10  H5  UNL     1      25.146   1.471  53.353  1.00  0.00     0.167 HD
BRANCH   9  11
HETATM   11  C8  UNL     1      24.469   2.336  52.081  1.00  0.00     0.143 A 
HETATM   12  N2  UNL     1      24.291   3.549  51.471  1.00  0.00    -0.223 NA
HETATM   13  C9  UNL     1      23.057   3.976  51.148  1.00  0.00     0.237 A 
HETATM   14  N3  UNL     1      22.003   3.231  51.414  1.00  0.00    -0.223 NA
HETATM   15  C10 UNL     1      22.037   2.047  51.995  1.00  0.00     0.150 A 
HETATM   16  C11 UNL     1      23.296   1.607  52.327  1.00  0.00     0.058 A 
HETATM   17  N4  UNL     1      21.183   1.082  52.382  1.00  0.00    -0.299 N 
HETATM   18  C12 UNL     1      23.174   0.366  52.917  1.00  0.00     0.044 A 
HETATM   19  C13 UNL     1      21.841   0.034  52.952  1.00  0.00     0.020 A 
HETATM   20  C20 UNL     1      21.362  -1.231  53.514  1.00  0.00     0.063 C 
HETATM   21  C19 UNL     1      20.024  -1.144  54.177  1.00  0.00     0.057 C 
HETATM   22  C18 UNL     1      18.936  -0.891  53.172  1.00  0.00     0.014 C 
HETATM   23  C17 UNL     1      18.816   0.127  52.306  1.00  0.00     0.049 C 
HETATM   24 CL1  UNL     1      17.629  -2.071  53.093  1.00  0.00    -0.089 Cl
HETATM   25  C14 UNL     1      19.766   1.234  52.174  1.00  0.00     0.038 C 
HETATM   26  C15 UNL     1      19.279   2.418  51.841  1.00  0.00    -0.001 C 
HETATM   27  C16 UNL     1      17.893   2.816  51.582  1.00  0.00     0.038 C 
ENDBRANCH   9  11
ENDBRANCH   7   9
TORSDOF 2
ENDMDL
MODEL 4
REMARK VINA RESULT:      -8.7      4.035      5.580
REMARK  2 active torsions:
REMARK  status: ('A' for Active; 'I' for Inactive)
REMARK    1  A    between atoms: C7_7  and  N1_8 
REMARK    2  A    between atoms: N1_8  and  C8_9 
ROOT
HETATM    1  C1  UNL     1      29.777   7.153  47.038  1.00  0.00     0.018 C 
HETATM    2  C2  UNL     1      28.728   6.816  47.534  1.00  0.00    -0.078 C 
HETATM    3  C3  UNL     1      27.488   6.398  48.139  1.00  0.00     0.019 A 
HETATM    4  C4  UNL     1      26.300   7.046  47.902  1.00  0.00     0.021 A 
HETATM    5  C5  UNL     1      25.110   6.657  48.480  1.00  0.00     0.004 A 
HETATM    6  C6  UNL     1      25.195   5.550  49.330  1.00  0.00     0.029 A 
HETATM    7  C7  UNL     1      26.411   4.889  49.569  1.00  0.00     0.035 A 
HETATM    8  C21 UNL     1      27.564   5.313  48.973  1.00  0.00     0.050 A 
ENDROOT
BRANCH   7   9
HETATM    9  N1  UNL     1      26.039   3.896  50.454  1.00  0.00    -0.340 N 
HETATM   10  H5  UNL     1      25.363   4.526  51.009  1.00  0.00     0.167 HD
BRANCH   9  11
HETATM   11  C8  UNL     1      25.671   2.905  51.333  1.00  0.00     0.143 A 
HETATM   12  N2  UNL     1      26.506   2.317  52.245  1.00  0.00    -0.223 NA
HETATM   13  C9  UNL     1      26.063   1.322  53.032  1.00  0.00     0.237 A 
HETATM   14  N3  UNL     1      24.818   0.899  52.937  1.00  0.00    -0.223 NA
HETATM   15  C10 UNL     1      23.915   1.379  52.104  1.00  0.00     0.150 A 
HETATM   16  C11 UNL     1      24.364   2.397  51.296  1.00  0.00     0.058 A 
HETATM   17  N4  UNL     1      22.625   1.178  51.780  1.00  0.00    -0.299 N 
HETATM   18  C12 UNL     1      23.319   2.795  50.489  1.00  0.00     0.044 A 
HETATM   19  C13 UNL     1      22.220   2.027  50.794  1.00  0.00     0.020 A 
HETATM   20  C20 UNL     1      20.932   2.197  50.119  1.00  0.00     0.063 C 
HETATM   21  C19 UNL     1      20.151   0.932  49.951  1.00  0.00     0.057 C 
HETATM   22  C18 UNL     1      19.672   0.413  51.277  1.00  0.00     0.014 C 
HETATM   23  C17 UNL     1      20.393   0.081  52.358  1.00  0.00     0.049 C 
HETATM   24 CL1  UNL     1      17.932   0.200  51.470  1.00  0.00    -0.089 Cl
HETATM   25  C14 UNL     1      21.852   0.165  52.453  1.00  0.00     0.038 C 
HETATM   26  C15 UNL     1      22.468  -0.735  53.201  1.00  0.00    -0.001 C 
HETATM   27  C16 UNL     1      21.906  -1.847  53.971  1.00  0.00     0.038 C 
ENDBRANCH   9  11
ENDBRANCH   7   9
TORSDOF 2
ENDMDL
MODEL 5
REMARK VINA RESULT:      -8.5      4.780      6.854
REMARK  2 active torsions:
REMARK  status: ('A' for Active; 'I' for Inactive)
REMARK    1  A    between atoms: C7_7  and  N1_8 
REMARK    2  A    between atoms: N1_8  and  C8_9 
ROOT
HETATM    1  C1  UNL     1      22.205  -0.953  54.809  1.00  0.00     0.018 C 
HETATM    2  C2  UNL     1      23.181  -0.633  54.173  1.00  0.00    -0.078 C 
HETATM    3  C3  UNL     1      24.334  -0.229  53.407  1.00  0.00     0.019 A 
HETATM    4  C4  UNL     1      25.505  -0.948  53.410  1.00  0.00     0.021 A 
HETATM    5  C5  UNL     1      26.615  -0.568  52.685  1.00  0.00     0.004 A 
HETATM    6  C6  UNL     1      26.467   0.608  51.943  1.00  0.00     0.029 A 
HETATM    7  C7  UNL     1      25.269   1.339  51.941  1.00  0.00     0.035 A 
HETATM    8  C21 UNL     1      24.195   0.921  52.676  1.00  0.00     0.050 A 
ENDROOT
BRANCH   7   9
HETATM    9  N1  UNL     1      25.569   2.400  51.109  1.00  0.00    -0.340 N 
HETATM   10  H5  UNL     1      26.234   1.829  50.482  1.00  0.00     0.167 HD
BRANCH   9  11
HETATM   11  C8  UNL     1      25.865   3.457  50.282  1.00  0.00     0.143 A 
HETATM   12  N2  UNL     1      27.050   3.621  49.615  1.00  0.00    -0.223 NA
HETATM   13  C9  UNL     1      27.263   4.715  48.863  1.00  0.00     0.237 A 
HETATM   14  N3  UNL     1      26.333   5.643  48.756  1.00  0.00    -0.223 NA
HETATM   15  C10 UNL     1      25.152   5.605  49.344  1.00  0.00     0.150 A 
HETATM   16  C11 UNL     1      24.930   4.489  50.115  1.00  0.00     0.058 A 
HETATM   17  N4  UNL     1      24.037   6.353  49.429  1.00  0.00    -0.299 N 
HETATM   18  C12 UNL     1      23.666   4.588  50.657  1.00  0.00     0.044 A 
HETATM   19  C13 UNL     1      23.101   5.764  50.224  1.00  0.00     0.020 A 
HETATM   20  C20 UNL     1      21.751   6.177  50.614  1.00  0.00     0.063 C 
HETATM   21  C19 UNL     1      21.574   7.655  50.755  1.00  0.00     0.057 C 
HETATM   22  C18 UNL     1      21.668   8.341  49.422  1.00  0.00     0.014 C 
HETATM   23  C17 UNL     1      22.681   8.327  48.542  1.00  0.00     0.049 C 
HETATM   24 CL1  UNL     1      20.279   9.301  48.916  1.00  0.00    -0.089 Cl
HETATM   25  C14 UNL     1      23.944   7.607  48.726  1.00  0.00     0.038 C 
HETATM   26  C15 UNL     1      25.034   8.148  48.208  1.00  0.00    -0.001 C 
HETATM   27  C16 UNL     1      25.189   9.398  47.462  1.00  0.00     0.038 C 
ENDBRANCH   9  11
ENDBRANCH   7   9
TORSDOF 2
ENDMDL
MODEL 6
REMARK VINA RESULT:      -8.5      5.788      7.290
REMARK  2 active torsions:
REMARK  status: ('A' for Active; 'I' for Inactive)
REMARK    1  A    between atoms: C7_7  and  N1_8 
REMARK    2  A    between atoms: N1_8  and  C8_9 
ROOT
HETATM    1  C1  UNL     1      32.945   4.209  47.642  1.00  0.00     0.018 C 
HETATM    2  C2  UNL     1      31.983   4.939  47.629  1.00  0.00    -0.078 C 
HETATM    3  C3  UNL     1      30.821   5.794  47.625  1.00  0.00     0.019 A 
HETATM    4  C4  UNL     1      30.866   7.091  47.173  1.00  0.00     0.021 A 
HETATM    5  C5  UNL     1      29.762   7.917  47.170  1.00  0.00     0.004 A 
HETATM    6  C6  UNL     1      28.586   7.342  47.662  1.00  0.00     0.029 A 
HETATM    7  C7  UNL     1      28.544   6.015  48.121  1.00  0.00     0.035 A 
HETATM    8  C21 UNL     1      29.666   5.235  48.104  1.00  0.00     0.050 A 
ENDROOT
BRANCH   7   9
HETATM    9  N1  UNL     1      27.227   5.879  48.515  1.00  0.00    -0.340 N 
HETATM   10  H5  UNL     1      27.448   5.940  49.569  1.00  0.00     0.167 HD
BRANCH   9  11
HETATM   11  C8  UNL     1      25.916   5.745  48.905  1.00  0.00     0.143 A 
HETATM   12  N2  UNL     1      24.910   6.613  48.578  1.00  0.00    -0.223 NA
HETATM   13  C9  UNL     1      23.664   6.420  49.046  1.00  0.00     0.237 A 
HETATM   14  N3  UNL     1      23.395   5.392  49.824  1.00  0.00    -0.223 NA
HETATM   15  C10 UNL     1      24.271   4.484  50.212  1.00  0.00     0.150 A 
HETATM   16  C11 UNL     1      25.546   4.677  49.736  1.00  0.00     0.058 A 
HETATM   17  N4  UNL     1      24.311   3.368  50.962  1.00  0.00    -0.299 N 
HETATM   18  C12 UNL     1      26.341   3.659  50.217  1.00  0.00     0.044 A 
HETATM   19  C13 UNL     1      25.563   2.831  50.991  1.00  0.00     0.020 A 
HETATM   20  C20 UNL     1      26.100   1.640  51.653  1.00  0.00     0.063 C 
HETATM   21  C19 UNL     1      25.460   1.322  52.967  1.00  0.00     0.057 C 
HETATM   22  C18 UNL     1      24.035   0.884  52.783  1.00  0.00     0.014 C 
HETATM   23  C17 UNL     1      23.022   1.545  52.203  1.00  0.00     0.049 C 
HETATM   24 CL1  UNL     1      23.603  -0.710  53.400  1.00  0.00    -0.089 Cl
HETATM   25  C14 UNL     1      23.121   2.883  51.614  1.00  0.00     0.038 C 
HETATM   26  C15 UNL     1      22.054   3.662  51.688  1.00  0.00    -0.001 C 
HETATM   27  C16 UNL     1      20.748   3.396  52.294  1.00  0.00     0.038 C 
ENDBRANCH   9  11
ENDBRANCH   7   9
TORSDOF 2
ENDMDL
MODEL 7
REMARK VINA RESULT:      -8.4      2.167      3.343
REMARK  2 active torsions:
REMARK  status: ('A' for Active; 'I' for Inactive)
REMARK    1  A    between atoms: C7_7  and  N1_8 
REMARK    2  A    between atoms: N1_8  and  C8_9 
ROOT
HETATM    1  C1  UNL     1      26.579   4.319  49.250  1.00  0.00     0.018 C 
HETATM    2  C2  UNL     1      26.479   3.576  50.197  1.00  0.00    -0.078 C 
HETATM    3  C3  UNL     1      26.337   2.682  51.320  1.00  0.00     0.019 A 
HETATM    4  C4  UNL     1      27.377   2.409  52.176  1.00  0.00     0.021 A 
HETATM    5  C5  UNL     1      27.252   1.552  53.250  1.00  0.00     0.004 A 
HETATM    6  C6  UNL     1      25.988   0.976  53.409  1.00  0.00     0.029 A 
HETATM    7  C7  UNL     1      24.928   1.259  52.533  1.00  0.00     0.035 A 
HETATM    8  C21 UNL     1      25.100   2.116  51.482  1.00  0.00     0.050 A 
ENDROOT
BRANCH   7   9
HETATM    9  N1  UNL     1      23.905   0.484  53.044  1.00  0.00    -0.340 N 
HETATM   10  H5  UNL     1      23.425   1.304  53.554  1.00  0.00     0.167 HD
BRANCH   9  11
HETATM   11  C8  UNL     1      22.888  -0.289  53.551  1.00  0.00     0.143 A 
HETATM   12  N2  UNL     1      23.026  -1.195  54.568  1.00  0.00    -0.223 NA
HETATM   13  C9  UNL     1      21.978  -1.939  54.964  1.00  0.00     0.237 A 
HETATM   14  N3  UNL     1      20.805  -1.806  54.379  1.00  0.00    -0.223 NA
HETATM   15  C10 UNL     1      20.540  -0.971  53.392  1.00  0.00     0.150 A 
HETATM   16  C11 UNL     1      21.608  -0.209  52.983  1.00  0.00     0.058 A 
HETATM   17  N4  UNL     1      19.498  -0.610  52.621  1.00  0.00    -0.299 N 
HETATM   18  C12 UNL     1      21.182   0.609  51.958  1.00  0.00     0.044 A 
HETATM   19  C13 UNL     1      19.850   0.357  51.729  1.00  0.00     0.020 A 
HETATM   20  C20 UNL     1      19.082   1.064  50.701  1.00  0.00     0.063 C 
HETATM   21  C19 UNL     1      18.014   0.242  50.053  1.00  0.00     0.057 C 
HETATM   22  C18 UNL     1      16.908  -0.069  51.021  1.00  0.00     0.014 C 
HETATM   23  C17 UNL     1      16.980  -0.700  52.202  1.00  0.00     0.049 C 
HETATM   24 CL1  UNL     1      15.285   0.452  50.574  1.00  0.00    -0.089 Cl
HETATM   25  C14 UNL     1      18.210  -1.231  52.797  1.00  0.00     0.038 C 
HETATM   26  C15 UNL     1      18.108  -2.326  53.532  1.00  0.00    -0.001 C 
HETATM   27  C16 UNL     1      16.924  -3.126  53.851  1.00  0.00     0.038 C 
ENDBRANCH   9  11
ENDBRANCH   7   9
TORSDOF 2
ENDMDL
MODEL 8
REMARK VINA RESULT:      -8.3      4.474      6.107
REMARK  2 active torsions:
REMARK  status: ('A' for Active; 'I' for Inactive)
REMARK    1  A    between atoms: C7_7  and  N1_8 
REMARK    2  A    between atoms: N1_8  and  C8_9 
ROOT
HETATM    1  C1  UNL     1      29.262  -0.707  53.457  1.00  0.00     0.018 C 
HETATM    2  C2  UNL     1      28.080  -0.474  53.365  1.00  0.00    -0.078 C 
HETATM    3  C3  UNL     1      26.674  -0.183  53.235  1.00  0.00     0.019 A 
HETATM    4  C4  UNL     1      25.730  -0.741  54.062  1.00  0.00     0.021 A 
HETATM    5  C5  UNL     1      24.382  -0.473  53.943  1.00  0.00     0.004 A 
HETATM    6  C6  UNL     1      24.040   0.410  52.915  1.00  0.00     0.029 A 
HETATM    7  C7  UNL     1      25.008   0.979  52.071  1.00  0.00     0.035 A 
HETATM    8  C21 UNL     1      26.332   0.683  52.230  1.00  0.00     0.050 A 
ENDROOT
BRANCH   7   9
HETATM    9  N1  UNL     1      24.243   1.752  51.220  1.00  0.00    -0.340 N 
HETATM   10  H5  UNL     1      23.391   1.092  51.249  1.00  0.00     0.167 HD
BRANCH   9  11
HETATM   11  C8  UNL     1      23.483   2.524  50.373  1.00  0.00     0.143 A 
HETATM   12  N2  UNL     1      22.203   2.232  49.985  1.00  0.00    -0.223 NA
HETATM   13  C9  UNL     1      21.557   3.027  49.115  1.00  0.00     0.237 A 
HETATM   14  N3  UNL     1      22.146   4.099  48.625  1.00  0.00    -0.223 NA
HETATM   15  C10 UNL     1      23.371   4.492  48.918  1.00  0.00     0.150 A 
HETATM   16  C11 UNL     1      24.037   3.682  49.807  1.00  0.00     0.058 A 
HETATM   17  N4  UNL     1      24.218   5.490  48.607  1.00  0.00    -0.299 N 
HETATM   18  C12 UNL     1      25.290   4.215  50.017  1.00  0.00     0.044 A 
HETATM   19  C13 UNL     1      25.407   5.357  49.260  1.00  0.00     0.020 A 
HETATM   20  C20 UNL     1      26.621   6.176  49.255  1.00  0.00     0.063 C 
HETATM   21  C19 UNL     1      26.916   6.835  47.946  1.00  0.00     0.057 C 
HETATM   22  C18 UNL     1      25.899   7.896  47.632  1.00  0.00     0.014 C 
HETATM   23  C17 UNL     1      24.568   7.774  47.519  1.00  0.00     0.049 C 
HETATM   24 CL1  UNL     1      26.503   9.532  47.375  1.00  0.00    -0.089 Cl
HETATM   25  C14 UNL     1      23.822   6.524  47.685  1.00  0.00     0.038 C 
HETATM   26  C15 UNL     1      22.733   6.361  46.951  1.00  0.00    -0.001 C 
HETATM   27  C16 UNL     1      22.138   7.258  45.958  1.00  0.00     0.038 C 
ENDBRANCH   9  11
ENDBRANCH   7   9
TORSDOF 2
ENDMDL
MODEL 9
REMARK VINA RESULT:      -8.3      7.805      9.456
REMARK  2 active torsions:
REMARK  status: ('A' for Active; 'I' for Inactive)
REMARK    1  A    between atoms: C7_7  and  N1_8 
REMARK    2  A    between atoms: N1_8  and  C8_9 
ROOT
HETATM    1  C1  UNL     1      34.988   3.229  46.302  1.00  0.00     0.018 C 
HETATM    2  C2  UNL     1      34.456   4.212  46.761  1.00  0.00    -0.078 C 
HETATM    3  C3  UNL     1      33.800   5.376  47.302  1.00  0.00     0.019 A 
HETATM    4  C4  UNL     1      34.482   6.348  47.994  1.00  0.00     0.021 A 
HETATM    5  C5  UNL     1      33.862   7.462  48.519  1.00  0.00     0.004 A 
HETATM    6  C6  UNL     1      32.483   7.537  48.300  1.00  0.00     0.029 A 
HETATM    7  C7  UNL     1      31.790   6.542  47.592  1.00  0.00     0.035 A 
HETATM    8  C21 UNL     1      32.448   5.455  47.090  1.00  0.00     0.050 A 
ENDROOT
BRANCH   7   9
HETATM    9  N1  UNL     1      30.489   7.004  47.629  1.00  0.00    -0.340 N 
HETATM   10  H5  UNL     1      30.755   7.976  48.010  1.00  0.00     0.167 HD
BRANCH   9  11
HETATM   11  C8  UNL     1      29.193   7.461  47.663  1.00  0.00     0.143 A 
HETATM   12  N2  UNL     1      28.801   8.729  47.327  1.00  0.00    -0.223 NA
HETATM   13  C9  UNL     1      27.513   9.096  47.437  1.00  0.00     0.237 A 
HETATM   14  N3  UNL     1      26.609   8.240  47.869  1.00  0.00    -0.223 NA
HETATM   15  C10 UNL     1      26.854   6.992  48.223  1.00  0.00     0.150 A 
HETATM   16  C11 UNL     1      28.170   6.612  48.113  1.00  0.00     0.058 A 
HETATM   17  N4  UNL     1      26.186   5.917  48.679  1.00  0.00    -0.299 N 
HETATM   18  C12 UNL     1      28.271   5.296  48.510  1.00  0.00     0.044 A 
HETATM   19  C13 UNL     1      27.018   4.856  48.868  1.00  0.00     0.020 A 
HETATM   20  C20 UNL     1      26.770   3.491  49.336  1.00  0.00     0.063 C 
HETATM   21  C19 UNL     1      25.681   3.376  50.356  1.00  0.00     0.057 C 
HETATM   22  C18 UNL     1      24.340   3.680  49.751  1.00  0.00     0.014 C 
HETATM   23  C17 UNL     1      23.935   4.795  49.126  1.00  0.00     0.049 C 
HETATM   24 CL1  UNL     1      23.110   2.421  49.860  1.00  0.00    -0.089 Cl
HETATM   25  C14 UNL     1      24.764   5.983  48.906  1.00  0.00     0.038 C 
HETATM   26  C15 UNL     1      24.159   7.160  48.914  1.00  0.00    -0.001 C 
HETATM   27  C16 UNL     1      22.745   7.477  49.123  1.00  0.00     0.038 C 
ENDBRANCH   9  11
ENDBRANCH   7   9
TORSDOF 2
ENDMDL
