MODEL 1
REMARK VINA RESULT:      -6.4      0.000      0.000
REMARK  9 active torsions:
REMARK  status: ('A' for Active; 'I' for Inactive)
REMARK    1  A    between atoms: C2_2  and  O1_3 
REMARK    2  A    between atoms: O1_3  and  C3_4 
REMARK    3  A    between atoms: C4_5  and  C5_6 
REMARK    4  A    between atoms: C5_6  and  C6_7 
REMARK    5  A    between atoms: C7_9  and  N1_10 
REMARK    6  A    between atoms: C7_9  and  N3_13 
REMARK    7  A    between atoms: N1_10  and  C8_11 
REMARK    8  A    between atoms: C8_11  and  N2_12 
REMARK    9  A    between atoms: N3_13  and  C9_14 
ROOT
HETATM    1  C6  UNL     1      23.693   1.310  52.907  1.00  0.00     0.062 C 
HETATM    2 CL1  UNL     1      24.831   2.529  53.439  1.00  0.00    -0.085 Cl
HETATM    3  C7  UNL     1      23.694   0.103  53.450  1.00  0.00     0.157 C 
ENDROOT
BRANCH   3   4
HETATM    4  N1  UNL     1      22.797  -0.896  53.050  1.00  0.00    -0.168 NA
BRANCH   4   5
HETATM    5  C8  UNL     1      21.947  -1.306  53.928  1.00  0.00     0.095 C 
BRANCH   5   6
HETATM    6  N2  UNL     1      21.199  -1.635  54.910  1.00  0.00    -0.241 NA
HETATM    7  H10 UNL     1      20.180  -1.402  54.787  1.00  0.00     0.199 HD
ENDBRANCH   5   6
ENDBRANCH   4   5
ENDBRANCH   3   4
BRANCH   3   8
HETATM    8  N3  UNL     1      24.623  -0.200  54.467  1.00  0.00    -0.339 N 
HETATM    9  H11 UNL     1      24.412  -0.283  55.499  1.00  0.00     0.167 HD
BRANCH   8  10
HETATM   10  C9  UNL     1      25.978  -0.420  54.097  1.00  0.00     0.033 A 
HETATM   11  C10 UNL     1      26.362  -1.216  53.038  1.00  0.00     0.032 A 
HETATM   12  C11 UNL     1      27.680  -1.422  52.687  1.00  0.00     0.044 A 
HETATM   13  C12 UNL     1      28.694  -0.814  53.416  1.00  0.00     0.116 A 
HETATM   14  F1  UNL     1      30.006  -0.978  53.119  1.00  0.00    -0.206 F 
HETATM   15  C13 UNL     1      28.363  -0.007  54.485  1.00  0.00     0.044 A 
HETATM   16  C14 UNL     1      27.029   0.159  54.785  1.00  0.00     0.032 A 
ENDBRANCH   8  10
ENDBRANCH   3   8
BRANCH   1  17
HETATM   17  C5  UNL     1      22.774   1.740  51.844  1.00  0.00     0.084 C 
BRANCH  17  18
HETATM   18  C4  UNL     1      23.437   2.022  50.547  1.00  0.00     0.003 C 
HETATM   19  C3  UNL     1      23.754   3.247  50.156  1.00  0.00     0.131 C 
BRANCH  19  20
HETATM   20  O1  UNL     1      24.298   4.091  49.220  1.00  0.00    -0.364 OA
BRANCH  20  21
HETATM   21  C2  UNL     1      25.571   4.698  49.357  1.00  0.00     0.170 C 
HETATM   22  C1  UNL     1      26.645   3.650  49.489  1.00  0.00     0.034 C 
ENDBRANCH  20  21
ENDBRANCH  19  20
ENDBRANCH  17  18
ENDBRANCH   1  17
TORSDOF 9
ENDMDL
MODEL 2
REMARK VINA RESULT:      -6.3      3.046      4.842
REMARK  9 active torsions:
REMARK  status: ('A' for Active; 'I' for Inactive)
REMARK    1  A    between atoms: C2_2  and  O1_3 
REMARK    2  A    between atoms: O1_3  and  C3_4 
REMARK    3  A    between atoms: C4_5  and  C5_6 
REMARK    4  A    between atoms: C5_6  and  C6_7 
REMARK    5  A    between atoms: C7_9  and  N1_10 
REMARK    6  A    between atoms: C7_9  and  N3_13 
REMARK    7  A    between atoms: N1_10  and  C8_11 
REMARK    8  A    between atoms: C8_11  and  N2_12 
REMARK    9  A    between atoms: N3_13  and  C9_14 
ROOT
HETATM    1  C6  UNL     1      22.541  -0.330  52.997  1.00  0.00     0.062 C 
HETATM    2 CL1  UNL     1      21.884  -1.589  54.023  1.00  0.00    -0.085 Cl
HETATM    3  C7  UNL     1      23.769   0.126  53.190  1.00  0.00     0.157 C 
ENDROOT
BRANCH   3   4
HETATM    4  N1  UNL     1      24.325   1.131  52.389  1.00  0.00    -0.168 NA
BRANCH   4   5
HETATM    5  C8  UNL     1      24.324   2.329  52.867  1.00  0.00     0.095 C 
BRANCH   5   6
HETATM    6  N2  UNL     1      24.488   3.505  53.337  1.00  0.00    -0.241 NA
HETATM    7  H10 UNL     1      25.172   4.102  52.805  1.00  0.00     0.199 HD
ENDBRANCH   5   6
ENDBRANCH   4   5
ENDBRANCH   3   4
BRANCH   3   8
HETATM    8  N3  UNL     1      24.552  -0.410  54.233  1.00  0.00    -0.339 N 
HETATM    9  H11 UNL     1      24.194  -0.766  55.161  1.00  0.00     0.167 HD
BRANCH   8  10
HETATM   10  C9  UNL     1      25.959  -0.491  54.045  1.00  0.00     0.033 A 
HETATM   11  C10 UNL     1      26.558  -1.288  53.091  1.00  0.00     0.032 A 
HETATM   12  C11 UNL     1      27.925  -1.359  52.916  1.00  0.00     0.044 A 
HETATM   13  C12 UNL     1      28.766  -0.605  53.724  1.00  0.00     0.116 A 
HETATM   14  F1  UNL     1      30.116  -0.633  53.599  1.00  0.00    -0.206 F 
HETATM   15  C13 UNL     1      28.218   0.209  54.693  1.00  0.00     0.044 A 
HETATM   16  C14 UNL     1      26.846   0.236  54.817  1.00  0.00     0.032 A 
ENDBRANCH   8  10
ENDBRANCH   3   8
BRANCH   1  17
HETATM   17  C5  UNL     1      21.634   0.150  51.946  1.00  0.00     0.084 C 
BRANCH  17  18
HETATM   18  C4  UNL     1      20.264   0.462  52.422  1.00  0.00     0.003 C 
HETATM   19  C3  UNL     1      19.199  -0.227  52.043  1.00  0.00     0.131 C 
BRANCH  19  20
HETATM   20  O1  UNL     1      17.844  -0.441  52.093  1.00  0.00    -0.364 OA
BRANCH  20  21
HETATM   21  C2  UNL     1      17.203  -1.175  53.121  1.00  0.00     0.170 C 
HETATM   22  C1  UNL     1      18.068  -2.324  53.570  1.00  0.00     0.034 C 
ENDBRANCH  20  21
ENDBRANCH  19  20
ENDBRANCH  17  18
ENDBRANCH   1  17
TORSDOF 9
ENDMDL
MODEL 3
REMARK VINA RESULT:      -6.3      2.951      4.840
REMARK  9 active torsions:
REMARK  status: ('A' for Active; 'I' for Inactive)
REMARK    1  A    between atoms: C2_2  and  O1_3 
REMARK    2  A    between atoms: O1_3  and  C3_4 
REMARK    3  A    between atoms: C4_5  and  C5_6 
REMARK    4  A    between atoms: C5_6  and  C6_7 
REMARK    5  A    between atoms: C7_9  and  N1_10 
REMARK    6  A    between atoms: C7_9  and  N3_13 
REMARK    7  A    between atoms: N1_10  and  C8_11 
REMARK    8  A    between atoms: C8_11  and  N2_12 
REMARK    9  A    between atoms: N3_13  and  C9_14 
ROOT
HETATM    1  C6  UNL     1      26.295   0.862  52.904  1.00  0.00     0.062 C 
HETATM    2 CL1  UNL     1      25.779   2.121  54.007  1.00  0.00    -0.085 Cl
HETATM    3  C7  UNL     1      25.943  -0.398  53.105  1.00  0.00     0.157 C 
ENDROOT
BRANCH   3   4
HETATM    4  N1  UNL     1      26.337  -1.428  52.243  1.00  0.00    -0.168 NA
BRANCH   4   5
HETATM    5  C8  UNL     1      27.275  -2.212  52.657  1.00  0.00     0.095 C 
BRANCH   5   6
HETATM    6  N2  UNL     1      28.170  -3.079  52.932  1.00  0.00    -0.241 NA
HETATM    7  H10 UNL     1      27.942  -4.061  52.629  1.00  0.00     0.199 HD
ENDBRANCH   5   6
ENDBRANCH   4   5
ENDBRANCH   3   4
BRANCH   3   8
HETATM    8  N3  UNL     1      25.145  -0.726  54.221  1.00  0.00    -0.339 N 
HETATM    9  H11 UNL     1      25.496  -0.968  55.187  1.00  0.00     0.167 HD
BRANCH   8  10
HETATM   10  C9  UNL     1      23.733  -0.740  54.058  1.00  0.00     0.033 A 
HETATM   11  C10 UNL     1      22.859  -1.228  55.006  1.00  0.00     0.032 A 
HETATM   12  C11 UNL     1      21.489  -1.236  54.839  1.00  0.00     0.044 A 
HETATM   13  C12 UNL     1      20.932  -0.737  53.668  1.00  0.00     0.116 A 
HETATM   14  F1  UNL     1      19.595  -0.718  53.447  1.00  0.00    -0.206 F 
HETATM   15  C13 UNL     1      21.763  -0.237  52.687  1.00  0.00     0.044 A 
HETATM   16  C14 UNL     1      23.122  -0.256  52.915  1.00  0.00     0.032 A 
ENDBRANCH   8  10
ENDBRANCH   3   8
BRANCH   1  17
HETATM   17  C5  UNL     1      27.121   1.323  51.780  1.00  0.00     0.084 C 
BRANCH  17  18
HETATM   18  C4  UNL     1      26.753   2.665  51.266  1.00  0.00     0.003 C 
HETATM   19  C3  UNL     1      25.755   2.859  50.418  1.00  0.00     0.131 C 
BRANCH  19  20
HETATM   20  O1  UNL     1      24.991   3.709  49.657  1.00  0.00    -0.364 OA
BRANCH  20  21
HETATM   21  C2  UNL     1      23.680   3.402  49.215  1.00  0.00     0.170 C 
HETATM   22  C1  UNL     1      23.054   2.357  50.100  1.00  0.00     0.034 C 
ENDBRANCH  20  21
ENDBRANCH  19  20
ENDBRANCH  17  18
ENDBRANCH   1  17
TORSDOF 9
ENDMDL
MODEL 4
REMARK VINA RESULT:      -6.3      3.015      4.698
REMARK  9 active torsions:
REMARK  status: ('A' for Active; 'I' for Inactive)
REMARK    1  A    between atoms: C2_2  and  O1_3 
REMARK    2  A    between atoms: O1_3  and  C3_4 
REMARK    3  A    between atoms: C4_5  and  C5_6 
REMARK    4  A    between atoms: C5_6  and  C6_7 
REMARK    5  A    between atoms: C7_9  and  N1_10 
REMARK    6  A    between atoms: C7_9  and  N3_13 
REMARK    7  A    between atoms: N1_10  and  C8_11 
REMARK    8  A    between atoms: C8_11  and  N2_12 
REMARK    9  A    between atoms: N3_13  and  C9_14 
ROOT
HETATM    1  C6  UNL     1      26.175   1.416  52.784  1.00  0.00     0.062 C 
HETATM    2 CL1  UNL     1      25.503   2.610  53.874  1.00  0.00    -0.085 Cl
HETATM    3  C7  UNL     1      25.961   0.125  52.982  1.00  0.00     0.157 C 
ENDROOT
BRANCH   3   4
HETATM    4  N1  UNL     1      26.482  -0.857  52.130  1.00  0.00    -0.168 NA
BRANCH   4   5
HETATM    5  C8  UNL     1      27.165  -1.804  52.677  1.00  0.00     0.095 C 
BRANCH   5   6
HETATM    6  N2  UNL     1      27.821  -2.825  53.076  1.00  0.00    -0.241 NA
HETATM    7  H10 UNL     1      28.289  -2.711  54.012  1.00  0.00     0.199 HD
ENDBRANCH   5   6
ENDBRANCH   4   5
ENDBRANCH   3   4
BRANCH   3   8
HETATM    8  N3  UNL     1      25.183  -0.289  54.083  1.00  0.00    -0.339 N 
HETATM    9  H11 UNL     1      25.543  -0.508  55.053  1.00  0.00     0.167 HD
BRANCH   8  10
HETATM   10  C9  UNL     1      23.781  -0.433  53.901  1.00  0.00     0.033 A 
HETATM   11  C10 UNL     1      23.099   0.049  52.804  1.00  0.00     0.032 A 
HETATM   12  C11 UNL     1      21.737  -0.097  52.637  1.00  0.00     0.044 A 
HETATM   13  C12 UNL     1      20.987  -0.756  53.603  1.00  0.00     0.116 A 
HETATM   14  F1  UNL     1      19.648  -0.930  53.494  1.00  0.00    -0.206 F 
HETATM   15  C13 UNL     1      21.622  -1.257  54.721  1.00  0.00     0.044 A 
HETATM   16  C14 UNL     1      22.984  -1.079  54.829  1.00  0.00     0.032 A 
ENDBRANCH   8  10
ENDBRANCH   3   8
BRANCH   1  17
HETATM   17  C5  UNL     1      26.966   1.964  51.674  1.00  0.00     0.084 C 
BRANCH  17  18
HETATM   18  C4  UNL     1      26.154   2.585  50.598  1.00  0.00     0.003 C 
HETATM   19  C3  UNL     1      26.589   3.598  49.866  1.00  0.00     0.131 C 
BRANCH  19  20
HETATM   20  O1  UNL     1      26.385   4.511  48.861  1.00  0.00    -0.364 OA
BRANCH  20  21
HETATM   21  C2  UNL     1      26.880   5.838  48.894  1.00  0.00     0.170 C 
HETATM   22  C1  UNL     1      28.259   5.903  48.294  1.00  0.00     0.034 C 
ENDBRANCH  20  21
ENDBRANCH  19  20
ENDBRANCH  17  18
ENDBRANCH   1  17
TORSDOF 9
ENDMDL
MODEL 5
REMARK VINA RESULT:      -6.3      3.341      5.953
REMARK  9 active torsions:
REMARK  status: ('A' for Active; 'I' for Inactive)
REMARK    1  A    between atoms: C2_2  and  O1_3 
REMARK    2  A    between atoms: O1_3  and  C3_4 
REMARK    3  A    between atoms: C4_5  and  C5_6 
REMARK    4  A    between atoms: C5_6  and  C6_7 
REMARK    5  A    between atoms: C7_9  and  N1_10 
REMARK    6  A    between atoms: C7_9  and  N3_13 
REMARK    7  A    between atoms: N1_10  and  C8_11 
REMARK    8  A    between atoms: C8_11  and  N2_12 
REMARK    9  A    between atoms: N3_13  and  C9_14 
ROOT
HETATM    1  C6  UNL     1      24.159   0.927  53.373  1.00  0.00     0.062 C 
HETATM    2 CL1  UNL     1      24.632   2.613  53.320  1.00  0.00    -0.085 Cl
HETATM    3  C7  UNL     1      23.001   0.535  52.867  1.00  0.00     0.157 C 
ENDROOT
BRANCH   3   4
HETATM    4  N1  UNL     1      22.592  -0.804  52.892  1.00  0.00    -0.168 NA
BRANCH   4   5
HETATM    5  C8  UNL     1      21.755  -1.144  53.813  1.00  0.00     0.095 C 
BRANCH   5   6
HETATM    6  N2  UNL     1      21.042  -1.433  54.832  1.00  0.00    -0.241 NA
HETATM    7  H10 UNL     1      20.329  -0.704  55.093  1.00  0.00     0.199 HD
ENDBRANCH   5   6
ENDBRANCH   4   5
ENDBRANCH   3   4
BRANCH   3   8
HETATM    8  N3  UNL     1      22.141   1.487  52.282  1.00  0.00    -0.339 N 
HETATM    9  H11 UNL     1      21.443   2.093  52.793  1.00  0.00     0.167 HD
BRANCH   8  10
HETATM   10  C9  UNL     1      22.197   1.669  50.873  1.00  0.00     0.033 A 
HETATM   11  C10 UNL     1      21.435   0.946  49.978  1.00  0.00     0.032 A 
HETATM   12  C11 UNL     1      21.497   1.131  48.612  1.00  0.00     0.044 A 
HETATM   13  C12 UNL     1      22.358   2.082  48.080  1.00  0.00     0.116 A 
HETATM   14  F1  UNL     1      22.462   2.308  46.748  1.00  0.00    -0.206 F 
HETATM   15  C13 UNL     1      23.142   2.832  48.933  1.00  0.00     0.044 A 
HETATM   16  C14 UNL     1      23.034   2.600  50.286  1.00  0.00     0.032 A 
ENDBRANCH   8  10
ENDBRANCH   3   8
BRANCH   1  17
HETATM   17  C5  UNL     1      25.135   0.029  54.006  1.00  0.00     0.084 C 
BRANCH  17  18
HETATM   18  C4  UNL     1      26.444   0.663  54.296  1.00  0.00     0.003 C 
HETATM   19  C3  UNL     1      27.550  -0.036  54.495  1.00  0.00     0.131 C 
BRANCH  19  20
HETATM   20  O1  UNL     1      28.895  -0.080  54.768  1.00  0.00    -0.364 OA
BRANCH  20  21
HETATM   21  C2  UNL     1      29.865  -0.561  53.856  1.00  0.00     0.170 C 
HETATM   22  C1  UNL     1      29.448  -1.895  53.294  1.00  0.00     0.034 C 
ENDBRANCH  20  21
ENDBRANCH  19  20
ENDBRANCH  17  18
ENDBRANCH   1  17
TORSDOF 9
ENDMDL
MODEL 6
REMARK VINA RESULT:      -6.2      4.307      6.829
REMARK  9 active torsions:
REMARK  status: ('A' for Active; 'I' for Inactive)
REMARK    1  A    between atoms: C2_2  and  O1_3 
REMARK    2  A    between atoms: O1_3  and  C3_4 
REMARK    3  A    between atoms: C4_5  and  C5_6 
REMARK    4  A    between atoms: C5_6  and  C6_7 
REMARK    5  A    between atoms: C7_9  and  N1_10 
REMARK    6  A    between atoms: C7_9  and  N3_13 
REMARK    7  A    between atoms: N1_10  and  C8_11 
REMARK    8  A    between atoms: C8_11  and  N2_12 
REMARK    9  A    between atoms: N3_13  and  C9_14 
ROOT
HETATM    1  C6  UNL     1      23.148   0.939  52.864  1.00  0.00     0.062 C 
HETATM    2 CL1  UNL     1      22.863   2.630  52.510  1.00  0.00    -0.085 Cl
HETATM    3  C7  UNL     1      22.184   0.182  53.364  1.00  0.00     0.157 C 
ENDROOT
BRANCH   3   4
HETATM    4  N1  UNL     1      22.377  -1.173  53.658  1.00  0.00    -0.168 NA
BRANCH   4   5
HETATM    5  C8  UNL     1      22.709  -1.468  54.869  1.00  0.00     0.095 C 
BRANCH   5   6
HETATM    6  N2  UNL     1      23.194  -1.760  56.014  1.00  0.00    -0.241 NA
HETATM    7  H10 UNL     1      23.736  -2.662  56.046  1.00  0.00     0.199 HD
ENDBRANCH   5   6
ENDBRANCH   4   5
ENDBRANCH   3   4
BRANCH   3   8
HETATM    8  N3  UNL     1      20.916   0.748  53.613  1.00  0.00    -0.339 N 
HETATM    9  H11 UNL     1      20.683   1.444  54.372  1.00  0.00     0.167 HD
BRANCH   8  10
HETATM   10  C9  UNL     1      19.832   0.363  52.778  1.00  0.00     0.033 A 
HETATM   11  C10 UNL     1      18.872  -0.556  53.147  1.00  0.00     0.032 A 
HETATM   12  C11 UNL     1      17.823  -0.923  52.329  1.00  0.00     0.044 A 
HETATM   13  C12 UNL     1      17.699  -0.358  51.066  1.00  0.00     0.116 A 
HETATM   14  F1  UNL     1      16.691  -0.677  50.218  1.00  0.00    -0.206 F 
HETATM   15  C13 UNL     1      18.634   0.568  50.648  1.00  0.00     0.044 A 
HETATM   16  C14 UNL     1      19.658   0.891  51.512  1.00  0.00     0.032 A 
ENDBRANCH   8  10
ENDBRANCH   3   8
BRANCH   1  17
HETATM   17  C5  UNL     1      24.505   0.462  52.564  1.00  0.00     0.084 C 
BRANCH  17  18
HETATM   18  C4  UNL     1      25.513   0.813  53.594  1.00  0.00     0.003 C 
HETATM   19  C3  UNL     1      26.356  -0.072  54.103  1.00  0.00     0.131 C 
BRANCH  19  20
HETATM   20  O1  UNL     1      27.386  -0.376  54.959  1.00  0.00    -0.364 OA
BRANCH  20  21
HETATM   21  C2  UNL     1      28.691   0.162  54.837  1.00  0.00     0.170 C 
HETATM   22  C1  UNL     1      29.474  -0.581  53.787  1.00  0.00     0.034 C 
ENDBRANCH  20  21
ENDBRANCH  19  20
ENDBRANCH  17  18
ENDBRANCH   1  17
TORSDOF 9
ENDMDL
MODEL 7
REMARK VINA RESULT:      -6.2      2.120      2.917
REMARK  9 active torsions:
REMARK  status: ('A' for Active; 'I' for Inactive)
REMARK    1  A    between atoms: C2_2  and  O1_3 
REMARK    2  A    between atoms: O1_3  and  C3_4 
REMARK    3  A    between atoms: C4_5  and  C5_6 
REMARK    4  A    between atoms: C5_6  and  C6_7 
REMARK    5  A    between atoms: C7_9  and  N1_10 
REMARK    6  A    between atoms: C7_9  and  N3_13 
REMARK    7  A    between atoms: N1_10  and  C8_11 
REMARK    8  A    between atoms: C8_11  and  N2_12 
REMARK    9  A    between atoms: N3_13  and  C9_14 
ROOT
HETATM    1  C6  UNL     1      23.696   1.243  52.847  1.00  0.00     0.062 C 
HETATM    2 CL1  UNL     1      24.800   2.511  53.340  1.00  0.00    -0.085 Cl
HETATM    3  C7  UNL     1      23.719   0.061  53.441  1.00  0.00     0.157 C 
ENDROOT
BRANCH   3   4
HETATM    4  N1  UNL     1      22.851  -0.975  53.073  1.00  0.00    -0.168 NA
BRANCH   4   5
HETATM    5  C8  UNL     1      21.974  -1.341  53.945  1.00  0.00     0.095 C 
BRANCH   5   6
HETATM    6  N2  UNL     1      21.195  -1.619  54.918  1.00  0.00    -0.241 NA
HETATM    7  H10 UNL     1      20.781  -0.782  55.405  1.00  0.00     0.199 HD
ENDBRANCH   5   6
ENDBRANCH   4   5
ENDBRANCH   3   4
BRANCH   3   8
HETATM    8  N3  UNL     1      24.643  -0.177  54.480  1.00  0.00    -0.339 N 
HETATM    9  H11 UNL     1      24.423  -0.212  55.513  1.00  0.00     0.167 HD
BRANCH   8  10
HETATM   10  C9  UNL     1      26.005  -0.393  54.133  1.00  0.00     0.033 A 
HETATM   11  C10 UNL     1      26.409  -1.194  53.086  1.00  0.00     0.032 A 
HETATM   12  C11 UNL     1      27.734  -1.396  52.758  1.00  0.00     0.044 A 
HETATM   13  C12 UNL     1      28.734  -0.778  53.499  1.00  0.00     0.116 A 
HETATM   14  F1  UNL     1      30.051  -0.938  53.224  1.00  0.00    -0.206 F 
HETATM   15  C13 UNL     1      28.382   0.034  54.557  1.00  0.00     0.044 A 
HETATM   16  C14 UNL     1      27.042   0.196  54.834  1.00  0.00     0.032 A 
ENDBRANCH   8  10
ENDBRANCH   3   8
BRANCH   1  17
HETATM   17  C5  UNL     1      22.781   1.606  51.757  1.00  0.00     0.084 C 
BRANCH  17  18
HETATM   18  C4  UNL     1      21.955   2.807  52.032  1.00  0.00     0.003 C 
HETATM   19  C3  UNL     1      20.640   2.756  52.173  1.00  0.00     0.131 C 
BRANCH  19  20
HETATM   20  O1  UNL     1      19.445   3.391  52.404  1.00  0.00    -0.364 OA
BRANCH  20  21
HETATM   21  C2  UNL     1      18.403   3.474  51.448  1.00  0.00     0.170 C 
HETATM   22  C1  UNL     1      18.953   3.850  50.097  1.00  0.00     0.034 C 
ENDBRANCH  20  21
ENDBRANCH  19  20
ENDBRANCH  17  18
ENDBRANCH   1  17
TORSDOF 9
ENDMDL
MODEL 8
REMARK VINA RESULT:      -6.2      3.463      5.264
REMARK  9 active torsions:
REMARK  status: ('A' for Active; 'I' for Inactive)
REMARK    1  A    between atoms: C2_2  and  O1_3 
REMARK    2  A    between atoms: O1_3  and  C3_4 
REMARK    3  A    between atoms: C4_5  and  C5_6 
REMARK    4  A    between atoms: C5_6  and  C6_7 
REMARK    5  A    between atoms: C7_9  and  N1_10 
REMARK    6  A    between atoms: C7_9  and  N3_13 
REMARK    7  A    between atoms: N1_10  and  C8_11 
REMARK    8  A    between atoms: C8_11  and  N2_12 
REMARK    9  A    between atoms: N3_13  and  C9_14 
ROOT
HETATM    1  C6  UNL     1      25.792   3.302  50.615  1.00  0.00     0.062 C 
HETATM    2 CL1  UNL     1      24.210   4.035  50.442  1.00  0.00    -0.085 Cl
HETATM    3  C7  UNL     1      26.162   2.758  51.763  1.00  0.00     0.157 C 
ENDROOT
BRANCH   3   4
HETATM    4  N1  UNL     1      27.418   2.164  51.936  1.00  0.00    -0.168 NA
BRANCH   4   5
HETATM    5  C8  UNL     1      27.958   2.264  53.104  1.00  0.00     0.095 C 
BRANCH   5   6
HETATM    6  N2  UNL     1      28.547   2.511  54.209  1.00  0.00    -0.241 NA
HETATM    7  H10 UNL     1      29.599   2.481  54.165  1.00  0.00     0.199 HD
ENDBRANCH   5   6
ENDBRANCH   4   5
ENDBRANCH   3   4
BRANCH   3   8
HETATM    8  N3  UNL     1      25.271   2.770  52.856  1.00  0.00    -0.339 N 
HETATM    9  H11 UNL     1      25.201   3.522  53.595  1.00  0.00     0.167 HD
BRANCH   8  10
HETATM   10  C9  UNL     1      24.370   1.680  53.002  1.00  0.00     0.033 A 
HETATM   11  C10 UNL     1      23.011   1.778  52.787  1.00  0.00     0.032 A 
HETATM   12  C11 UNL     1      22.145   0.713  52.931  1.00  0.00     0.044 A 
HETATM   13  C12 UNL     1      22.633  -0.530  53.311  1.00  0.00     0.116 A 
HETATM   14  F1  UNL     1      21.832  -1.612  53.468  1.00  0.00    -0.206 F 
HETATM   15  C13 UNL     1      23.986  -0.682  53.538  1.00  0.00     0.044 A 
HETATM   16  C14 UNL     1      24.798   0.420  53.377  1.00  0.00     0.032 A 
ENDBRANCH   8  10
ENDBRANCH   3   8
BRANCH   1  17
HETATM   17  C5  UNL     1      26.633   3.349  49.411  1.00  0.00     0.084 C 
BRANCH  17  18
HETATM   18  C4  UNL     1      26.936   4.721  48.936  1.00  0.00     0.003 C 
HETATM   19  C3  UNL     1      28.141   5.088  48.528  1.00  0.00     0.131 C 
BRANCH  19  20
HETATM   20  O1  UNL     1      28.986   6.052  48.037  1.00  0.00    -0.364 OA
BRANCH  20  21
HETATM   21  C2  UNL     1      30.363   5.835  47.787  1.00  0.00     0.170 C 
HETATM   22  C1  UNL     1      31.190   6.269  48.969  1.00  0.00     0.034 C 
ENDBRANCH  20  21
ENDBRANCH  19  20
ENDBRANCH  17  18
ENDBRANCH   1  17
TORSDOF 9
ENDMDL
MODEL 9
REMARK VINA RESULT:      -6.2      2.205      3.102
REMARK  9 active torsions:
REMARK  status: ('A' for Active; 'I' for Inactive)
REMARK    1  A    between atoms: C2_2  and  O1_3 
REMARK    2  A    between atoms: O1_3  and  C3_4 
REMARK    3  A    between atoms: C4_5  and  C5_6 
REMARK    4  A    between atoms: C5_6  and  C6_7 
REMARK    5  A    between atoms: C7_9  and  N1_10 
REMARK    6  A    between atoms: C7_9  and  N3_13 
REMARK    7  A    between atoms: N1_10  and  C8_11 
REMARK    8  A    between atoms: C8_11  and  N2_12 
REMARK    9  A    between atoms: N3_13  and  C9_14 
ROOT
HETATM    1  C6  UNL     1      22.361   0.124  53.366  1.00  0.00     0.062 C 
HETATM    2 CL1  UNL     1      21.580  -0.999  54.460  1.00  0.00    -0.085 Cl
HETATM    3  C7  UNL     1      23.679   0.247  53.354  1.00  0.00     0.157 C 
ENDROOT
BRANCH   3   4
HETATM    4  N1  UNL     1      24.336   1.133  52.492  1.00  0.00    -0.168 NA
BRANCH   4   5
HETATM    5  C8  UNL     1      24.468   2.352  52.894  1.00  0.00     0.095 C 
BRANCH   5   6
HETATM    6  N2  UNL     1      24.567   3.500  53.444  1.00  0.00    -0.241 NA
HETATM    7  H10 UNL     1      25.449   4.026  53.211  1.00  0.00     0.199 HD
ENDBRANCH   5   6
ENDBRANCH   4   5
ENDBRANCH   3   4
BRANCH   3   8
HETATM    8  N3  UNL     1      24.458  -0.535  54.231  1.00  0.00    -0.339 N 
HETATM    9  H11 UNL     1      24.092  -1.150  55.009  1.00  0.00     0.167 HD
BRANCH   8  10
HETATM   10  C9  UNL     1      25.871  -0.514  54.078  1.00  0.00     0.033 A 
HETATM   11  C10 UNL     1      26.719   0.198  54.900  1.00  0.00     0.032 A 
HETATM   12  C11 UNL     1      28.090   0.212  54.742  1.00  0.00     0.044 A 
HETATM   13  C12 UNL     1      28.676  -0.516  53.715  1.00  0.00     0.116 A 
HETATM   14  F1  UNL     1      30.015  -0.543  53.511  1.00  0.00    -0.206 F 
HETATM   15  C13 UNL     1      27.872  -1.247  52.864  1.00  0.00     0.044 A 
HETATM   16  C14 UNL     1      26.510  -1.219  53.074  1.00  0.00     0.032 A 
ENDBRANCH   8  10
ENDBRANCH   3   8
BRANCH   1  17
HETATM   17  C5  UNL     1      21.449   0.883  52.500  1.00  0.00     0.084 C 
BRANCH  17  18
HETATM   18  C4  UNL     1      21.236   0.276  51.164  1.00  0.00     0.003 C 
HETATM   19  C3  UNL     1      21.501   0.916  50.036  1.00  0.00     0.131 C 
BRANCH  19  20
HETATM   20  O1  UNL     1      21.532   0.941  48.663  1.00  0.00    -0.364 OA
BRANCH  20  21
HETATM   21  C2  UNL     1      22.291   1.872  47.912  1.00  0.00     0.170 C 
HETATM   22  C1  UNL     1      23.029   2.813  48.827  1.00  0.00     0.034 C 
ENDBRANCH  20  21
ENDBRANCH  19  20
ENDBRANCH  17  18
ENDBRANCH   1  17
TORSDOF 9
ENDMDL
