MODEL 1
REMARK VINA RESULT:      -7.8      0.000      0.000
REMARK  4 active torsions:
REMARK  status: ('A' for Active; 'I' for Inactive)
REMARK    1  A    between atoms: C3_3  and  C4_4 
REMARK    2  A    between atoms: C4_4  and  O1_5 
REMARK    3  A    between atoms: O1_5  and  C5_6 
REMARK    4  A    between atoms: C6_7  and  C7_8 
ROOT
HETATM    1  C7  UNL     1      24.065   3.292  51.835  1.00  0.00    -0.039 C 
HETATM    2  C8  UNL     1      23.409   4.217  52.482  1.00  0.00     0.094 C 
HETATM    3  N1  UNL     1      23.090   5.567  52.281  1.00  0.00    -0.375 N 
HETATM    4  C9  UNL     1      23.642   6.506  51.380  1.00  0.00     0.084 C 
HETATM    5  C10 UNL     1      24.086   7.670  50.955  1.00  0.00    -0.006 C 
HETATM    6  C11 UNL     1      24.617   7.829  49.541  1.00  0.00     0.055 C 
HETATM    7  C12 UNL     1      26.099   8.087  49.664  1.00  0.00    -0.027 C 
HETATM    8  C13 UNL     1      26.838   7.168  49.117  1.00  0.00    -0.029 C 
HETATM    9  C14 UNL     1      26.751   5.902  48.378  1.00  0.00     0.056 C 
HETATM   10  C15 UNL     1      27.353   4.747  49.087  1.00  0.00     0.273 C 
HETATM   11  N2  UNL     1      26.609   4.196  50.200  1.00  0.00     0.084 N 
HETATM   12  C16 UNL     1      25.444   3.445  49.698  1.00  0.00     0.274 C 
HETATM   13  C17 UNL     1      24.849   2.667  50.815  1.00  0.00     0.070 C 
HETATM   14  H9  UNL     1      22.507   6.358  52.549  1.00  0.00     0.164 HD
HETATM   15  H20 UNL     1      26.186   4.986  50.747  1.00  0.00     0.315 HD
ENDROOT
BRANCH   1  16
HETATM   16  C6  UNL     1      23.876   2.162  52.813  1.00  0.00     0.032 C 
HETATM   17  C5  UNL     1      24.380   0.919  52.984  1.00  0.00     0.135 C 
BRANCH  17  18
HETATM   18  O1  UNL     1      24.349  -0.248  53.787  1.00  0.00    -0.362 OA
BRANCH  18  19
HETATM   19  C4  UNL     1      25.591  -0.515  54.432  1.00  0.00     0.186 C 
BRANCH  19  20
HETATM   20  C3  UNL     1      26.781  -0.050  53.661  1.00  0.00     0.055 A 
HETATM   21  C2  UNL     1      27.861   0.540  54.448  1.00  0.00    -0.016 A 
HETATM   22  C1  UNL     1      29.003  -0.129  54.227  1.00  0.00    -0.004 A 
HETATM   23  C19 UNL     1      28.757  -1.224  53.266  1.00  0.00    -0.004 A 
HETATM   24  C18 UNL     1      27.470  -1.159  52.954  1.00  0.00    -0.016 A 
ENDBRANCH  19  20
ENDBRANCH  18  19
ENDBRANCH  17  18
ENDBRANCH   1  16
TORSDOF 4
ENDMDL
MODEL 2
REMARK VINA RESULT:      -7.8      1.329      1.583
REMARK  4 active torsions:
REMARK  status: ('A' for Active; 'I' for Inactive)
REMARK    1  A    between atoms: C3_3  and  C4_4 
REMARK    2  A    between atoms: C4_4  and  O1_5 
REMARK    3  A    between atoms: O1_5  and  C5_6 
REMARK    4  A    between atoms: C6_7  and  C7_8 
ROOT
HETATM    1  C7  UNL     1      24.353   3.500  52.018  1.00  0.00    -0.039 C 
HETATM    2  C8  UNL     1      23.337   4.028  52.647  1.00  0.00     0.094 C 
HETATM    3  N1  UNL     1      22.368   5.003  52.373  1.00  0.00    -0.375 N 
HETATM    4  C9  UNL     1      22.334   5.994  51.366  1.00  0.00     0.084 C 
HETATM    5  C10 UNL     1      22.109   7.172  50.823  1.00  0.00    -0.006 C 
HETATM    6  C11 UNL     1      22.441   7.431  49.364  1.00  0.00     0.055 C 
HETATM    7  C12 UNL     1      23.586   8.414  49.351  1.00  0.00    -0.027 C 
HETATM    8  C13 UNL     1      24.673   7.943  48.815  1.00  0.00    -0.029 C 
HETATM    9  C14 UNL     1      25.222   6.738  48.180  1.00  0.00     0.056 C 
HETATM   10  C15 UNL     1      26.351   6.126  48.921  1.00  0.00     0.273 C 
HETATM   11  N2  UNL     1      26.027   5.392  50.126  1.00  0.00     0.084 N 
HETATM   12  C16 UNL     1      25.394   4.109  49.774  1.00  0.00     0.274 C 
HETATM   13  C17 UNL     1      25.315   3.257  50.988  1.00  0.00     0.070 C 
HETATM   14  H9  UNL     1      21.471   5.413  52.628  1.00  0.00     0.164 HD
HETATM   15  H20 UNL     1      25.277   5.912  50.646  1.00  0.00     0.315 HD
ENDROOT
BRANCH   1  16
HETATM   16  C6  UNL     1      24.798   2.538  53.088  1.00  0.00     0.032 C 
HETATM   17  C5  UNL     1      25.942   2.282  53.763  1.00  0.00     0.135 C 
BRANCH  17  18
HETATM   18  O1  UNL     1      26.552   1.473  54.753  1.00  0.00    -0.362 OA
BRANCH  18  19
HETATM   19  C4  UNL     1      26.682   0.109  54.358  1.00  0.00     0.186 C 
BRANCH  19  20
HETATM   20  C3  UNL     1      27.760  -0.125  53.353  1.00  0.00     0.055 A 
HETATM   21  C2  UNL     1      29.113   0.224  53.776  1.00  0.00    -0.016 A 
HETATM   22  C1  UNL     1      29.913  -0.848  53.672  1.00  0.00    -0.004 A 
HETATM   23  C19 UNL     1      29.137  -1.998  53.167  1.00  0.00    -0.004 A 
HETATM   24  C18 UNL     1      27.898  -1.558  52.990  1.00  0.00    -0.016 A 
ENDBRANCH  19  20
ENDBRANCH  18  19
ENDBRANCH  17  18
ENDBRANCH   1  16
TORSDOF 4
ENDMDL
MODEL 3
REMARK VINA RESULT:      -7.7      4.921      6.738
REMARK  4 active torsions:
REMARK  status: ('A' for Active; 'I' for Inactive)
REMARK    1  A    between atoms: C3_3  and  C4_4 
REMARK    2  A    between atoms: C4_4  and  O1_5 
REMARK    3  A    between atoms: O1_5  and  C5_6 
REMARK    4  A    between atoms: C6_7  and  C7_8 
ROOT
HETATM    1  C7  UNL     1      21.996  -0.616  53.376  1.00  0.00    -0.039 C 
HETATM    2  C8  UNL     1      21.223  -1.253  54.215  1.00  0.00     0.094 C 
HETATM    3  N1  UNL     1      19.896  -1.702  54.234  1.00  0.00    -0.375 N 
HETATM    4  C9  UNL     1      18.805  -1.350  53.407  1.00  0.00     0.084 C 
HETATM    5  C10 UNL     1      17.561  -1.059  53.091  1.00  0.00    -0.006 C 
HETATM    6  C11 UNL     1      17.181  -0.731  51.657  1.00  0.00     0.055 C 
HETATM    7  C12 UNL     1      16.799   0.729  51.636  1.00  0.00    -0.027 C 
HETATM    8  C13 UNL     1      17.569   1.461  50.887  1.00  0.00    -0.029 C 
HETATM    9  C14 UNL     1      18.738   1.380  50.002  1.00  0.00     0.056 C 
HETATM   10  C15 UNL     1      19.908   2.159  50.474  1.00  0.00     0.273 C 
HETATM   11  N2  UNL     1      20.659   1.613  51.584  1.00  0.00     0.084 N 
HETATM   12  C16 UNL     1      21.452   0.456  51.129  1.00  0.00     0.274 C 
HETATM   13  C17 UNL     1      22.413   0.076  52.196  1.00  0.00     0.070 C 
HETATM   14  H9  UNL     1      19.203  -2.306  54.672  1.00  0.00     0.164 HD
HETATM   15  H20 UNL     1      19.986   1.203  52.278  1.00  0.00     0.315 HD
ENDROOT
BRANCH   1  16
HETATM   16  C6  UNL     1      23.249  -0.584  54.211  1.00  0.00     0.032 C 
HETATM   17  C5  UNL     1      24.575  -0.740  53.995  1.00  0.00     0.135 C 
BRANCH  17  18
HETATM   18  O1  UNL     1      25.857  -0.751  54.596  1.00  0.00    -0.362 OA
BRANCH  18  19
HETATM   19  C4  UNL     1      26.627   0.410  54.292  1.00  0.00     0.186 C 
BRANCH  19  20
HETATM   20  C3  UNL     1      27.712   0.167  53.296  1.00  0.00     0.055 A 
HETATM   21  C2  UNL     1      29.027   0.699  53.641  1.00  0.00    -0.016 A 
HETATM   22  C1  UNL     1      29.931  -0.292  53.645  1.00  0.00    -0.004 A 
HETATM   23  C19 UNL     1      29.271  -1.567  53.299  1.00  0.00    -0.004 A 
HETATM   24  C18 UNL     1      27.992  -1.278  53.102  1.00  0.00    -0.016 A 
ENDBRANCH  19  20
ENDBRANCH  18  19
ENDBRANCH  17  18
ENDBRANCH   1  16
TORSDOF 4
ENDMDL
MODEL 4
REMARK VINA RESULT:      -7.4      1.977      2.645
REMARK  4 active torsions:
REMARK  status: ('A' for Active; 'I' for Inactive)
REMARK    1  A    between atoms: C3_3  and  C4_4 
REMARK    2  A    between atoms: C4_4  and  O1_5 
REMARK    3  A    between atoms: O1_5  and  C5_6 
REMARK    4  A    between atoms: C6_7  and  C7_8 
ROOT
HETATM    1  C7  UNL     1      25.882   3.639  49.744  1.00  0.00    -0.039 C 
HETATM    2  C8  UNL     1      24.580   3.529  49.759  1.00  0.00     0.094 C 
HETATM    3  N1  UNL     1      23.502   4.127  49.093  1.00  0.00    -0.375 N 
HETATM    4  C9  UNL     1      23.451   5.317  48.332  1.00  0.00     0.084 C 
HETATM    5  C10 UNL     1      22.957   6.446  47.871  1.00  0.00    -0.006 C 
HETATM    6  C11 UNL     1      23.734   7.279  46.865  1.00  0.00     0.055 C 
HETATM    7  C12 UNL     1      24.136   8.548  47.576  1.00  0.00    -0.027 C 
HETATM    8  C13 UNL     1      25.423   8.703  47.683  1.00  0.00    -0.029 C 
HETATM    9  C14 UNL     1      26.698   8.059  47.341  1.00  0.00     0.056 C 
HETATM   10  C15 UNL     1      27.515   7.677  48.518  1.00  0.00     0.273 C 
HETATM   11  N2  UNL     1      27.085   6.518  49.271  1.00  0.00     0.084 N 
HETATM   12  C16 UNL     1      27.377   5.291  48.509  1.00  0.00     0.274 C 
HETATM   13  C17 UNL     1      27.185   4.113  49.392  1.00  0.00     0.070 C 
HETATM   14  H9  UNL     1      22.513   4.081  48.852  1.00  0.00     0.164 HD
HETATM   15  H20 UNL     1      26.037   6.532  49.341  1.00  0.00     0.315 HD
ENDROOT
BRANCH   1  16
HETATM   16  C6  UNL     1      26.203   2.599  50.785  1.00  0.00     0.032 C 
HETATM   17  C5  UNL     1      25.502   1.775  51.597  1.00  0.00     0.135 C 
BRANCH  17  18
HETATM   18  O1  UNL     1      25.591   0.774  52.595  1.00  0.00    -0.362 OA
BRANCH  18  19
HETATM   19  C4  UNL     1      26.474  -0.289  52.243  1.00  0.00     0.186 C 
BRANCH  19  20
HETATM   20  C3  UNL     1      27.251  -0.831  53.396  1.00  0.00     0.055 A 
HETATM   21  C2  UNL     1      28.639  -1.190  53.118  1.00  0.00    -0.016 A 
HETATM   22  C1  UNL     1      29.457  -0.515  53.939  1.00  0.00    -0.004 A 
HETATM   23  C19 UNL     1      28.660   0.351  54.831  1.00  0.00    -0.004 A 
HETATM   24  C18 UNL     1      27.391   0.153  54.500  1.00  0.00    -0.016 A 
ENDBRANCH  19  20
ENDBRANCH  18  19
ENDBRANCH  17  18
ENDBRANCH   1  16
TORSDOF 4
ENDMDL
MODEL 5
REMARK VINA RESULT:      -7.4      3.064      4.442
REMARK  4 active torsions:
REMARK  status: ('A' for Active; 'I' for Inactive)
REMARK    1  A    between atoms: C3_3  and  C4_4 
REMARK    2  A    between atoms: C4_4  and  O1_5 
REMARK    3  A    between atoms: O1_5  and  C5_6 
REMARK    4  A    between atoms: C6_7  and  C7_8 
ROOT
HETATM    1  C7  UNL     1      27.333   5.612  48.721  1.00  0.00    -0.039 C 
HETATM    2  C8  UNL     1      26.396   6.490  48.961  1.00  0.00     0.094 C 
HETATM    3  N1  UNL     1      26.250   7.879  48.842  1.00  0.00    -0.375 N 
HETATM    4  C9  UNL     1      27.228   8.884  48.667  1.00  0.00     0.084 C 
HETATM    5  C10 UNL     1      27.817  10.051  48.826  1.00  0.00    -0.006 C 
HETATM    6  C11 UNL     1      29.122  10.365  48.115  1.00  0.00     0.055 C 
HETATM    7  C12 UNL     1      30.183  10.461  49.184  1.00  0.00    -0.027 C 
HETATM    8  C13 UNL     1      31.120   9.566  49.073  1.00  0.00    -0.029 C 
HETATM    9  C14 UNL     1      31.548   8.437  48.239  1.00  0.00     0.056 C 
HETATM   10  C15 UNL     1      31.587   7.139  48.955  1.00  0.00     0.273 C 
HETATM   11  N2  UNL     1      30.318   6.503  49.235  1.00  0.00     0.084 N 
HETATM   12  C16 UNL     1      29.752   5.947  47.993  1.00  0.00     0.274 C 
HETATM   13  C17 UNL     1      28.600   5.073  48.332  1.00  0.00     0.070 C 
HETATM   14  H9  UNL     1      25.613   8.673  48.816  1.00  0.00     0.164 HD
HETATM   15  H20 UNL     1      29.627   7.240  49.522  1.00  0.00     0.315 HD
ENDROOT
BRANCH   1  16
HETATM   16  C6  UNL     1      26.590   4.374  49.149  1.00  0.00     0.032 C 
HETATM   17  C5  UNL     1      25.730   4.040  50.138  1.00  0.00     0.135 C 
BRANCH  17  18
HETATM   18  O1  UNL     1      24.952   2.997  50.699  1.00  0.00    -0.362 OA
BRANCH  18  19
HETATM   19  C4  UNL     1      25.478   2.507  51.930  1.00  0.00     0.186 C 
BRANCH  19  20
HETATM   20  C3  UNL     1      26.747   1.737  51.777  1.00  0.00     0.055 A 
HETATM   21  C2  UNL     1      27.764   1.974  52.797  1.00  0.00    -0.016 A 
HETATM   22  C1  UNL     1      28.093   0.816  53.390  1.00  0.00    -0.004 A 
HETATM   23  C19 UNL     1      27.305  -0.284  52.798  1.00  0.00    -0.004 A 
HETATM   24  C18 UNL     1      26.536   0.270  51.871  1.00  0.00    -0.016 A 
ENDBRANCH  19  20
ENDBRANCH  18  19
ENDBRANCH  17  18
ENDBRANCH   1  16
TORSDOF 4
ENDMDL
MODEL 6
REMARK VINA RESULT:      -7.3      3.542      5.433
REMARK  4 active torsions:
REMARK  status: ('A' for Active; 'I' for Inactive)
REMARK    1  A    between atoms: C3_3  and  C4_4 
REMARK    2  A    between atoms: C4_4  and  O1_5 
REMARK    3  A    between atoms: O1_5  and  C5_6 
REMARK    4  A    between atoms: C6_7  and  C7_8 
ROOT
HETATM    1  C7  UNL     1      22.972   0.918  52.385  1.00  0.00    -0.039 C 
HETATM    2  C8  UNL     1      22.241  -0.045  52.880  1.00  0.00     0.094 C 
HETATM    3  N1  UNL     1      20.928  -0.508  52.720  1.00  0.00    -0.375 N 
HETATM    4  C9  UNL     1      19.807   0.122  52.134  1.00  0.00     0.084 C 
HETATM    5  C10 UNL     1      18.546   0.473  51.987  1.00  0.00    -0.006 C 
HETATM    6  C11 UNL     1      18.119   1.366  50.835  1.00  0.00     0.055 C 
HETATM    7  C12 UNL     1      17.694   2.680  51.444  1.00  0.00    -0.027 C 
HETATM    8  C13 UNL     1      18.424   3.690  51.071  1.00  0.00    -0.029 C 
HETATM    9  C14 UNL     1      19.571   4.038  50.224  1.00  0.00     0.056 C 
HETATM   10  C15 UNL     1      20.729   4.585  50.971  1.00  0.00     0.273 C 
HETATM   11  N2  UNL     1      21.525   3.646  51.732  1.00  0.00     0.084 N 
HETATM   12  C16 UNL     1      22.339   2.825  50.818  1.00  0.00     0.274 C 
HETATM   13  C17 UNL     1      23.339   2.063  51.609  1.00  0.00     0.070 C 
HETATM   14  H9  UNL     1      20.265  -1.268  52.865  1.00  0.00     0.164 HD
HETATM   15  H20 UNL     1      20.882   2.955  52.192  1.00  0.00     0.315 HD
ENDROOT
BRANCH   1  16
HETATM   16  C6  UNL     1      24.245   0.637  53.139  1.00  0.00     0.032 C 
HETATM   17  C5  UNL     1      24.721  -0.357  53.924  1.00  0.00     0.135 C 
BRANCH  17  18
HETATM   18  O1  UNL     1      25.823  -0.805  54.692  1.00  0.00    -0.362 OA
BRANCH  18  19
HETATM   19  C4  UNL     1      26.893   0.137  54.737  1.00  0.00     0.186 C 
BRANCH  19  20
HETATM   20  C3  UNL     1      27.838   0.028  53.587  1.00  0.00     0.055 A 
HETATM   21  C2  UNL     1      29.173   0.578  53.803  1.00  0.00    -0.016 A 
HETATM   22  C1  UNL     1      30.096  -0.373  53.593  1.00  0.00    -0.004 A 
HETATM   23  C19 UNL     1      29.429  -1.637  53.218  1.00  0.00    -0.004 A 
HETATM   24  C18 UNL     1      28.128  -1.382  53.221  1.00  0.00    -0.016 A 
ENDBRANCH  19  20
ENDBRANCH  18  19
ENDBRANCH  17  18
ENDBRANCH   1  16
TORSDOF 4
ENDMDL
MODEL 7
REMARK VINA RESULT:      -7.2      2.156      2.686
REMARK  4 active torsions:
REMARK  status: ('A' for Active; 'I' for Inactive)
REMARK    1  A    between atoms: C3_3  and  C4_4 
REMARK    2  A    between atoms: C4_4  and  O1_5 
REMARK    3  A    between atoms: O1_5  and  C5_6 
REMARK    4  A    between atoms: C6_7  and  C7_8 
ROOT
HETATM    1  C7  UNL     1      23.248   2.322  52.160  1.00  0.00    -0.039 C 
HETATM    2  C8  UNL     1      23.838   3.321  52.761  1.00  0.00     0.094 C 
HETATM    3  N1  UNL     1      23.895   4.712  52.601  1.00  0.00    -0.375 N 
HETATM    4  C9  UNL     1      23.526   5.516  51.498  1.00  0.00     0.084 C 
HETATM    5  C10 UNL     1      23.605   6.502  50.630  1.00  0.00    -0.006 C 
HETATM    6  C11 UNL     1      22.566   6.656  49.533  1.00  0.00     0.055 C 
HETATM    7  C12 UNL     1      23.270   6.371  48.229  1.00  0.00    -0.027 C 
HETATM    8  C13 UNL     1      22.802   5.336  47.597  1.00  0.00    -0.029 C 
HETATM    9  C14 UNL     1      21.778   4.287  47.693  1.00  0.00     0.056 C 
HETATM   10  C15 UNL     1      22.328   2.912  47.768  1.00  0.00     0.273 C 
HETATM   11  N2  UNL     1      22.919   2.507  49.026  1.00  0.00     0.084 N 
HETATM   12  C16 UNL     1      21.859   2.276  50.024  1.00  0.00     0.274 C 
HETATM   13  C17 UNL     1      22.448   1.608  51.213  1.00  0.00     0.070 C 
HETATM   14  H9  UNL     1      24.134   5.612  53.014  1.00  0.00     0.164 HD
HETATM   15  H20 UNL     1      23.466   3.314  49.417  1.00  0.00     0.315 HD
ENDROOT
BRANCH   1  16
HETATM   16  C6  UNL     1      23.765   1.206  53.029  1.00  0.00     0.032 C 
HETATM   17  C5  UNL     1      24.977   0.740  53.408  1.00  0.00     0.135 C 
BRANCH  17  18
HETATM   18  O1  UNL     1      25.660  -0.237  54.174  1.00  0.00    -0.362 OA
BRANCH  18  19
HETATM   19  C4  UNL     1      26.975   0.165  54.550  1.00  0.00     0.186 C 
BRANCH  19  20
HETATM   20  C3  UNL     1      28.005  -0.098  53.503  1.00  0.00     0.055 A 
HETATM   21  C2  UNL     1      29.395   0.069  53.920  1.00  0.00    -0.016 A 
HETATM   22  C1  UNL     1      30.072  -1.071  53.710  1.00  0.00    -0.004 A 
HETATM   23  C19 UNL     1      29.168  -2.086  53.133  1.00  0.00    -0.004 A 
HETATM   24  C18 UNL     1      27.982  -1.503  53.023  1.00  0.00    -0.016 A 
ENDBRANCH  19  20
ENDBRANCH  18  19
ENDBRANCH  17  18
ENDBRANCH   1  16
TORSDOF 4
ENDMDL
MODEL 8
REMARK VINA RESULT:      -7.2      2.845      7.666
REMARK  4 active torsions:
REMARK  status: ('A' for Active; 'I' for Inactive)
REMARK    1  A    between atoms: C3_3  and  C4_4 
REMARK    2  A    between atoms: C4_4  and  O1_5 
REMARK    3  A    between atoms: O1_5  and  C5_6 
REMARK    4  A    between atoms: C6_7  and  C7_8 
ROOT
HETATM    1  C7  UNL     1      25.256   1.849  51.258  1.00  0.00    -0.039 C 
HETATM    2  C8  UNL     1      25.934   1.064  52.052  1.00  0.00     0.094 C 
HETATM    3  N1  UNL     1      25.650  -0.020  52.894  1.00  0.00    -0.375 N 
HETATM    4  C9  UNL     1      24.413  -0.477  53.401  1.00  0.00     0.084 C 
HETATM    5  C10 UNL     1      23.565  -0.973  54.277  1.00  0.00    -0.006 C 
HETATM    6  C11 UNL     1      22.104  -1.178  53.914  1.00  0.00     0.055 C 
HETATM    7  C12 UNL     1      21.312  -0.193  54.739  1.00  0.00    -0.027 C 
HETATM    8  C13 UNL     1      20.667   0.685  54.029  1.00  0.00    -0.029 C 
HETATM    9  C14 UNL     1      20.411   1.087  52.641  1.00  0.00     0.056 C 
HETATM   10  C15 UNL     1      20.895   2.448  52.308  1.00  0.00     0.273 C 
HETATM   11  N2  UNL     1      22.323   2.616  52.135  1.00  0.00     0.084 N 
HETATM   12  C16 UNL     1      22.745   2.013  50.858  1.00  0.00     0.274 C 
HETATM   13  C17 UNL     1      24.143   2.422  50.566  1.00  0.00     0.070 C 
HETATM   14  H9  UNL     1      26.015  -0.809  53.425  1.00  0.00     0.164 HD
HETATM   15  H20 UNL     1      22.819   2.044  52.863  1.00  0.00     0.315 HD
ENDROOT
BRANCH   1  16
HETATM   16  C6  UNL     1      26.394   2.710  50.776  1.00  0.00     0.032 C 
HETATM   17  C5  UNL     1      26.612   3.561  49.748  1.00  0.00     0.135 C 
BRANCH  17  18
HETATM   18  O1  UNL     1      27.550   4.429  49.136  1.00  0.00    -0.362 OA
BRANCH  18  19
HETATM   19  C4  UNL     1      26.969   5.649  48.681  1.00  0.00     0.186 C 
BRANCH  19  20
HETATM   20  C3  UNL     1      25.654   5.961  49.315  1.00  0.00     0.055 A 
HETATM   21  C2  UNL     1      25.633   7.120  50.203  1.00  0.00    -0.016 A 
HETATM   22  C1  UNL     1      24.711   7.999  49.781  1.00  0.00    -0.004 A 
HETATM   23  C19 UNL     1      24.049   7.479  48.568  1.00  0.00    -0.004 A 
HETATM   24  C18 UNL     1      24.609   6.303  48.318  1.00  0.00    -0.016 A 
ENDBRANCH  19  20
ENDBRANCH  18  19
ENDBRANCH  17  18
ENDBRANCH   1  16
TORSDOF 4
ENDMDL
MODEL 9
REMARK VINA RESULT:      -7.2      3.214      7.784
REMARK  4 active torsions:
REMARK  status: ('A' for Active; 'I' for Inactive)
REMARK    1  A    between atoms: C3_3  and  C4_4 
REMARK    2  A    between atoms: C4_4  and  O1_5 
REMARK    3  A    between atoms: O1_5  and  C5_6 
REMARK    4  A    between atoms: C6_7  and  C7_8 
ROOT
HETATM    1  C7  UNL     1      24.865   2.286  51.140  1.00  0.00    -0.039 C 
HETATM    2  C8  UNL     1      25.663   1.585  51.900  1.00  0.00     0.094 C 
HETATM    3  N1  UNL     1      25.547   0.465  52.734  1.00  0.00    -0.375 N 
HETATM    4  C9  UNL     1      24.395  -0.150  53.275  1.00  0.00     0.084 C 
HETATM    5  C10 UNL     1      23.647  -0.758  54.171  1.00  0.00    -0.006 C 
HETATM    6  C11 UNL     1      22.212  -1.142  53.854  1.00  0.00     0.055 C 
HETATM    7  C12 UNL     1      21.332  -0.274  54.720  1.00  0.00    -0.027 C 
HETATM    8  C13 UNL     1      20.558   0.524  54.045  1.00  0.00    -0.029 C 
HETATM    9  C14 UNL     1      20.204   0.906  52.672  1.00  0.00     0.056 C 
HETATM   10  C15 UNL     1      20.502   2.321  52.344  1.00  0.00     0.273 C 
HETATM   11  N2  UNL     1      21.891   2.668  52.126  1.00  0.00     0.084 N 
HETATM   12  C16 UNL     1      22.340   2.137  50.827  1.00  0.00     0.274 C 
HETATM   13  C17 UNL     1      23.665   2.722  50.495  1.00  0.00     0.070 C 
HETATM   14  H9  UNL     1      26.026  -0.278  53.240  1.00  0.00     0.164 HD
HETATM   15  H20 UNL     1      22.480   2.156  52.829  1.00  0.00     0.315 HD
ENDROOT
BRANCH   1  16
HETATM   16  C6  UNL     1      25.868   3.289  50.633  1.00  0.00     0.032 C 
HETATM   17  C5  UNL     1      26.541   3.506  49.480  1.00  0.00     0.135 C 
BRANCH  17  18
HETATM   18  O1  UNL     1      27.478   4.338  48.820  1.00  0.00    -0.362 OA
BRANCH  18  19
HETATM   19  C4  UNL     1      26.977   5.648  48.561  1.00  0.00     0.186 C 
BRANCH  19  20
HETATM   20  C3  UNL     1      28.038   6.696  48.504  1.00  0.00     0.055 A 
HETATM   21  C2  UNL     1      29.413   6.209  48.430  1.00  0.00    -0.016 A 
HETATM   22  C1  UNL     1      30.013   6.705  47.337  1.00  0.00    -0.004 A 
HETATM   23  C19 UNL     1      29.066   7.566  46.600  1.00  0.00    -0.004 A 
HETATM   24  C18 UNL     1      27.934   7.546  47.291  1.00  0.00    -0.016 A 
ENDBRANCH  19  20
ENDBRANCH  18  19
ENDBRANCH  17  18
ENDBRANCH   1  16
TORSDOF 4
ENDMDL
