MODEL 1
REMARK VINA RESULT:      -7.4      0.000      0.000
REMARK  7 active torsions:
REMARK  status: ('A' for Active; 'I' for Inactive)
REMARK    1  A    between atoms: C2_2  and  C3_3 
REMARK    2  A    between atoms: C2_2  and  C9_10 
REMARK    3  A    between atoms: C4_4  and  C5_5 
REMARK    4  A    between atoms: C5_5  and  C6_6 
REMARK    5  A    between atoms: C6_6  and  C7_7 
REMARK    6  A    between atoms: C7_7  and  C8_8 
REMARK    7  A    between atoms: N2_22  and  N3_23 
ROOT
HETATM    1  C9  UNL     1      24.765   1.845  52.597  1.00  0.00     0.037 C 
HETATM    2  C10 UNL     1      24.125   3.165  52.822  1.00  0.00     0.091 C 
HETATM    3  N1  UNL     1      23.839   4.077  51.978  1.00  0.00    -0.279 NA
HETATM    4  C11 UNL     1      24.158   3.852  50.601  1.00  0.00     0.226 C 
HETATM    5  C12 UNL     1      25.431   3.090  50.560  1.00  0.00    -0.039 C 
HETATM    6  C13 UNL     1      26.595   3.472  50.032  1.00  0.00     0.015 C 
HETATM    7  C14 UNL     1      26.618   4.797  49.423  1.00  0.00    -0.034 A 
HETATM    8  C15 UNL     1      27.346   5.412  48.507  1.00  0.00     0.010 A 
HETATM    9  C16 UNL     1      26.799   6.783  48.378  1.00  0.00     0.017 A 
HETATM   10  C17 UNL     1      25.763   6.925  49.225  1.00  0.00     0.012 A 
HETATM   11 BR1  UNL     1      24.842   8.602  49.284  1.00  0.00    -0.054 Br
HETATM   12  C18 UNL     1      25.537   5.684  49.989  1.00  0.00     0.150 A 
HETATM   13  N2  UNL     1      24.248   5.097  49.862  1.00  0.00    -0.212 NA
HETATM   14  C19 UNL     1      25.339   1.729  51.203  1.00  0.00     0.048 C 
ENDROOT
BRANCH   1  15
HETATM   15  C2  UNL     1      23.830   0.689  52.826  1.00  0.00     0.013 C 
HETATM   16  C1  UNL     1      22.389   1.110  52.973  1.00  0.00     0.015 C 
BRANCH  15  17
HETATM   17  C3  UNL     1      24.221  -0.145  53.966  1.00  0.00    -0.022 C 
HETATM   18  C4  UNL     1      25.270  -0.817  54.362  1.00  0.00    -0.007 C 
BRANCH  18  19
HETATM   19  C5  UNL     1      26.453  -0.800  53.488  1.00  0.00    -0.021 C 
BRANCH  19  20
HETATM   20  C6  UNL     1      27.694  -0.704  53.116  1.00  0.00     0.023 C 
BRANCH  20  21
HETATM   21  C7  UNL     1      28.888   0.044  53.432  1.00  0.00     0.037 C 
BRANCH  21  22
HETATM   22  C8  UNL     1      28.484   1.318  53.520  1.00  0.00     0.419 C 
HETATM   23  F1  UNL     1      27.883   2.523  53.347  1.00  0.00    -0.455 F 
ENDBRANCH  21  22
ENDBRANCH  20  21
ENDBRANCH  19  20
ENDBRANCH  18  19
ENDBRANCH  15  17
ENDBRANCH   1  15
BRANCH  13  24
HETATM   24  N3  UNL     1      23.806   4.920  48.576  1.00  0.00    -0.265 NA
HETATM   25  H18 UNL     1      22.762   4.997  48.556  1.00  0.00     0.137 HD
HETATM   26  H19 UNL     1      24.125   5.751  48.000  1.00  0.00     0.137 HD
ENDBRANCH  13  24
TORSDOF 7
ENDMDL
MODEL 2
REMARK VINA RESULT:      -7.1      3.060      4.737
REMARK  7 active torsions:
REMARK  status: ('A' for Active; 'I' for Inactive)
REMARK    1  A    between atoms: C2_2  and  C3_3 
REMARK    2  A    between atoms: C2_2  and  C9_10 
REMARK    3  A    between atoms: C4_4  and  C5_5 
REMARK    4  A    between atoms: C5_5  and  C6_6 
REMARK    5  A    between atoms: C6_6  and  C7_7 
REMARK    6  A    between atoms: C7_7  and  C8_8 
REMARK    7  A    between atoms: N2_22  and  N3_23 
ROOT
HETATM    1  C9  UNL     1      24.278   1.942  52.737  1.00  0.00     0.037 C 
HETATM    2  C10 UNL     1      23.821   3.348  52.877  1.00  0.00     0.091 C 
HETATM    3  N1  UNL     1      23.701   4.249  51.983  1.00  0.00    -0.279 NA
HETATM    4  C11 UNL     1      24.039   3.916  50.632  1.00  0.00     0.226 C 
HETATM    5  C12 UNL     1      25.193   2.983  50.682  1.00  0.00    -0.039 C 
HETATM    6  C13 UNL     1      26.419   3.173  50.192  1.00  0.00     0.015 C 
HETATM    7  C14 UNL     1      26.652   4.451  49.529  1.00  0.00    -0.034 A 
HETATM    8  C15 UNL     1      27.496   4.914  48.623  1.00  0.00     0.010 A 
HETATM    9  C16 UNL     1      27.153   6.339  48.411  1.00  0.00     0.017 A 
HETATM   10  C17 UNL     1      26.115   6.665  49.203  1.00  0.00     0.012 A 
HETATM   11 BR1  UNL     1      25.438   8.455  49.149  1.00  0.00    -0.054 Br
HETATM   12  C18 UNL     1      25.686   5.507  50.007  1.00  0.00     0.150 A 
HETATM   13  N2  UNL     1      24.333   5.099  49.846  1.00  0.00    -0.212 NA
HETATM   14  C19 UNL     1      24.885   1.680  51.378  1.00  0.00     0.048 C 
ENDROOT
BRANCH   1  15
HETATM   15  C2  UNL     1      23.180   0.940  52.971  1.00  0.00     0.013 C 
HETATM   16  C1  UNL     1      23.670  -0.345  53.591  1.00  0.00     0.015 C 
BRANCH  15  17
HETATM   17  C3  UNL     1      22.411   0.643  51.759  1.00  0.00    -0.022 C 
HETATM   18  C4  UNL     1      21.214   0.218  51.450  1.00  0.00    -0.007 C 
BRANCH  18  19
HETATM   19  C5  UNL     1      20.293  -0.077  52.559  1.00  0.00    -0.021 C 
BRANCH  19  20
HETATM   20  C6  UNL     1      19.234  -0.487  53.189  1.00  0.00     0.023 C 
BRANCH  20  21
HETATM   21  C7  UNL     1      17.942  -1.069  52.916  1.00  0.00     0.037 C 
BRANCH  21  22
HETATM   22  C8  UNL     1      17.954  -2.248  53.549  1.00  0.00     0.419 C 
HETATM   23  F1  UNL     1      17.633  -3.398  54.196  1.00  0.00    -0.455 F 
ENDBRANCH  21  22
ENDBRANCH  20  21
ENDBRANCH  19  20
ENDBRANCH  18  19
ENDBRANCH  15  17
ENDBRANCH   1  15
BRANCH  13  24
HETATM   24  N3  UNL     1      23.921   4.923  48.550  1.00  0.00    -0.265 NA
HETATM   25  H18 UNL     1      24.756   4.928  47.919  1.00  0.00     0.137 HD
HETATM   26  H19 UNL     1      23.546   3.936  48.454  1.00  0.00     0.137 HD
ENDBRANCH  13  24
TORSDOF 7
ENDMDL
MODEL 3
REMARK VINA RESULT:      -7.1      3.474      6.316
REMARK  7 active torsions:
REMARK  status: ('A' for Active; 'I' for Inactive)
REMARK    1  A    between atoms: C2_2  and  C3_3 
REMARK    2  A    between atoms: C2_2  and  C9_10 
REMARK    3  A    between atoms: C4_4  and  C5_5 
REMARK    4  A    between atoms: C5_5  and  C6_6 
REMARK    5  A    between atoms: C6_6  and  C7_7 
REMARK    6  A    between atoms: C7_7  and  C8_8 
REMARK    7  A    between atoms: N2_22  and  N3_23 
ROOT
HETATM    1  C9  UNL     1      23.738   2.770  52.044  1.00  0.00     0.037 C 
HETATM    2  C10 UNL     1      23.898   1.358  51.615  1.00  0.00     0.091 C 
HETATM    3  N1  UNL     1      24.502   0.400  52.202  1.00  0.00    -0.279 NA
HETATM    4  C11 UNL     1      25.136   0.665  53.459  1.00  0.00     0.226 C 
HETATM    5  C12 UNL     1      25.684   2.043  53.396  1.00  0.00    -0.039 C 
HETATM    6  C13 UNL     1      26.962   2.418  53.479  1.00  0.00     0.015 C 
HETATM    7  C14 UNL     1      27.934   1.345  53.652  1.00  0.00    -0.034 A 
HETATM    8  C15 UNL     1      29.160   1.238  54.135  1.00  0.00     0.010 A 
HETATM    9  C16 UNL     1      29.550  -0.184  53.996  1.00  0.00     0.017 A 
HETATM   10  C17 UNL     1      28.536  -0.866  53.434  1.00  0.00     0.012 A 
HETATM   11 BR1  UNL     1      28.745  -2.744  53.125  1.00  0.00    -0.054 Br
HETATM   12  C18 UNL     1      27.400   0.028  53.145  1.00  0.00     0.150 A 
HETATM   13  N2  UNL     1      26.163  -0.314  53.758  1.00  0.00    -0.212 NA
HETATM   14  C19 UNL     1      24.628   3.105  53.219  1.00  0.00     0.048 C 
ENDROOT
BRANCH   1  15
HETATM   15  C2  UNL     1      22.320   3.119  52.404  1.00  0.00     0.013 C 
HETATM   16  C1  UNL     1      21.310   2.139  51.863  1.00  0.00     0.015 C 
BRANCH  15  17
HETATM   17  C3  UNL     1      21.949   4.481  52.006  1.00  0.00    -0.022 C 
HETATM   18  C4  UNL     1      22.208   5.311  51.030  1.00  0.00    -0.007 C 
BRANCH  18  19
HETATM   19  C5  UNL     1      23.122   4.849  49.973  1.00  0.00    -0.021 C 
BRANCH  19  20
HETATM   20  C6  UNL     1      24.223   4.649  49.315  1.00  0.00     0.023 C 
BRANCH  20  21
HETATM   21  C7  UNL     1      25.638   4.914  49.421  1.00  0.00     0.037 C 
BRANCH  21  22
HETATM   22  C8  UNL     1      26.205   3.710  49.566  1.00  0.00     0.419 C 
HETATM   23  F1  UNL     1      26.681   2.527  50.031  1.00  0.00    -0.455 F 
ENDBRANCH  21  22
ENDBRANCH  20  21
ENDBRANCH  19  20
ENDBRANCH  18  19
ENDBRANCH  15  17
ENDBRANCH   1  15
BRANCH  13  24
HETATM   24  N3  UNL     1      26.219  -0.547  55.108  1.00  0.00    -0.265 NA
HETATM   25  H18 UNL     1      27.003  -1.210  55.311  1.00  0.00     0.137 HD
HETATM   26  H19 UNL     1      26.525   0.349  55.585  1.00  0.00     0.137 HD
ENDBRANCH  13  24
TORSDOF 7
ENDMDL
MODEL 4
REMARK VINA RESULT:      -7.0      4.652      6.826
REMARK  7 active torsions:
REMARK  status: ('A' for Active; 'I' for Inactive)
REMARK    1  A    between atoms: C2_2  and  C3_3 
REMARK    2  A    between atoms: C2_2  and  C9_10 
REMARK    3  A    between atoms: C4_4  and  C5_5 
REMARK    4  A    between atoms: C5_5  and  C6_6 
REMARK    5  A    between atoms: C6_6  and  C7_7 
REMARK    6  A    between atoms: C7_7  and  C8_8 
REMARK    7  A    between atoms: N2_22  and  N3_23 
ROOT
HETATM    1  C9  UNL     1      22.770   1.565  52.003  1.00  0.00     0.037 C 
HETATM    2  C10 UNL     1      23.378   0.224  51.812  1.00  0.00     0.091 C 
HETATM    3  N1  UNL     1      24.304  -0.344  52.480  1.00  0.00    -0.279 NA
HETATM    4  C11 UNL     1      24.877   0.364  53.585  1.00  0.00     0.226 C 
HETATM    5  C12 UNL     1      24.919   1.801  53.217  1.00  0.00    -0.039 C 
HETATM    6  C13 UNL     1      25.994   2.578  53.077  1.00  0.00     0.015 C 
HETATM    7  C14 UNL     1      27.282   1.938  53.317  1.00  0.00    -0.034 A 
HETATM    8  C15 UNL     1      28.495   2.335  53.659  1.00  0.00     0.010 A 
HETATM    9  C16 UNL     1      29.339   1.120  53.724  1.00  0.00     0.017 A 
HETATM   10  C17 UNL     1      28.589   0.046  53.417  1.00  0.00     0.012 A 
HETATM   11 BR1  UNL     1      29.410  -1.684  53.419  1.00  0.00    -0.054 Br
HETATM   12  C18 UNL     1      27.202   0.444  53.116  1.00  0.00     0.150 A 
HETATM   13  N2  UNL     1      26.192  -0.146  53.924  1.00  0.00    -0.212 NA
HETATM   14  C19 UNL     1      23.555   2.404  52.986  1.00  0.00     0.048 C 
ENDROOT
BRANCH   1  15
HETATM   15  C2  UNL     1      21.340   1.502  52.465  1.00  0.00     0.013 C 
HETATM   16  C1  UNL     1      20.658   2.847  52.474  1.00  0.00     0.015 C 
BRANCH  15  17
HETATM   17  C3  UNL     1      21.191   0.863  53.776  1.00  0.00    -0.022 C 
HETATM   18  C4  UNL     1      20.457  -0.070  54.323  1.00  0.00    -0.007 C 
BRANCH  18  19
HETATM   19  C5  UNL     1      19.462  -0.736  53.468  1.00  0.00    -0.021 C 
BRANCH  19  20
HETATM   20  C6  UNL     1      18.318  -1.026  52.926  1.00  0.00     0.023 C 
BRANCH  20  21
HETATM   21  C7  UNL     1      17.370  -0.478  51.986  1.00  0.00     0.037 C 
BRANCH  21  22
HETATM   22  C8  UNL     1      18.114  -0.025  50.969  1.00  0.00     0.419 C 
HETATM   23  F1  UNL     1      19.072   0.535  50.187  1.00  0.00    -0.455 F 
ENDBRANCH  21  22
ENDBRANCH  20  21
ENDBRANCH  19  20
ENDBRANCH  18  19
ENDBRANCH  15  17
ENDBRANCH   1  15
BRANCH  13  24
HETATM   24  N3  UNL     1      26.399  -0.067  55.277  1.00  0.00    -0.265 NA
HETATM   25  H18 UNL     1      25.899   0.772  55.654  1.00  0.00     0.137 HD
HETATM   26  H19 UNL     1      25.896  -0.880  55.736  1.00  0.00     0.137 HD
ENDBRANCH  13  24
TORSDOF 7
ENDMDL
MODEL 5
REMARK VINA RESULT:      -7.0      3.978      6.715
REMARK  7 active torsions:
REMARK  status: ('A' for Active; 'I' for Inactive)
REMARK    1  A    between atoms: C2_2  and  C3_3 
REMARK    2  A    between atoms: C2_2  and  C9_10 
REMARK    3  A    between atoms: C4_4  and  C5_5 
REMARK    4  A    between atoms: C5_5  and  C6_6 
REMARK    5  A    between atoms: C6_6  and  C7_7 
REMARK    6  A    between atoms: C7_7  and  C8_8 
REMARK    7  A    between atoms: N2_22  and  N3_23 
ROOT
HETATM    1  C9  UNL     1      23.433   1.226  52.108  1.00  0.00     0.037 C 
HETATM    2  C10 UNL     1      22.726   1.413  50.816  1.00  0.00     0.091 C 
HETATM    3  N1  UNL     1      21.493   1.656  50.599  1.00  0.00    -0.279 NA
HETATM    4  C11 UNL     1      20.616   1.777  51.723  1.00  0.00     0.226 C 
HETATM    5  C12 UNL     1      21.075   0.807  52.749  1.00  0.00    -0.039 C 
HETATM    6  C13 UNL     1      20.408  -0.238  53.241  1.00  0.00     0.015 C 
HETATM    7  C14 UNL     1      19.068  -0.451  52.708  1.00  0.00    -0.034 A 
HETATM    8  C15 UNL     1      17.964  -1.053  53.116  1.00  0.00     0.010 A 
HETATM    9  C16 UNL     1      16.959  -0.873  52.042  1.00  0.00     0.017 A 
HETATM   10  C17 UNL     1      17.510  -0.170  51.037  1.00  0.00     0.012 A 
HETATM   11 BR1  UNL     1      16.445   0.227  49.495  1.00  0.00    -0.054 Br
HETATM   12  C18 UNL     1      18.912   0.170  51.341  1.00  0.00     0.150 A 
HETATM   13  N2  UNL     1      19.232   1.556  51.350  1.00  0.00    -0.212 NA
HETATM   14  C19 UNL     1      22.466   1.085  53.262  1.00  0.00     0.048 C 
ENDROOT
BRANCH   1  15
HETATM   15  C2  UNL     1      24.392   2.341  52.422  1.00  0.00     0.013 C 
HETATM   16  C1  UNL     1      23.710   3.668  52.643  1.00  0.00     0.015 C 
BRANCH  15  17
HETATM   17  C3  UNL     1      25.445   2.488  51.413  1.00  0.00    -0.022 C 
HETATM   18  C4  UNL     1      26.737   2.303  51.325  1.00  0.00    -0.007 C 
BRANCH  18  19
HETATM   19  C5  UNL     1      27.433   1.807  52.523  1.00  0.00    -0.021 C 
BRANCH  19  20
HETATM   20  C6  UNL     1      27.672   1.116  53.596  1.00  0.00     0.023 C 
BRANCH  20  21
HETATM   21  C7  UNL     1      26.968   0.352  54.598  1.00  0.00     0.037 C 
BRANCH  21  22
HETATM   22  C8  UNL     1      26.193  -0.493  53.908  1.00  0.00     0.419 C 
HETATM   23  F1  UNL     1      25.568  -1.218  52.944  1.00  0.00    -0.455 F 
ENDBRANCH  21  22
ENDBRANCH  20  21
ENDBRANCH  19  20
ENDBRANCH  18  19
ENDBRANCH  15  17
ENDBRANCH   1  15
BRANCH  13  24
HETATM   24  N3  UNL     1      18.404   2.348  52.103  1.00  0.00    -0.265 NA
HETATM   25  H18 UNL     1      18.167   1.851  52.993  1.00  0.00     0.137 HD
HETATM   26  H19 UNL     1      18.960   3.189  52.431  1.00  0.00     0.137 HD
ENDBRANCH  13  24
TORSDOF 7
ENDMDL
MODEL 6
REMARK VINA RESULT:      -7.0      2.534      3.401
REMARK  7 active torsions:
REMARK  status: ('A' for Active; 'I' for Inactive)
REMARK    1  A    between atoms: C2_2  and  C3_3 
REMARK    2  A    between atoms: C2_2  and  C9_10 
REMARK    3  A    between atoms: C4_4  and  C5_5 
REMARK    4  A    between atoms: C5_5  and  C6_6 
REMARK    5  A    between atoms: C6_6  and  C7_7 
REMARK    6  A    between atoms: C7_7  and  C8_8 
REMARK    7  A    between atoms: N2_22  and  N3_23 
ROOT
HETATM    1  C9  UNL     1      23.572   2.334  51.515  1.00  0.00     0.037 C 
HETATM    2  C10 UNL     1      23.328   3.727  51.965  1.00  0.00     0.091 C 
HETATM    3  N1  UNL     1      23.436   4.817  51.312  1.00  0.00    -0.279 NA
HETATM    4  C11 UNL     1      23.849   4.751  49.943  1.00  0.00     0.226 C 
HETATM    5  C12 UNL     1      24.833   3.646  49.831  1.00  0.00    -0.039 C 
HETATM    6  C13 UNL     1      26.116   3.728  49.474  1.00  0.00     0.015 C 
HETATM    7  C14 UNL     1      26.608   5.064  49.157  1.00  0.00    -0.034 A 
HETATM    8  C15 UNL     1      27.597   5.570  48.441  1.00  0.00     0.010 A 
HETATM    9  C16 UNL     1      27.501   7.043  48.563  1.00  0.00     0.017 A 
HETATM   10  C17 UNL     1      26.454   7.352  49.349  1.00  0.00     0.012 A 
HETATM   11 BR1  UNL     1      26.071   9.196  49.693  1.00  0.00    -0.054 Br
HETATM   12  C18 UNL     1      25.775   6.132  49.821  1.00  0.00     0.150 A 
HETATM   13  N2  UNL     1      24.397   6.013  49.487  1.00  0.00    -0.212 NA
HETATM   14  C19 UNL     1      24.261   2.292  50.170  1.00  0.00     0.048 C 
ENDROOT
BRANCH   1  15
HETATM   15  C2  UNL     1      22.316   1.512  51.434  1.00  0.00     0.013 C 
HETATM   16  C1  UNL     1      21.926   1.158  50.021  1.00  0.00     0.015 C 
BRANCH  15  17
HETATM   17  C3  UNL     1      21.180   2.136  52.118  1.00  0.00    -0.022 C 
HETATM   18  C4  UNL     1      20.373   1.860  53.109  1.00  0.00    -0.007 C 
BRANCH  18  19
HETATM   19  C5  UNL     1      20.573   0.580  53.808  1.00  0.00    -0.021 C 
BRANCH  19  20
HETATM   20  C6  UNL     1      20.801  -0.684  53.996  1.00  0.00     0.023 C 
BRANCH  20  21
HETATM   21  C7  UNL     1      21.867  -1.565  54.411  1.00  0.00     0.037 C 
BRANCH  21  22
HETATM   22  C8  UNL     1      22.991  -0.864  54.215  1.00  0.00     0.419 C 
HETATM   23  F1  UNL     1      23.914   0.092  53.939  1.00  0.00    -0.455 F 
ENDBRANCH  21  22
ENDBRANCH  20  21
ENDBRANCH  19  20
ENDBRANCH  18  19
ENDBRANCH  15  17
ENDBRANCH   1  15
BRANCH  13  24
HETATM   24  N3  UNL     1      24.092   6.215  48.165  1.00  0.00    -0.265 NA
HETATM   25  H18 UNL     1      23.223   6.795  48.096  1.00  0.00     0.137 HD
HETATM   26  H19 UNL     1      24.839   6.840  47.746  1.00  0.00     0.137 HD
ENDBRANCH  13  24
TORSDOF 7
ENDMDL
MODEL 7
REMARK VINA RESULT:      -6.9      1.950      2.986
REMARK  7 active torsions:
REMARK  status: ('A' for Active; 'I' for Inactive)
REMARK    1  A    between atoms: C2_2  and  C3_3 
REMARK    2  A    between atoms: C2_2  and  C9_10 
REMARK    3  A    between atoms: C4_4  and  C5_5 
REMARK    4  A    between atoms: C5_5  and  C6_6 
REMARK    5  A    between atoms: C6_6  and  C7_7 
REMARK    6  A    between atoms: C7_7  and  C8_8 
REMARK    7  A    between atoms: N2_22  and  N3_23 
ROOT
HETATM    1  C9  UNL     1      25.244   3.413  50.721  1.00  0.00     0.037 C 
HETATM    2  C10 UNL     1      24.860   4.787  51.132  1.00  0.00     0.091 C 
HETATM    3  N1  UNL     1      24.869   5.865  50.450  1.00  0.00    -0.279 NA
HETATM    4  C11 UNL     1      25.303   5.803  49.087  1.00  0.00     0.226 C 
HETATM    5  C12 UNL     1      26.392   4.797  49.014  1.00  0.00    -0.039 C 
HETATM    6  C13 UNL     1      27.665   4.995  48.668  1.00  0.00     0.015 C 
HETATM    7  C14 UNL     1      28.028   6.364  48.319  1.00  0.00    -0.034 A 
HETATM    8  C15 UNL     1      28.972   6.945  47.599  1.00  0.00     0.010 A 
HETATM    9  C16 UNL     1      28.731   8.404  47.680  1.00  0.00     0.017 A 
HETATM   10  C17 UNL     1      27.650   8.630  48.447  1.00  0.00     0.012 A 
HETATM   11 BR1  UNL     1      27.085  10.436  48.738  1.00  0.00    -0.054 Br
HETATM   12  C18 UNL     1      27.087   7.362  48.946  1.00  0.00     0.150 A 
HETATM   13  N2  UNL     1      25.731   7.101  48.602  1.00  0.00    -0.212 NA
HETATM   14  C19 UNL     1      25.950   3.403  49.384  1.00  0.00     0.048 C 
ENDROOT
BRANCH   1  15
HETATM   15  C2  UNL     1      24.075   2.470  50.650  1.00  0.00     0.013 C 
HETATM   16  C1  UNL     1      23.188   2.710  49.455  1.00  0.00     0.015 C 
BRANCH  15  17
HETATM   17  C3  UNL     1      23.267   2.470  51.873  1.00  0.00    -0.022 C 
HETATM   18  C4  UNL     1      23.129   1.734  52.945  1.00  0.00    -0.007 C 
BRANCH  18  19
HETATM   19  C5  UNL     1      23.978   0.539  53.059  1.00  0.00    -0.021 C 
BRANCH  19  20
HETATM   20  C6  UNL     1      25.032  -0.218  53.006  1.00  0.00     0.023 C 
BRANCH  20  21
HETATM   21  C7  UNL     1      26.341  -0.249  52.399  1.00  0.00     0.037 C 
BRANCH  21  22
HETATM   22  C8  UNL     1      26.754  -1.516  52.531  1.00  0.00     0.419 C 
HETATM   23  F1  UNL     1      27.453  -2.680  52.525  1.00  0.00    -0.455 F 
ENDBRANCH  21  22
ENDBRANCH  20  21
ENDBRANCH  19  20
ENDBRANCH  18  19
ENDBRANCH  15  17
ENDBRANCH   1  15
BRANCH  13  24
HETATM   24  N3  UNL     1      25.423   7.238  47.273  1.00  0.00    -0.265 NA
HETATM   25  H18 UNL     1      26.308   7.323  46.721  1.00  0.00     0.137 HD
HETATM   26  H19 UNL     1      25.009   6.322  46.935  1.00  0.00     0.137 HD
ENDBRANCH  13  24
TORSDOF 7
ENDMDL
MODEL 8
REMARK VINA RESULT:      -6.9      5.238      8.078
REMARK  7 active torsions:
REMARK  status: ('A' for Active; 'I' for Inactive)
REMARK    1  A    between atoms: C2_2  and  C3_3 
REMARK    2  A    between atoms: C2_2  and  C9_10 
REMARK    3  A    between atoms: C4_4  and  C5_5 
REMARK    4  A    between atoms: C5_5  and  C6_6 
REMARK    5  A    between atoms: C6_6  and  C7_7 
REMARK    6  A    between atoms: C7_7  and  C8_8 
REMARK    7  A    between atoms: N2_22  and  N3_23 
ROOT
HETATM    1  C9  UNL     1      31.354   6.081  47.069  1.00  0.00     0.037 C 
HETATM    2  C10 UNL     1      30.646   7.283  46.561  1.00  0.00     0.091 C 
HETATM    3  N1  UNL     1      29.687   7.938  47.088  1.00  0.00    -0.279 NA
HETATM    4  C11 UNL     1      29.178   7.497  48.352  1.00  0.00     0.226 C 
HETATM    5  C12 UNL     1      29.239   6.014  48.361  1.00  0.00    -0.039 C 
HETATM    6  C13 UNL     1      28.223   5.155  48.453  1.00  0.00     0.015 C 
HETATM    7  C14 UNL     1      26.893   5.745  48.558  1.00  0.00    -0.034 A 
HETATM    8  C15 UNL     1      25.716   5.365  49.023  1.00  0.00     0.010 A 
HETATM    9  C16 UNL     1      24.785   6.496  48.801  1.00  0.00     0.017 A 
HETATM   10  C17 UNL     1      25.451   7.505  48.211  1.00  0.00     0.012 A 
HETATM   11 BR1  UNL     1      24.506   9.118  47.797  1.00  0.00    -0.054 Br
HETATM   12  C18 UNL     1      26.861   7.140  47.982  1.00  0.00     0.150 A 
HETATM   13  N2  UNL     1      27.833   7.985  48.587  1.00  0.00    -0.212 NA
HETATM   14  C19 UNL     1      30.642   5.468  48.253  1.00  0.00     0.048 C 
ENDROOT
BRANCH   1  15
HETATM   15  C2  UNL     1      32.779   6.358  47.460  1.00  0.00     0.013 C 
HETATM   16  C1  UNL     1      32.981   7.736  48.039  1.00  0.00     0.015 C 
BRANCH  15  17
HETATM   17  C3  UNL     1      33.726   6.140  46.362  1.00  0.00    -0.022 C 
HETATM   18  C4  UNL     1      34.307   5.130  45.769  1.00  0.00    -0.007 C 
BRANCH  18  19
HETATM   19  C5  UNL     1      33.994   3.782  46.266  1.00  0.00    -0.021 C 
BRANCH  19  20
HETATM   20  C6  UNL     1      33.308   2.783  46.736  1.00  0.00     0.023 C 
BRANCH  20  21
HETATM   21  C7  UNL     1      31.991   2.202  46.634  1.00  0.00     0.037 C 
BRANCH  21  22
HETATM   22  C8  UNL     1      32.180   0.887  46.794  1.00  0.00     0.419 C 
HETATM   23  F1  UNL     1      32.037  -0.455  46.943  1.00  0.00    -0.455 F 
ENDBRANCH  21  22
ENDBRANCH  20  21
ENDBRANCH  19  20
ENDBRANCH  18  19
ENDBRANCH  15  17
ENDBRANCH   1  15
BRANCH  13  24
HETATM   24  N3  UNL     1      27.644   8.239  49.921  1.00  0.00    -0.265 NA
HETATM   25  H18 UNL     1      28.467   8.771  50.290  1.00  0.00     0.137 HD
HETATM   26  H19 UNL     1      26.843   8.927  50.016  1.00  0.00     0.137 HD
ENDBRANCH  13  24
TORSDOF 7
ENDMDL
MODEL 9
REMARK VINA RESULT:      -6.8      3.774      7.059
REMARK  7 active torsions:
REMARK  status: ('A' for Active; 'I' for Inactive)
REMARK    1  A    between atoms: C2_2  and  C3_3 
REMARK    2  A    between atoms: C2_2  and  C9_10 
REMARK    3  A    between atoms: C4_4  and  C5_5 
REMARK    4  A    between atoms: C5_5  and  C6_6 
REMARK    5  A    between atoms: C6_6  and  C7_7 
REMARK    6  A    between atoms: C7_7  and  C8_8 
REMARK    7  A    between atoms: N2_22  and  N3_23 
ROOT
HETATM    1  C9  UNL     1      23.727   1.329  52.126  1.00  0.00     0.037 C 
HETATM    2  C10 UNL     1      23.008   1.500  50.838  1.00  0.00     0.091 C 
HETATM    3  N1  UNL     1      21.771   1.732  50.629  1.00  0.00    -0.279 NA
HETATM    4  C11 UNL     1      20.903   1.856  51.761  1.00  0.00     0.226 C 
HETATM    5  C12 UNL     1      21.377   0.899  52.791  1.00  0.00    -0.039 C 
HETATM    6  C13 UNL     1      20.722  -0.147  53.297  1.00  0.00     0.015 C 
HETATM    7  C14 UNL     1      19.379  -0.375  52.777  1.00  0.00    -0.034 A 
HETATM    8  C15 UNL     1      18.283  -0.981  53.199  1.00  0.00     0.010 A 
HETATM    9  C16 UNL     1      17.268  -0.818  52.133  1.00  0.00     0.017 A 
HETATM   10  C17 UNL     1      17.805  -0.118  51.117  1.00  0.00     0.012 A 
HETATM   11 BR1  UNL     1      16.725   0.257  49.582  1.00  0.00    -0.054 Br
HETATM   12  C18 UNL     1      19.207   0.234  51.407  1.00  0.00     0.150 A 
HETATM   13  N2  UNL     1      19.517   1.623  51.401  1.00  0.00    -0.212 NA
HETATM   14  C19 UNL     1      22.771   1.191  53.289  1.00  0.00     0.048 C 
ENDROOT
BRANCH   1  15
HETATM   15  C2  UNL     1      24.680   2.453  52.422  1.00  0.00     0.013 C 
HETATM   16  C1  UNL     1      25.690   2.112  53.489  1.00  0.00     0.015 C 
BRANCH  15  17
HETATM   17  C3  UNL     1      23.998   3.704  52.769  1.00  0.00    -0.022 C 
HETATM   18  C4  UNL     1      23.672   4.826  52.182  1.00  0.00    -0.007 C 
BRANCH  18  19
HETATM   19  C5  UNL     1      24.049   4.985  50.769  1.00  0.00    -0.021 C 
BRANCH  19  20
HETATM   20  C6  UNL     1      24.792   5.082  49.708  1.00  0.00     0.023 C 
BRANCH  20  21
HETATM   21  C7  UNL     1      26.175   4.959  49.313  1.00  0.00     0.037 C 
BRANCH  21  22
HETATM   22  C8  UNL     1      26.463   3.660  49.462  1.00  0.00     0.419 C 
HETATM   23  F1  UNL     1      26.751   2.422  49.939  1.00  0.00    -0.455 F 
ENDBRANCH  21  22
ENDBRANCH  20  21
ENDBRANCH  19  20
ENDBRANCH  18  19
ENDBRANCH  15  17
ENDBRANCH   1  15
BRANCH  13  24
HETATM   24  N3  UNL     1      18.690   2.414  52.155  1.00  0.00    -0.265 NA
HETATM   25  H18 UNL     1      19.004   2.391  53.153  1.00  0.00     0.137 HD
HETATM   26  H19 UNL     1      18.849   3.423  51.870  1.00  0.00     0.137 HD
ENDBRANCH  13  24
TORSDOF 7
ENDMDL
