MODEL 1
REMARK VINA RESULT:      -8.8      0.000      0.000
REMARK  5 active torsions:
REMARK  status: ('A' for Active; 'I' for Inactive)
REMARK    1  A    between atoms: C4_4  and  N1_5 
REMARK    2  A    between atoms: N1_5  and  C5_6 
REMARK    3  A    between atoms: C9_12  and  C10_13 
REMARK    4  A    between atoms: C11_14  and  C12_16 
REMARK    5  A    between atoms: C12_16  and  C13_17 
ROOT
HETATM    1  C5  UNL     1      22.283   2.845  51.124  1.00  0.00     0.141 A 
HETATM    2  N2  UNL     1      20.986   3.225  51.194  1.00  0.00    -0.224 NA
HETATM    3  C6  UNL     1      20.715   4.562  51.235  1.00  0.00     0.235 A 
HETATM    4  N3  UNL     1      21.699   5.479  51.208  1.00  0.00    -0.246 NA
HETATM    5  C7  UNL     1      22.999   5.084  51.137  1.00  0.00     0.046 A 
HETATM    6  C8  UNL     1      24.055   6.127  51.098  1.00  0.00     0.071 C 
HETATM    7  C9  UNL     1      23.339   3.753  51.094  1.00  0.00     0.037 A 
ENDROOT
BRANCH   7   8
HETATM    8  C10 UNL     1      24.668   3.226  51.015  1.00  0.00     0.055 C 
HETATM    9  C11 UNL     1      25.514   2.820  51.946  1.00  0.00     0.099 C 
HETATM   10  F1  UNL     1      25.435   2.756  53.296  1.00  0.00    -0.210 F 
BRANCH   9  11
HETATM   11  C12 UNL     1      26.866   2.301  51.631  1.00  0.00     0.108 C 
BRANCH  11  12
HETATM   12  C13 UNL     1      27.217   1.291  52.647  1.00  0.00    -0.022 C 
HETATM   13  C14 UNL     1      27.639   0.728  53.728  1.00  0.00     0.076 C 
HETATM   14  C15 UNL     1      26.686   0.238  54.817  1.00  0.00     0.265 C 
HETATM   15  O2  UNL     1      29.054   0.490  54.002  1.00  0.00    -0.351 OA
HETATM   16  O1  UNL     1      26.425  -1.059  54.225  1.00  0.00    -0.276 OA
HETATM   17  N4  UNL     1      27.143  -1.085  53.060  1.00  0.00    -0.288 N 
HETATM   18  C16 UNL     1      28.413  -1.691  53.123  1.00  0.00     0.176 C 
HETATM   19  C18 UNL     1      26.868  -0.079  52.127  1.00  0.00     0.186 C 
HETATM   20  C17 UNL     1      29.544  -0.873  53.706  1.00  0.00     0.197 C 
ENDBRANCH  11  12
ENDBRANCH   9  11
ENDBRANCH   7   8
BRANCH   1  21
HETATM   21  N1  UNL     1      22.401   1.421  51.089  1.00  0.00    -0.340 N 
HETATM   22  H4  UNL     1      22.548   1.178  50.064  1.00  0.00     0.167 HD
BRANCH  21  23
HETATM   23  C4  UNL     1      22.331   0.571  52.226  1.00  0.00     0.036 A 
HETATM   24  C3  UNL     1      21.167  -0.069  52.433  1.00  0.00     0.042 A 
HETATM   25  C2  UNL     1      21.273  -0.898  53.645  1.00  0.00    -0.022 A 
HETATM   26  C1  UNL     1      20.342  -1.676  54.179  1.00  0.00     0.025 C 
HETATM   27  C20 UNL     1      22.632  -0.666  54.117  1.00  0.00     0.045 A 
HETATM   28  C19 UNL     1      23.231   0.177  53.297  1.00  0.00     0.054 A 
HETATM   29 CL1  UNL     1      23.359  -1.386  55.537  1.00  0.00    -0.083 Cl
ENDBRANCH  21  23
ENDBRANCH   1  21
TORSDOF 5
ENDMDL
MODEL 2
REMARK VINA RESULT:      -8.5      2.743      4.967
REMARK  5 active torsions:
REMARK  status: ('A' for Active; 'I' for Inactive)
REMARK    1  A    between atoms: C4_4  and  N1_5 
REMARK    2  A    between atoms: N1_5  and  C5_6 
REMARK    3  A    between atoms: C9_12  and  C10_13 
REMARK    4  A    between atoms: C11_14  and  C12_16 
REMARK    5  A    between atoms: C12_16  and  C13_17 
ROOT
HETATM    1  C5  UNL     1      22.763   2.076  51.209  1.00  0.00     0.141 A 
HETATM    2  N2  UNL     1      21.926   2.673  50.330  1.00  0.00    -0.224 NA
HETATM    3  C6  UNL     1      20.590   2.658  50.612  1.00  0.00     0.235 A 
HETATM    4  N3  UNL     1      20.113   2.072  51.725  1.00  0.00    -0.246 NA
HETATM    5  C7  UNL     1      20.967   1.476  52.601  1.00  0.00     0.046 A 
HETATM    6  C8  UNL     1      20.403   0.849  53.824  1.00  0.00     0.071 C 
HETATM    7  C9  UNL     1      22.323   1.454  52.375  1.00  0.00     0.037 A 
ENDROOT
BRANCH   7   8
HETATM    8  C10 UNL     1      23.309   0.862  53.228  1.00  0.00     0.055 C 
HETATM    9  C11 UNL     1      23.513  -0.389  53.606  1.00  0.00     0.099 C 
HETATM   10  F1  UNL     1      22.874  -1.549  53.330  1.00  0.00    -0.210 F 
BRANCH   9  11
HETATM   11  C12 UNL     1      24.617  -0.781  54.513  1.00  0.00     0.108 C 
BRANCH  11  12
HETATM   12  C13 UNL     1      25.894  -0.496  53.829  1.00  0.00    -0.022 C 
HETATM   13  C14 UNL     1      26.883  -0.537  53.002  1.00  0.00     0.076 C 
HETATM   14  C15 UNL     1      27.046   0.483  51.877  1.00  0.00     0.265 C 
HETATM   15  O2  UNL     1      27.942  -1.540  53.075  1.00  0.00    -0.351 OA
HETATM   16  O1  UNL     1      27.730   1.484  52.670  1.00  0.00    -0.276 OA
HETATM   17  N4  UNL     1      27.812   0.963  53.933  1.00  0.00    -0.288 N 
HETATM   18  C16 UNL     1      29.012   0.302  54.257  1.00  0.00     0.176 C 
HETATM   19  C18 UNL     1      26.606   0.617  54.552  1.00  0.00     0.186 C 
HETATM   20  C17 UNL     1      29.185  -1.112  53.751  1.00  0.00     0.197 C 
ENDBRANCH  11  12
ENDBRANCH   9  11
ENDBRANCH   7   8
BRANCH   1  21
HETATM   21  N1  UNL     1      24.121   2.175  50.774  1.00  0.00    -0.340 N 
HETATM   22  H4  UNL     1      24.490   1.177  50.781  1.00  0.00     0.167 HD
BRANCH  21  23
HETATM   23  C4  UNL     1      24.775   3.384  50.418  1.00  0.00     0.036 A 
HETATM   24  C3  UNL     1      25.868   3.277  49.642  1.00  0.00     0.042 A 
HETATM   25  C2  UNL     1      26.414   4.617  49.375  1.00  0.00    -0.022 A 
HETATM   26  C1  UNL     1      27.480   4.929  48.652  1.00  0.00     0.025 C 
HETATM   27  C20 UNL     1      25.512   5.516  50.085  1.00  0.00     0.045 A 
HETATM   28  C19 UNL     1      24.577   4.800  50.680  1.00  0.00     0.054 A 
HETATM   29 CL1  UNL     1      25.642   7.261  50.143  1.00  0.00    -0.083 Cl
ENDBRANCH  21  23
ENDBRANCH   1  21
TORSDOF 5
ENDMDL
MODEL 3
REMARK VINA RESULT:      -8.4      3.073      6.386
REMARK  5 active torsions:
REMARK  status: ('A' for Active; 'I' for Inactive)
REMARK    1  A    between atoms: C4_4  and  N1_5 
REMARK    2  A    between atoms: N1_5  and  C5_6 
REMARK    3  A    between atoms: C9_12  and  C10_13 
REMARK    4  A    between atoms: C11_14  and  C12_16 
REMARK    5  A    between atoms: C12_16  and  C13_17 
ROOT
HETATM    1  C5  UNL     1      24.089  -0.289  53.532  1.00  0.00     0.141 A 
HETATM    2  N2  UNL     1      24.388  -1.160  54.524  1.00  0.00    -0.224 NA
HETATM    3  C6  UNL     1      23.400  -1.481  55.409  1.00  0.00     0.235 A 
HETATM    4  N3  UNL     1      22.165  -0.956  55.305  1.00  0.00    -0.246 NA
HETATM    5  C7  UNL     1      21.878  -0.082  54.302  1.00  0.00     0.046 A 
HETATM    6  C8  UNL     1      20.501   0.468  54.216  1.00  0.00     0.071 C 
HETATM    7  C9  UNL     1      22.829   0.284  53.380  1.00  0.00     0.037 A 
ENDROOT
BRANCH   7   8
HETATM    8  C10 UNL     1      22.636   1.188  52.286  1.00  0.00     0.055 C 
HETATM    9  C11 UNL     1      22.085   1.027  51.094  1.00  0.00     0.099 C 
HETATM   10  F1  UNL     1      21.513  -0.035  50.482  1.00  0.00    -0.210 F 
BRANCH   9  11
HETATM   11  C12 UNL     1      21.992   2.121  50.101  1.00  0.00     0.108 C 
BRANCH  11  12
HETATM   12  C13 UNL     1      23.153   3.012  50.291  1.00  0.00    -0.022 C 
HETATM   13  C14 UNL     1      24.134   3.659  50.825  1.00  0.00     0.076 C 
HETATM   14  C15 UNL     1      25.588   3.225  50.646  1.00  0.00     0.265 C 
HETATM   15  O2  UNL     1      23.950   4.867  51.626  1.00  0.00    -0.351 OA
HETATM   16  O1  UNL     1      25.801   3.909  49.386  1.00  0.00    -0.276 OA
HETATM   17  N4  UNL     1      24.609   4.510  49.084  1.00  0.00    -0.288 N 
HETATM   18  C16 UNL     1      24.477   5.860  49.464  1.00  0.00     0.176 C 
HETATM   19  C18 UNL     1      23.491   3.676  48.982  1.00  0.00     0.186 C 
HETATM   20  C17 UNL     1      24.161   6.145  50.915  1.00  0.00     0.197 C 
ENDBRANCH  11  12
ENDBRANCH   9  11
ENDBRANCH   7   8
BRANCH   1  21
HETATM   21  N1  UNL     1      25.223  -0.054  52.695  1.00  0.00    -0.340 N 
HETATM   22  H4  UNL     1      24.855  -0.131  51.700  1.00  0.00     0.167 HD
BRANCH  21  23
HETATM   23  C4  UNL     1      26.536   0.222  53.162  1.00  0.00     0.036 A 
HETATM   24  C3  UNL     1      27.447  -0.757  53.021  1.00  0.00     0.042 A 
HETATM   25  C2  UNL     1      28.741  -0.302  53.555  1.00  0.00    -0.022 A 
HETATM   26  C1  UNL     1      29.883  -0.975  53.598  1.00  0.00     0.025 C 
HETATM   27  C20 UNL     1      28.477   1.053  54.022  1.00  0.00     0.045 A 
HETATM   28  C19 UNL     1      27.210   1.344  53.793  1.00  0.00     0.054 A 
HETATM   29 CL1  UNL     1      29.643   2.125  54.767  1.00  0.00    -0.083 Cl
ENDBRANCH  21  23
ENDBRANCH   1  21
TORSDOF 5
ENDMDL
MODEL 4
REMARK VINA RESULT:      -8.4      3.494      7.309
REMARK  5 active torsions:
REMARK  status: ('A' for Active; 'I' for Inactive)
REMARK    1  A    between atoms: C4_4  and  N1_5 
REMARK    2  A    between atoms: N1_5  and  C5_6 
REMARK    3  A    between atoms: C9_12  and  C10_13 
REMARK    4  A    between atoms: C11_14  and  C12_16 
REMARK    5  A    between atoms: C12_16  and  C13_17 
ROOT
HETATM    1  C5  UNL     1      27.049   1.637  52.278  1.00  0.00     0.141 A 
HETATM    2  N2  UNL     1      28.281   2.102  52.588  1.00  0.00    -0.224 NA
HETATM    3  C6  UNL     1      28.769   1.832  53.834  1.00  0.00     0.235 A 
HETATM    4  N3  UNL     1      28.056   1.127  54.731  1.00  0.00    -0.246 NA
HETATM    5  C7  UNL     1      26.818   0.665  54.405  1.00  0.00     0.046 A 
HETATM    6  C8  UNL     1      26.066  -0.118  55.419  1.00  0.00     0.071 C 
HETATM    7  C9  UNL     1      26.268   0.904  53.168  1.00  0.00     0.037 A 
ENDROOT
BRANCH   7   8
HETATM    8  C10 UNL     1      24.982   0.463  52.719  1.00  0.00     0.055 C 
HETATM    9  C11 UNL     1      23.782   1.013  52.799  1.00  0.00     0.099 C 
HETATM   10  F1  UNL     1      23.338   2.177  53.328  1.00  0.00    -0.210 F 
BRANCH   9  11
HETATM   11  C12 UNL     1      22.566   0.366  52.255  1.00  0.00     0.108 C 
BRANCH  11  12
HETATM   12  C13 UNL     1      22.053   1.207  51.156  1.00  0.00    -0.022 C 
HETATM   13  C14 UNL     1      21.903   2.169  50.309  1.00  0.00     0.076 C 
HETATM   14  C15 UNL     1      22.351   2.048  48.854  1.00  0.00     0.265 C 
HETATM   15  O2  UNL     1      21.278   3.444  50.652  1.00  0.00    -0.351 OA
HETATM   16  O1  UNL     1      21.143   1.412  48.369  1.00  0.00    -0.276 OA
HETATM   17  N4  UNL     1      20.334   1.272  49.464  1.00  0.00    -0.288 N 
HETATM   18  C16 UNL     1      19.376   2.283  49.666  1.00  0.00     0.176 C 
HETATM   19  C18 UNL     1      20.851   0.541  50.540  1.00  0.00     0.186 C 
HETATM   20  C17 UNL     1      19.853   3.578  50.285  1.00  0.00     0.197 C 
ENDBRANCH  11  12
ENDBRANCH   9  11
ENDBRANCH   7   8
BRANCH   1  21
HETATM   21  N1  UNL     1      26.683   2.002  50.945  1.00  0.00    -0.340 N 
HETATM   22  H4  UNL     1      26.925   1.156  50.348  1.00  0.00     0.167 HD
BRANCH  21  23
HETATM   23  C4  UNL     1      26.113   3.248  50.570  1.00  0.00     0.036 A 
HETATM   24  C3  UNL     1      26.761   3.950  49.624  1.00  0.00     0.042 A 
HETATM   25  C2  UNL     1      26.038   5.204  49.362  1.00  0.00    -0.022 A 
HETATM   26  C1  UNL     1      26.357   6.160  48.501  1.00  0.00     0.025 C 
HETATM   27  C20 UNL     1      24.895   5.151  50.265  1.00  0.00     0.045 A 
HETATM   28  C19 UNL     1      24.948   4.026  50.954  1.00  0.00     0.054 A 
HETATM   29 CL1  UNL     1      23.652   6.374  50.418  1.00  0.00    -0.083 Cl
ENDBRANCH  21  23
ENDBRANCH   1  21
TORSDOF 5
ENDMDL
MODEL 5
REMARK VINA RESULT:      -8.3      2.503      4.594
REMARK  5 active torsions:
REMARK  status: ('A' for Active; 'I' for Inactive)
REMARK    1  A    between atoms: C4_4  and  N1_5 
REMARK    2  A    between atoms: N1_5  and  C5_6 
REMARK    3  A    between atoms: C9_12  and  C10_13 
REMARK    4  A    between atoms: C11_14  and  C12_16 
REMARK    5  A    between atoms: C12_16  and  C13_17 
ROOT
HETATM    1  C5  UNL     1      20.742   0.840  51.239  1.00  0.00     0.141 A 
HETATM    2  N2  UNL     1      19.423   0.541  51.257  1.00  0.00    -0.224 NA
HETATM    3  C6  UNL     1      18.936  -0.126  52.344  1.00  0.00     0.235 A 
HETATM    4  N3  UNL     1      19.734  -0.478  53.369  1.00  0.00    -0.246 NA
HETATM    5  C7  UNL     1      21.059  -0.170  53.338  1.00  0.00     0.046 A 
HETATM    6  C8  UNL     1      21.905  -0.566  54.492  1.00  0.00     0.071 C 
HETATM    7  C9  UNL     1      21.612   0.499  52.272  1.00  0.00     0.037 A 
ENDROOT
BRANCH   7   8
HETATM    8  C10 UNL     1      22.987   0.877  52.137  1.00  0.00     0.055 C 
HETATM    9  C11 UNL     1      23.631   1.989  52.445  1.00  0.00     0.099 C 
HETATM   10  F1  UNL     1      23.233   3.161  52.992  1.00  0.00    -0.210 F 
BRANCH   9  11
HETATM   11  C12 UNL     1      25.084   2.165  52.213  1.00  0.00     0.108 C 
BRANCH  11  12
HETATM   12  C13 UNL     1      25.803   1.195  53.062  1.00  0.00    -0.022 C 
HETATM   13  C14 UNL     1      26.246   0.546  54.085  1.00  0.00     0.076 C 
HETATM   14  C15 UNL     1      25.694  -0.822  54.483  1.00  0.00     0.265 C 
HETATM   15  O2  UNL     1      27.320   1.044  54.941  1.00  0.00    -0.351 OA
HETATM   16  O1  UNL     1      26.546  -1.596  53.604  1.00  0.00    -0.276 OA
HETATM   17  N4  UNL     1      27.312  -0.683  52.931  1.00  0.00    -0.288 N 
HETATM   18  C16 UNL     1      28.588  -0.424  53.466  1.00  0.00     0.176 C 
HETATM   19  C18 UNL     1      26.630   0.288  52.189  1.00  0.00     0.186 C 
HETATM   20  C17 UNL     1      28.667   0.507  54.656  1.00  0.00     0.197 C 
ENDBRANCH  11  12
ENDBRANCH   9  11
ENDBRANCH   7   8
BRANCH   1  21
HETATM   21  N1  UNL     1      21.095   1.533  50.040  1.00  0.00    -0.340 N 
HETATM   22  H4  UNL     1      20.977   0.820  49.260  1.00  0.00     0.167 HD
BRANCH  21  23
HETATM   23  C4  UNL     1      21.505   2.892  49.977  1.00  0.00     0.036 A 
HETATM   24  C3  UNL     1      22.535   3.177  49.162  1.00  0.00     0.042 A 
HETATM   25  C2  UNL     1      22.823   4.619  49.221  1.00  0.00    -0.022 A 
HETATM   26  C1  UNL     1      23.761   5.287  48.564  1.00  0.00     0.025 C 
HETATM   27  C20 UNL     1      21.841   5.139  50.164  1.00  0.00     0.045 A 
HETATM   28  C19 UNL     1      21.090   4.141  50.592  1.00  0.00     0.054 A 
HETATM   29 CL1  UNL     1      21.677   6.812  50.654  1.00  0.00    -0.083 Cl
ENDBRANCH  21  23
ENDBRANCH   1  21
TORSDOF 5
ENDMDL
MODEL 6
REMARK VINA RESULT:      -8.3      2.815      5.171
REMARK  5 active torsions:
REMARK  status: ('A' for Active; 'I' for Inactive)
REMARK    1  A    between atoms: C4_4  and  N1_5 
REMARK    2  A    between atoms: N1_5  and  C5_6 
REMARK    3  A    between atoms: C9_12  and  C10_13 
REMARK    4  A    between atoms: C11_14  and  C12_16 
REMARK    5  A    between atoms: C12_16  and  C13_17 
ROOT
HETATM    1  C5  UNL     1      23.004   4.308  52.389  1.00  0.00     0.141 A 
HETATM    2  N2  UNL     1      21.683   4.588  52.313  1.00  0.00    -0.224 NA
HETATM    3  C6  UNL     1      20.807   3.542  52.335  1.00  0.00     0.235 A 
HETATM    4  N3  UNL     1      21.234   2.270  52.430  1.00  0.00    -0.246 NA
HETATM    5  C7  UNL     1      22.566   2.001  52.507  1.00  0.00     0.046 A 
HETATM    6  C8  UNL     1      22.996   0.585  52.621  1.00  0.00     0.071 C 
HETATM    7  C9  UNL     1      23.500   3.009  52.488  1.00  0.00     0.037 A 
ENDROOT
BRANCH   7   8
HETATM    8  C10 UNL     1      24.920   2.843  52.567  1.00  0.00     0.055 C 
HETATM    9  C11 UNL     1      25.837   2.627  51.639  1.00  0.00     0.099 C 
HETATM   10  F1  UNL     1      25.769   2.486  50.295  1.00  0.00    -0.210 F 
BRANCH   9  11
HETATM   11  C12 UNL     1      27.277   2.483  51.954  1.00  0.00     0.108 C 
BRANCH  11  12
HETATM   12  C13 UNL     1      27.432   1.339  52.873  1.00  0.00    -0.022 C 
HETATM   13  C14 UNL     1      27.717   0.619  53.905  1.00  0.00     0.076 C 
HETATM   14  C15 UNL     1      26.650   0.167  54.901  1.00  0.00     0.265 C 
HETATM   15  O2  UNL     1      29.069   0.157  54.206  1.00  0.00    -0.351 OA
HETATM   16  O1  UNL     1      26.244  -1.015  54.170  1.00  0.00    -0.276 OA
HETATM   17  N4  UNL     1      27.010  -1.031  53.036  1.00  0.00    -0.288 N 
HETATM   18  C16 UNL     1      28.179  -1.814  53.084  1.00  0.00     0.176 C 
HETATM   19  C18 UNL     1      26.925   0.090  52.202  1.00  0.00     0.186 C 
HETATM   20  C17 UNL     1      29.380  -1.227  53.790  1.00  0.00     0.197 C 
ENDBRANCH  11  12
ENDBRANCH   9  11
ENDBRANCH   7   8
BRANCH   1  21
HETATM   21  N1  UNL     1      23.787   5.503  52.353  1.00  0.00    -0.340 N 
HETATM   22  H4  UNL     1      24.186   5.605  53.333  1.00  0.00     0.167 HD
BRANCH  21  23
HETATM   23  C4  UNL     1      23.957   6.329  51.210  1.00  0.00     0.036 A 
HETATM   24  C3  UNL     1      24.945   5.995  50.362  1.00  0.00     0.042 A 
HETATM   25  C2  UNL     1      24.978   6.952  49.244  1.00  0.00    -0.022 A 
HETATM   26  C1  UNL     1      25.804   6.961  48.208  1.00  0.00     0.025 C 
HETATM   27  C20 UNL     1      23.895   7.881  49.541  1.00  0.00     0.045 A 
HETATM   28  C19 UNL     1      23.316   7.516  50.670  1.00  0.00     0.054 A 
HETATM   29 CL1  UNL     1      23.431   9.259  48.565  1.00  0.00    -0.083 Cl
ENDBRANCH  21  23
ENDBRANCH   1  21
TORSDOF 5
ENDMDL
MODEL 7
REMARK VINA RESULT:      -8.2      3.218      6.791
REMARK  5 active torsions:
REMARK  status: ('A' for Active; 'I' for Inactive)
REMARK    1  A    between atoms: C4_4  and  N1_5 
REMARK    2  A    between atoms: N1_5  and  C5_6 
REMARK    3  A    between atoms: C9_12  and  C10_13 
REMARK    4  A    between atoms: C11_14  and  C12_16 
REMARK    5  A    between atoms: C12_16  and  C13_17 
ROOT
HETATM    1  C5  UNL     1      23.649  -0.350  53.621  1.00  0.00     0.141 A 
HETATM    2  N2  UNL     1      24.262  -0.825  54.730  1.00  0.00    -0.224 NA
HETATM    3  C6  UNL     1      23.515  -1.554  55.609  1.00  0.00     0.235 A 
HETATM    4  N3  UNL     1      22.211  -1.799  55.387  1.00  0.00    -0.246 NA
HETATM    5  C7  UNL     1      21.606  -1.316  54.268  1.00  0.00     0.046 A 
HETATM    6  C8  UNL     1      20.168  -1.617  54.055  1.00  0.00     0.071 C 
HETATM    7  C9  UNL     1      22.302  -0.573  53.344  1.00  0.00     0.037 A 
ENDROOT
BRANCH   7   8
HETATM    8  C10 UNL     1      21.771  -0.022  52.134  1.00  0.00     0.055 C 
HETATM    9  C11 UNL     1      20.790   0.837  51.911  1.00  0.00     0.099 C 
HETATM   10  F1  UNL     1      19.943   1.498  52.732  1.00  0.00    -0.210 F 
BRANCH   9  11
HETATM   11  C12 UNL     1      20.403   1.275  50.550  1.00  0.00     0.108 C 
BRANCH  11  12
HETATM   12  C13 UNL     1      21.532   2.033  49.975  1.00  0.00    -0.022 C 
HETATM   13  C14 UNL     1      22.663   2.334  49.432  1.00  0.00     0.076 C 
HETATM   14  C15 UNL     1      22.782   2.709  47.956  1.00  0.00     0.265 C 
HETATM   15  O2  UNL     1      23.921   2.363  50.174  1.00  0.00    -0.351 OA
HETATM   16  O1  UNL     1      22.472   4.114  48.126  1.00  0.00    -0.276 OA
HETATM   17  N4  UNL     1      22.238   4.282  49.464  1.00  0.00    -0.288 N 
HETATM   18  C16 UNL     1      23.328   4.726  50.237  1.00  0.00     0.176 C 
HETATM   19  C18 UNL     1      21.220   3.505  50.028  1.00  0.00     0.186 C 
HETATM   20  C17 UNL     1      24.364   3.697  50.631  1.00  0.00     0.197 C 
ENDBRANCH  11  12
ENDBRANCH   9  11
ENDBRANCH   7   8
BRANCH   1  21
HETATM   21  N1  UNL     1      24.561   0.390  52.806  1.00  0.00    -0.340 N 
HETATM   22  H4  UNL     1      23.956   0.860  52.068  1.00  0.00     0.167 HD
BRANCH  21  23
HETATM   23  C4  UNL     1      25.966   0.446  53.002  1.00  0.00     0.036 A 
HETATM   24  C3  UNL     1      26.495   1.655  53.260  1.00  0.00     0.042 A 
HETATM   25  C2  UNL     1      27.951   1.527  53.433  1.00  0.00    -0.022 A 
HETATM   26  C1  UNL     1      28.824   2.488  53.699  1.00  0.00     0.025 C 
HETATM   27  C20 UNL     1      28.207   0.104  53.246  1.00  0.00     0.045 A 
HETATM   28  C19 UNL     1      27.063  -0.507  52.999  1.00  0.00     0.054 A 
HETATM   29 CL1  UNL     1      29.773  -0.675  53.333  1.00  0.00    -0.083 Cl
ENDBRANCH  21  23
ENDBRANCH   1  21
TORSDOF 5
ENDMDL
MODEL 8
REMARK VINA RESULT:      -8.2      2.553      3.267
REMARK  5 active torsions:
REMARK  status: ('A' for Active; 'I' for Inactive)
REMARK    1  A    between atoms: C4_4  and  N1_5 
REMARK    2  A    between atoms: N1_5  and  C5_6 
REMARK    3  A    between atoms: C9_12  and  C10_13 
REMARK    4  A    between atoms: C11_14  and  C12_16 
REMARK    5  A    between atoms: C12_16  and  C13_17 
ROOT
HETATM    1  C5  UNL     1      21.301   2.137  51.302  1.00  0.00     0.141 A 
HETATM    2  N2  UNL     1      20.455   3.126  50.932  1.00  0.00    -0.224 NA
HETATM    3  C6  UNL     1      20.780   4.405  51.279  1.00  0.00     0.235 A 
HETATM    4  N3  UNL     1      21.903   4.684  51.966  1.00  0.00    -0.246 NA
HETATM    5  C7  UNL     1      22.745   3.679  52.331  1.00  0.00     0.046 A 
HETATM    6  C8  UNL     1      23.980   4.029  53.080  1.00  0.00     0.071 C 
HETATM    7  C9  UNL     1      22.476   2.370  52.014  1.00  0.00     0.037 A 
ENDROOT
BRANCH   7   8
HETATM    8  C10 UNL     1      23.291   1.239  52.343  1.00  0.00     0.055 C 
HETATM    9  C11 UNL     1      23.203   0.337  53.306  1.00  0.00     0.099 C 
HETATM   10  F1  UNL     1      22.324   0.156  54.319  1.00  0.00    -0.210 F 
BRANCH   9  11
HETATM   11  C12 UNL     1      24.177  -0.769  53.459  1.00  0.00     0.108 C 
BRANCH  11  12
HETATM   12  C13 UNL     1      25.535  -0.196  53.380  1.00  0.00    -0.022 C 
HETATM   13  C14 UNL     1      26.655   0.258  52.929  1.00  0.00     0.076 C 
HETATM   14  C15 UNL     1      26.952   1.754  52.844  1.00  0.00     0.265 C 
HETATM   15  O2  UNL     1      27.742  -0.608  52.478  1.00  0.00    -0.351 OA
HETATM   16  O1  UNL     1      27.426   1.897  54.206  1.00  0.00    -0.276 OA
HETATM   17  N4  UNL     1      27.315   0.654  54.769  1.00  0.00    -0.288 N 
HETATM   18  C16 UNL     1      28.477  -0.142  54.754  1.00  0.00     0.176 C 
HETATM   19  C18 UNL     1      26.042   0.074  54.772  1.00  0.00     0.186 C 
HETATM   20  C17 UNL     1      28.819  -0.848  53.461  1.00  0.00     0.197 C 
ENDBRANCH  11  12
ENDBRANCH   9  11
ENDBRANCH   7   8
BRANCH   1  21
HETATM   21  N1  UNL     1      20.823   0.862  50.868  1.00  0.00    -0.340 N 
HETATM   22  H4  UNL     1      21.585   0.480  50.232  1.00  0.00     0.167 HD
BRANCH  21  23
HETATM   23  C4  UNL     1      19.582   0.285  51.250  1.00  0.00     0.036 A 
HETATM   24  C3  UNL     1      19.567  -0.414  52.398  1.00  0.00     0.042 A 
HETATM   25  C2  UNL     1      18.212  -0.937  52.636  1.00  0.00    -0.022 A 
HETATM   26  C1  UNL     1      17.793  -1.671  53.657  1.00  0.00     0.025 C 
HETATM   27  C20 UNL     1      17.442  -0.461  51.494  1.00  0.00     0.045 A 
HETATM   28  C19 UNL     1      18.236   0.238  50.704  1.00  0.00     0.054 A 
HETATM   29 CL1  UNL     1      15.741  -0.763  51.207  1.00  0.00    -0.083 Cl
ENDBRANCH  21  23
ENDBRANCH   1  21
TORSDOF 5
ENDMDL
MODEL 9
REMARK VINA RESULT:      -8.1      3.520      5.661
REMARK  5 active torsions:
REMARK  status: ('A' for Active; 'I' for Inactive)
REMARK    1  A    between atoms: C4_4  and  N1_5 
REMARK    2  A    between atoms: N1_5  and  C5_6 
REMARK    3  A    between atoms: C9_12  and  C10_13 
REMARK    4  A    between atoms: C11_14  and  C12_16 
REMARK    5  A    between atoms: C12_16  and  C13_17 
ROOT
HETATM    1  C5  UNL     1      23.642   3.348  49.451  1.00  0.00     0.141 A 
HETATM    2  N2  UNL     1      23.262   4.203  48.474  1.00  0.00    -0.224 NA
HETATM    3  C6  UNL     1      22.033   4.020  47.909  1.00  0.00     0.235 A 
HETATM    4  N3  UNL     1      21.218   3.026  48.306  1.00  0.00    -0.246 NA
HETATM    5  C7  UNL     1      21.612   2.173  49.292  1.00  0.00     0.046 A 
HETATM    6  C8  UNL     1      20.680   1.095  49.709  1.00  0.00     0.071 C 
HETATM    7  C9  UNL     1      22.838   2.302  49.899  1.00  0.00     0.037 A 
ENDROOT
BRANCH   7   8
HETATM    8  C10 UNL     1      23.351   1.469  50.945  1.00  0.00     0.055 C 
HETATM    9  C11 UNL     1      23.351   1.602  52.261  1.00  0.00     0.099 C 
HETATM   10  F1  UNL     1      22.873   2.560  53.088  1.00  0.00    -0.210 F 
BRANCH   9  11
HETATM   11  C12 UNL     1      23.951   0.596  53.168  1.00  0.00     0.108 C 
BRANCH  11  12
HETATM   12  C13 UNL     1      25.419   0.729  53.090  1.00  0.00    -0.022 C 
HETATM   13  C14 UNL     1      26.626   0.800  52.642  1.00  0.00     0.076 C 
HETATM   14  C15 UNL     1      27.361   2.131  52.491  1.00  0.00     0.265 C 
HETATM   15  O2  UNL     1      27.404  -0.375  52.258  1.00  0.00    -0.351 OA
HETATM   16  O1  UNL     1      27.848   2.197  53.854  1.00  0.00    -0.276 OA
HETATM   17  N4  UNL     1      27.364   1.076  54.474  1.00  0.00    -0.288 N 
HETATM   18  C16 UNL     1      28.231  -0.032  54.524  1.00  0.00     0.176 C 
HETATM   19  C18 UNL     1      25.975   0.908  54.478  1.00  0.00     0.186 C 
HETATM   20  C17 UNL     1      28.353  -0.875  53.274  1.00  0.00     0.197 C 
ENDBRANCH  11  12
ENDBRANCH   9  11
ENDBRANCH   7   8
BRANCH   1  21
HETATM   21  N1  UNL     1      24.947   3.669  49.937  1.00  0.00    -0.340 N 
HETATM   22  H4  UNL     1      25.094   3.037  50.779  1.00  0.00     0.167 HD
BRANCH  21  23
HETATM   23  C4  UNL     1      25.814   4.637  49.362  1.00  0.00     0.036 A 
HETATM   24  C3  UNL     1      27.078   4.249  49.117  1.00  0.00     0.042 A 
HETATM   25  C2  UNL     1      27.829   5.369  48.527  1.00  0.00    -0.022 A 
HETATM   26  C1  UNL     1      29.099   5.383  48.148  1.00  0.00     0.025 C 
HETATM   27  C20 UNL     1      26.856   6.451  48.457  1.00  0.00     0.045 A 
HETATM   28  C19 UNL     1      25.704   6.022  48.937  1.00  0.00     0.054 A 
HETATM   29 CL1  UNL     1      27.157   8.061  47.837  1.00  0.00    -0.083 Cl
ENDBRANCH  21  23
ENDBRANCH   1  21
TORSDOF 5
ENDMDL
