MODEL 1
REMARK VINA RESULT:      -8.2      0.000      0.000
REMARK  6 active torsions:
REMARK  status: ('A' for Active; 'I' for Inactive)
REMARK    1  A    between atoms: C2_3  and  C3_4 
REMARK    2  A    between atoms: C2_3  and  C4_7 
REMARK       I    between atoms: C3_4  and  N2_5 
REMARK    3  A    between atoms: C10_14  and  O3_15 
REMARK    4  A    between atoms: C11_16  and  C12_17 
REMARK    5  A    between atoms: C12_17  and  S1_18 
REMARK    6  A    between atoms: S1_18  and  C13_19 
ROOT
HETATM    1  N1  UNL     1      21.457   4.165  52.204  1.00  0.00    -0.196 NA
HETATM    2  C1  UNL     1      22.086   3.211  51.955  1.00  0.00     0.077 C 
HETATM    3  C2  UNL     1      22.870   2.006  51.616  1.00  0.00     0.209 C 
ENDROOT
BRANCH   3   4
HETATM    4  C3  UNL     1      22.258   1.459  50.372  1.00  0.00     0.216 C 
HETATM    5  N2  UNL     1      22.134   2.575  49.463  1.00  0.00    -0.271 NA
HETATM    6  H2  UNL     1      21.866   3.458  48.935  1.00  0.00     0.127 HD
HETATM    7  H3  UNL     1      21.786   3.472  49.013  1.00  0.00     0.127 HD
HETATM    8  O1  UNL     1      21.734   0.922  49.343  1.00  0.00    -0.278 OA
ENDBRANCH   3   4
BRANCH   3   9
HETATM    9  C4  UNL     1      22.711   1.054  52.751  1.00  0.00    -0.034 C 
HETATM   10  C5  UNL     1      21.463   0.821  52.574  1.00  0.00     0.009 A 
HETATM   11  C6  UNL     1      20.131   0.427  52.576  1.00  0.00     0.031 A 
HETATM   12  C19 UNL     1      20.733   0.639  53.862  1.00  0.00     0.053 A 
HETATM   13  C7  UNL     1      20.322  -0.624  53.352  1.00  0.00    -0.071 A 
HETATM   14  C8  UNL     1      20.609  -1.712  54.359  1.00  0.00     0.198 C 
HETATM   15  O2  UNL     1      21.837  -1.307  55.021  1.00  0.00    -0.381 OA
HETATM   16  C9  UNL     1      22.685  -1.112  53.974  1.00  0.00     0.232 C 
HETATM   17  C10 UNL     1      23.988  -0.589  54.148  1.00  0.00     0.074 C 
HETATM   18  C11 UNL     1      23.884   0.540  53.438  1.00  0.00    -0.012 C 
BRANCH  17  19
HETATM   19  O3  UNL     1      25.076  -1.062  54.836  1.00  0.00    -0.362 OA
HETATM   20  H9  UNL     1      25.761  -0.472  55.295  1.00  0.00     0.217 HD
ENDBRANCH  17  19
BRANCH  18  21
HETATM   21  C12 UNL     1      25.101   1.384  53.324  1.00  0.00     0.121 C 
BRANCH  21  22
HETATM   22  S1  UNL     1      26.154   0.840  51.977  1.00  0.00    -0.125 SA
BRANCH  22  23
HETATM   23  C13 UNL     1      27.592   0.056  52.685  1.00  0.00     0.000 A 
HETATM   24  C14 UNL     1      27.748  -1.328  52.751  1.00  0.00     0.018 A 
HETATM   25  C15 UNL     1      28.894  -1.857  53.315  1.00  0.00     0.001 A 
HETATM   26  C16 UNL     1      29.891  -1.042  53.816  1.00  0.00     0.000 A 
HETATM   27  C17 UNL     1      29.741   0.335  53.753  1.00  0.00     0.001 A 
HETATM   28  C18 UNL     1      28.596   0.870  53.189  1.00  0.00     0.018 A 
ENDBRANCH  22  23
ENDBRANCH  21  22
ENDBRANCH  18  21
ENDBRANCH   3   9
TORSDOF 6
ENDMDL
MODEL 2
REMARK VINA RESULT:      -8.0      3.657      5.416
REMARK  6 active torsions:
REMARK  status: ('A' for Active; 'I' for Inactive)
REMARK    1  A    between atoms: C2_3  and  C3_4 
REMARK    2  A    between atoms: C2_3  and  C4_7 
REMARK       I    between atoms: C3_4  and  N2_5 
REMARK    3  A    between atoms: C10_14  and  O3_15 
REMARK    4  A    between atoms: C11_16  and  C12_17 
REMARK    5  A    between atoms: C12_17  and  S1_18 
REMARK    6  A    between atoms: S1_18  and  C13_19 
ROOT
HETATM    1  N1  UNL     1      26.786  -1.219  51.866  1.00  0.00    -0.196 NA
HETATM    2  C1  UNL     1      26.300  -0.200  52.169  1.00  0.00     0.077 C 
HETATM    3  C2  UNL     1      25.703   1.089  52.572  1.00  0.00     0.209 C 
ENDROOT
BRANCH   3   4
HETATM    4  C3  UNL     1      26.108   1.300  53.991  1.00  0.00     0.216 C 
HETATM    5  N2  UNL     1      26.888   2.516  54.007  1.00  0.00    -0.271 NA
HETATM    6  H2  UNL     1      27.625   3.276  53.921  1.00  0.00     0.127 HD
HETATM    7  H3  UNL     1      27.691   3.197  53.875  1.00  0.00     0.127 HD
HETATM    8  O1  UNL     1      26.416   1.414  55.221  1.00  0.00    -0.278 OA
ENDBRANCH   3   4
BRANCH   3   9
HETATM    9  C4  UNL     1      24.225   0.935  52.457  1.00  0.00    -0.034 C 
HETATM   10  C5  UNL     1      24.092   0.082  53.407  1.00  0.00     0.009 A 
HETATM   11  C6  UNL     1      23.714  -0.837  54.377  1.00  0.00     0.031 A 
HETATM   12  C19 UNL     1      23.036  -0.929  53.115  1.00  0.00     0.053 A 
HETATM   13  C7  UNL     1      22.432  -0.525  54.339  1.00  0.00    -0.071 A 
HETATM   14  C8  UNL     1      20.972  -0.208  54.121  1.00  0.00     0.198 C 
HETATM   15  O2  UNL     1      20.900   0.367  52.788  1.00  0.00    -0.381 OA
HETATM   16  C9  UNL     1      21.810   1.377  52.855  1.00  0.00     0.232 C 
HETATM   17  C10 UNL     1      22.160   2.150  51.722  1.00  0.00     0.074 C 
HETATM   18  C11 UNL     1      23.461   1.851  51.629  1.00  0.00    -0.012 C 
BRANCH  17  19
HETATM   19  O3  UNL     1      21.419   2.979  50.920  1.00  0.00    -0.362 OA
HETATM   20  H9  UNL     1      21.804   3.753  50.389  1.00  0.00     0.217 HD
ENDBRANCH  17  19
BRANCH  18  21
HETATM   21  C12 UNL     1      24.235   2.526  50.556  1.00  0.00     0.121 C 
BRANCH  21  22
HETATM   22  S1  UNL     1      24.318   4.298  50.821  1.00  0.00    -0.125 SA
BRANCH  22  23
HETATM   23  C13 UNL     1      25.683   4.935  49.864  1.00  0.00     0.000 A 
HETATM   24  C14 UNL     1      26.684   4.121  49.333  1.00  0.00     0.018 A 
HETATM   25  C15 UNL     1      27.708   4.692  48.602  1.00  0.00     0.001 A 
HETATM   26  C16 UNL     1      27.763   6.056  48.386  1.00  0.00     0.000 A 
HETATM   27  C17 UNL     1      26.771   6.870  48.911  1.00  0.00     0.001 A 
HETATM   28  C18 UNL     1      25.743   6.303  49.644  1.00  0.00     0.018 A 
ENDBRANCH  22  23
ENDBRANCH  21  22
ENDBRANCH  18  21
ENDBRANCH   3   9
TORSDOF 6
ENDMDL
MODEL 3
REMARK VINA RESULT:      -7.7      2.473      3.725
REMARK  6 active torsions:
REMARK  status: ('A' for Active; 'I' for Inactive)
REMARK    1  A    between atoms: C2_3  and  C3_4 
REMARK    2  A    between atoms: C2_3  and  C4_7 
REMARK       I    between atoms: C3_4  and  N2_5 
REMARK    3  A    between atoms: C10_14  and  O3_15 
REMARK    4  A    between atoms: C11_16  and  C12_17 
REMARK    5  A    between atoms: C12_17  and  S1_18 
REMARK    6  A    between atoms: S1_18  and  C13_19 
ROOT
HETATM    1  N1  UNL     1      20.161   3.595  52.332  1.00  0.00    -0.196 NA
HETATM    2  C1  UNL     1      21.104   2.994  51.992  1.00  0.00     0.077 C 
HETATM    3  C2  UNL     1      22.284   2.230  51.540  1.00  0.00     0.209 C 
ENDROOT
BRANCH   3   4
HETATM    4  C3  UNL     1      21.834   1.451  50.352  1.00  0.00     0.216 C 
HETATM    5  N2  UNL     1      21.003   2.346  49.579  1.00  0.00    -0.271 NA
HETATM    6  H2  UNL     1      20.236   2.964  49.181  1.00  0.00     0.127 HD
HETATM    7  H3  UNL     1      20.175   2.934  49.271  1.00  0.00     0.127 HD
HETATM    8  O1  UNL     1      21.490   0.725  49.364  1.00  0.00    -0.278 OA
ENDBRANCH   3   4
BRANCH   3   9
HETATM    9  C4  UNL     1      22.666   1.322  52.658  1.00  0.00    -0.034 C 
HETATM   10  C5  UNL     1      21.547   0.698  52.730  1.00  0.00     0.009 A 
HETATM   11  C6  UNL     1      20.439  -0.098  52.989  1.00  0.00     0.031 A 
HETATM   12  C19 UNL     1      21.184   0.345  54.132  1.00  0.00     0.053 A 
HETATM   13  C7  UNL     1      21.105  -1.002  53.682  1.00  0.00    -0.071 A 
HETATM   14  C8  UNL     1      21.918  -1.902  54.582  1.00  0.00     0.198 C 
HETATM   15  O2  UNL     1      23.058  -1.102  54.996  1.00  0.00    -0.381 OA
HETATM   16  C9  UNL     1      23.574  -0.690  53.805  1.00  0.00     0.232 C 
HETATM   17  C10 UNL     1      24.650   0.226  53.728  1.00  0.00     0.074 C 
HETATM   18  C11 UNL     1      24.053   1.234  53.083  1.00  0.00    -0.012 C 
BRANCH  17  19
HETATM   19  O3  UNL     1      25.945   0.150  54.172  1.00  0.00    -0.362 OA
HETATM   20  H9  UNL     1      26.374  -0.691  54.540  1.00  0.00     0.217 HD
ENDBRANCH  17  19
BRANCH  18  21
HETATM   21  C12 UNL     1      24.889   2.415  52.749  1.00  0.00     0.121 C 
BRANCH  21  22
HETATM   22  S1  UNL     1      25.876   2.127  51.279  1.00  0.00    -0.125 SA
BRANCH  22  23
HETATM   23  C13 UNL     1      25.922   3.645  50.341  1.00  0.00     0.000 A 
HETATM   24  C14 UNL     1      26.917   3.931  49.406  1.00  0.00     0.018 A 
HETATM   25  C15 UNL     1      26.880   5.130  48.720  1.00  0.00     0.001 A 
HETATM   26  C16 UNL     1      25.877   6.054  48.941  1.00  0.00     0.000 A 
HETATM   27  C17 UNL     1      24.885   5.775  49.869  1.00  0.00     0.001 A 
HETATM   28  C18 UNL     1      24.917   4.576  50.559  1.00  0.00     0.018 A 
ENDBRANCH  22  23
ENDBRANCH  21  22
ENDBRANCH  18  21
ENDBRANCH   3   9
TORSDOF 6
ENDMDL
MODEL 4
REMARK VINA RESULT:      -7.5      3.714      4.891
REMARK  6 active torsions:
REMARK  status: ('A' for Active; 'I' for Inactive)
REMARK    1  A    between atoms: C2_3  and  C3_4 
REMARK    2  A    between atoms: C2_3  and  C4_7 
REMARK       I    between atoms: C3_4  and  N2_5 
REMARK    3  A    between atoms: C10_14  and  O3_15 
REMARK    4  A    between atoms: C11_16  and  C12_17 
REMARK    5  A    between atoms: C12_17  and  S1_18 
REMARK    6  A    between atoms: S1_18  and  C13_19 
ROOT
HETATM    1  N1  UNL     1      20.049   3.168  52.568  1.00  0.00    -0.196 NA
HETATM    2  C1  UNL     1      20.944   2.971  51.843  1.00  0.00     0.077 C 
HETATM    3  C2  UNL     1      22.058   2.709  50.910  1.00  0.00     0.209 C 
ENDROOT
BRANCH   3   4
HETATM    4  C3  UNL     1      21.582   1.629  50.000  1.00  0.00     0.216 C 
HETATM    5  N2  UNL     1      20.156   1.817  49.869  1.00  0.00    -0.271 NA
HETATM    6  H2  UNL     1      19.102   1.867  49.989  1.00  0.00     0.127 HD
HETATM    7  H3  UNL     1      19.119   1.825  50.092  1.00  0.00     0.127 HD
HETATM    8  O1  UNL     1      21.249   0.682  49.217  1.00  0.00    -0.278 OA
ENDBRANCH   3   4
BRANCH   3   9
HETATM    9  C4  UNL     1      23.210   2.243  51.733  1.00  0.00    -0.034 C 
HETATM   10  C5  UNL     1      22.670   1.153  52.137  1.00  0.00     0.009 A 
HETATM   11  C6  UNL     1      22.290  -0.060  52.698  1.00  0.00     0.031 A 
HETATM   12  C19 UNL     1      23.052   0.818  53.540  1.00  0.00     0.053 A 
HETATM   13  C7  UNL     1      23.516  -0.426  53.025  1.00  0.00    -0.071 A 
HETATM   14  C8  UNL     1      24.927  -0.691  53.493  1.00  0.00     0.198 C 
HETATM   15  O2  UNL     1      25.564   0.614  53.548  1.00  0.00    -0.381 OA
HETATM   16  C9  UNL     1      25.346   1.099  52.294  1.00  0.00     0.232 C 
HETATM   17  C10 UNL     1      25.703   2.418  51.926  1.00  0.00     0.074 C 
HETATM   18  C11 UNL     1      24.496   2.912  51.629  1.00  0.00    -0.012 C 
BRANCH  17  19
HETATM   19  O3  UNL     1      26.917   3.053  51.874  1.00  0.00    -0.362 OA
HETATM   20  H9  UNL     1      27.541   3.156  52.666  1.00  0.00     0.217 HD
ENDBRANCH  17  19
BRANCH  18  21
HETATM   21  C12 UNL     1      24.440   4.310  51.131  1.00  0.00     0.121 C 
BRANCH  21  22
HETATM   22  S1  UNL     1      24.488   4.371  49.338  1.00  0.00    -0.125 SA
BRANCH  22  23
HETATM   23  C13 UNL     1      25.982   5.221  48.857  1.00  0.00     0.000 A 
HETATM   24  C14 UNL     1      27.234   4.607  48.838  1.00  0.00     0.018 A 
HETATM   25  C15 UNL     1      28.343   5.336  48.452  1.00  0.00     0.001 A 
HETATM   26  C16 UNL     1      28.238   6.664  48.083  1.00  0.00     0.000 A 
HETATM   27  C17 UNL     1      26.996   7.280  48.099  1.00  0.00     0.001 A 
HETATM   28  C18 UNL     1      25.882   6.554  48.485  1.00  0.00     0.018 A 
ENDBRANCH  22  23
ENDBRANCH  21  22
ENDBRANCH  18  21
ENDBRANCH   3   9
TORSDOF 6
ENDMDL
MODEL 5
REMARK VINA RESULT:      -7.4      2.468      6.493
REMARK  6 active torsions:
REMARK  status: ('A' for Active; 'I' for Inactive)
REMARK    1  A    between atoms: C2_3  and  C3_4 
REMARK    2  A    between atoms: C2_3  and  C4_7 
REMARK       I    between atoms: C3_4  and  N2_5 
REMARK    3  A    between atoms: C10_14  and  O3_15 
REMARK    4  A    between atoms: C11_16  and  C12_17 
REMARK    5  A    between atoms: C12_17  and  S1_18 
REMARK    6  A    between atoms: S1_18  and  C13_19 
ROOT
HETATM    1  N1  UNL     1      25.916   3.237  49.737  1.00  0.00    -0.196 NA
HETATM    2  C1  UNL     1      25.078   2.958  50.503  1.00  0.00     0.077 C 
HETATM    3  C2  UNL     1      24.018   2.631  51.478  1.00  0.00     0.209 C 
ENDROOT
BRANCH   3   4
HETATM    4  C3  UNL     1      23.910   3.817  52.374  1.00  0.00     0.216 C 
HETATM    5  N2  UNL     1      24.288   4.959  51.575  1.00  0.00    -0.271 NA
HETATM    6  H2  UNL     1      24.782   5.714  51.013  1.00  0.00     0.127 HD
HETATM    7  H3  UNL     1      24.877   5.658  51.036  1.00  0.00     0.127 HD
HETATM    8  O1  UNL     1      23.794   4.781  53.197  1.00  0.00    -0.278 OA
ENDBRANCH   3   4
BRANCH   3   9
HETATM    9  C4  UNL     1      24.479   1.433  52.233  1.00  0.00    -0.034 C 
HETATM   10  C5  UNL     1      25.665   1.858  52.473  1.00  0.00     0.009 A 
HETATM   11  C6  UNL     1      26.981   2.106  52.843  1.00  0.00     0.031 A 
HETATM   12  C19 UNL     1      26.678   0.764  52.435  1.00  0.00     0.053 A 
HETATM   13  C7  UNL     1      27.025   1.156  53.759  1.00  0.00    -0.071 A 
HETATM   14  C8  UNL     1      27.032  -0.045  54.674  1.00  0.00     0.198 C 
HETATM   15  O2  UNL     1      25.968  -0.906  54.184  1.00  0.00    -0.381 OA
HETATM   16  C9  UNL     1      24.895  -0.068  54.173  1.00  0.00     0.232 C 
HETATM   17  C10 UNL     1      23.641  -0.459  53.647  1.00  0.00     0.074 C 
HETATM   18  C11 UNL     1      23.522   0.421  52.646  1.00  0.00    -0.012 C 
BRANCH  17  19
HETATM   19  O3  UNL     1      22.764  -1.446  54.018  1.00  0.00    -0.362 OA
HETATM   20  H9  UNL     1      21.879  -1.626  53.558  1.00  0.00     0.217 HD
ENDBRANCH  17  19
BRANCH  18  21
HETATM   21  C12 UNL     1      22.270   0.375  51.849  1.00  0.00     0.121 C 
BRANCH  21  22
HETATM   22  S1  UNL     1      20.932   1.235  52.678  1.00  0.00    -0.125 SA
BRANCH  22  23
HETATM   23  C13 UNL     1      19.480   0.200  52.601  1.00  0.00     0.000 A 
HETATM   24  C14 UNL     1      19.268  -0.877  53.462  1.00  0.00     0.018 A 
HETATM   25  C15 UNL     1      18.116  -1.631  53.337  1.00  0.00     0.001 A 
HETATM   26  C16 UNL     1      17.168  -1.340  52.374  1.00  0.00     0.000 A 
HETATM   27  C17 UNL     1      17.373  -0.270  51.516  1.00  0.00     0.001 A 
HETATM   28  C18 UNL     1      18.525   0.487  51.637  1.00  0.00     0.018 A 
ENDBRANCH  22  23
ENDBRANCH  21  22
ENDBRANCH  18  21
ENDBRANCH   3   9
TORSDOF 6
ENDMDL
MODEL 6
REMARK VINA RESULT:      -7.3      3.025      5.991
REMARK  6 active torsions:
REMARK  status: ('A' for Active; 'I' for Inactive)
REMARK    1  A    between atoms: C2_3  and  C3_4 
REMARK    2  A    between atoms: C2_3  and  C4_7 
REMARK       I    between atoms: C3_4  and  N2_5 
REMARK    3  A    between atoms: C10_14  and  O3_15 
REMARK    4  A    between atoms: C11_16  and  C12_17 
REMARK    5  A    between atoms: C12_17  and  S1_18 
REMARK    6  A    between atoms: S1_18  and  C13_19 
ROOT
HETATM    1  N1  UNL     1      23.890   4.223  49.687  1.00  0.00    -0.196 NA
HETATM    2  C1  UNL     1      23.277   4.087  50.672  1.00  0.00     0.077 C 
HETATM    3  C2  UNL     1      22.514   3.934  51.928  1.00  0.00     0.209 C 
ENDROOT
BRANCH   3   4
HETATM    4  C3  UNL     1      23.272   4.698  52.959  1.00  0.00     0.216 C 
HETATM    5  N2  UNL     1      23.835   5.840  52.278  1.00  0.00    -0.271 NA
HETATM    6  H2  UNL     1      24.397   6.522  51.687  1.00  0.00     0.127 HD
HETATM    7  H3  UNL     1      24.458   6.432  51.655  1.00  0.00     0.127 HD
HETATM    8  O1  UNL     1      23.897   5.297  53.893  1.00  0.00    -0.278 OA
ENDBRANCH   3   4
BRANCH   3   9
HETATM    9  C4  UNL     1      22.496   2.479  52.248  1.00  0.00    -0.034 C 
HETATM   10  C5  UNL     1      23.763   2.346  52.395  1.00  0.00     0.009 A 
HETATM   11  C6  UNL     1      25.085   1.968  52.595  1.00  0.00     0.031 A 
HETATM   12  C19 UNL     1      24.254   1.027  51.899  1.00  0.00     0.053 A 
HETATM   13  C7  UNL     1      24.791   0.834  53.203  1.00  0.00    -0.071 A 
HETATM   14  C8  UNL     1      24.363  -0.507  53.751  1.00  0.00     0.198 C 
HETATM   15  O2  UNL     1      23.023  -0.722  53.232  1.00  0.00    -0.381 OA
HETATM   16  C9  UNL     1      22.372   0.409  53.622  1.00  0.00     0.232 C 
HETATM   17  C10 UNL     1      21.043   0.686  53.225  1.00  0.00     0.074 C 
HETATM   18  C11 UNL     1      21.236   1.812  52.529  1.00  0.00    -0.012 C 
BRANCH  17  19
HETATM   19  O3  UNL     1      19.865   0.024  53.459  1.00  0.00    -0.362 OA
HETATM   20  H9  UNL     1      19.639  -0.890  53.083  1.00  0.00     0.217 HD
ENDBRANCH  17  19
BRANCH  18  21
HETATM   21  C12 UNL     1      20.033   2.476  51.967  1.00  0.00     0.121 C 
BRANCH  21  22
HETATM   22  S1  UNL     1      19.452   1.641  50.489  1.00  0.00    -0.125 SA
BRANCH  22  23
HETATM   23  C13 UNL     1      20.508   2.124  49.133  1.00  0.00     0.000 A 
HETATM   24  C14 UNL     1      21.589   1.356  48.701  1.00  0.00     0.018 A 
HETATM   25  C15 UNL     1      22.358   1.800  47.642  1.00  0.00     0.001 A 
HETATM   26  C16 UNL     1      22.079   2.992  47.001  1.00  0.00     0.000 A 
HETATM   27  C17 UNL     1      21.005   3.760  47.426  1.00  0.00     0.001 A 
HETATM   28  C18 UNL     1      20.232   3.319  48.486  1.00  0.00     0.018 A 
ENDBRANCH  22  23
ENDBRANCH  21  22
ENDBRANCH  18  21
ENDBRANCH   3   9
TORSDOF 6
ENDMDL
MODEL 7
REMARK VINA RESULT:      -7.3      3.011      4.214
REMARK  6 active torsions:
REMARK  status: ('A' for Active; 'I' for Inactive)
REMARK    1  A    between atoms: C2_3  and  C3_4 
REMARK    2  A    between atoms: C2_3  and  C4_7 
REMARK       I    between atoms: C3_4  and  N2_5 
REMARK    3  A    between atoms: C10_14  and  O3_15 
REMARK    4  A    between atoms: C11_16  and  C12_17 
REMARK    5  A    between atoms: C12_17  and  S1_18 
REMARK    6  A    between atoms: S1_18  and  C13_19 
ROOT
HETATM    1  N1  UNL     1      19.472   3.575  52.330  1.00  0.00    -0.196 NA
HETATM    2  C1  UNL     1      19.947   2.605  51.884  1.00  0.00     0.077 C 
HETATM    3  C2  UNL     1      20.524   1.371  51.315  1.00  0.00     0.209 C 
ENDROOT
BRANCH   3   4
HETATM    4  C3  UNL     1      19.404   0.390  51.250  1.00  0.00     0.216 C 
HETATM    5  N2  UNL     1      18.381   1.004  50.434  1.00  0.00    -0.271 NA
HETATM    6  H2  UNL     1      17.594   1.587  50.024  1.00  0.00     0.127 HD
HETATM    7  H3  UNL     1      17.591   1.641  50.123  1.00  0.00     0.127 HD
HETATM    8  O1  UNL     1      18.489  -0.495  51.239  1.00  0.00    -0.278 OA
ENDBRANCH   3   4
BRANCH   3   9
HETATM    9  C4  UNL     1      21.580   0.912  52.260  1.00  0.00    -0.034 C 
HETATM   10  C5  UNL     1      20.799   0.282  53.059  1.00  0.00     0.009 A 
HETATM   11  C6  UNL     1      20.153  -0.446  54.049  1.00  0.00     0.031 A 
HETATM   12  C19 UNL     1      21.232   0.396  54.481  1.00  0.00     0.053 A 
HETATM   13  C7  UNL     1      21.249  -1.027  54.500  1.00  0.00    -0.071 A 
HETATM   14  C8  UNL     1      22.568  -1.526  55.042  1.00  0.00     0.198 C 
HETATM   15  O2  UNL     1      23.558  -0.568  54.581  1.00  0.00    -0.381 OA
HETATM   16  C9  UNL     1      23.343  -0.546  53.237  1.00  0.00     0.232 C 
HETATM   17  C10 UNL     1      24.021   0.354  52.381  1.00  0.00     0.074 C 
HETATM   18  C11 UNL     1      22.983   1.052  51.907  1.00  0.00    -0.012 C 
BRANCH  17  19
HETATM   19  O3  UNL     1      25.351   0.507  52.089  1.00  0.00    -0.362 OA
HETATM   20  H9  UNL     1      25.969  -0.254  51.828  1.00  0.00     0.217 HD
ENDBRANCH  17  19
BRANCH  18  21
HETATM   21  C12 UNL     1      23.277   2.102  50.899  1.00  0.00     0.121 C 
BRANCH  21  22
HETATM   22  S1  UNL     1      23.923   3.589  51.668  1.00  0.00    -0.125 SA
BRANCH  22  23
HETATM   23  C13 UNL     1      25.057   4.353  50.521  1.00  0.00     0.000 A 
HETATM   24  C14 UNL     1      24.905   5.661  50.060  1.00  0.00     0.018 A 
HETATM   25  C15 UNL     1      25.828   6.180  49.171  1.00  0.00     0.001 A 
HETATM   26  C16 UNL     1      26.901   5.429  48.729  1.00  0.00     0.000 A 
HETATM   27  C17 UNL     1      27.057   4.129  49.184  1.00  0.00     0.001 A 
HETATM   28  C18 UNL     1      26.135   3.604  50.074  1.00  0.00     0.018 A 
ENDBRANCH  22  23
ENDBRANCH  21  22
ENDBRANCH  18  21
ENDBRANCH   3   9
TORSDOF 6
ENDMDL
MODEL 8
REMARK VINA RESULT:      -7.0      4.373      6.218
REMARK  6 active torsions:
REMARK  status: ('A' for Active; 'I' for Inactive)
REMARK    1  A    between atoms: C2_3  and  C3_4 
REMARK    2  A    between atoms: C2_3  and  C4_7 
REMARK       I    between atoms: C3_4  and  N2_5 
REMARK    3  A    between atoms: C10_14  and  O3_15 
REMARK    4  A    between atoms: C11_16  and  C12_17 
REMARK    5  A    between atoms: C12_17  and  S1_18 
REMARK    6  A    between atoms: S1_18  and  C13_19 
ROOT
HETATM    1  N1  UNL     1      27.501  -2.263  52.882  1.00  0.00    -0.196 NA
HETATM    2  C1  UNL     1      27.495  -1.095  52.834  1.00  0.00     0.077 C 
HETATM    3  C2  UNL     1      27.503   0.381  52.793  1.00  0.00     0.209 C 
ENDROOT
BRANCH   3   4
HETATM    4  C3  UNL     1      28.039   0.821  54.113  1.00  0.00     0.216 C 
HETATM    5  N2  UNL     1      28.684  -0.336  54.689  1.00  0.00    -0.271 NA
HETATM    6  H2  UNL     1      28.939  -1.258  55.149  1.00  0.00     0.127 HD
HETATM    7  H3  UNL     1      28.828  -1.277  55.158  1.00  0.00     0.127 HD
HETATM    8  O1  UNL     1      28.468   1.269  55.225  1.00  0.00    -0.278 OA
ENDBRANCH   3   4
BRANCH   3   9
HETATM    9  C4  UNL     1      26.088   0.816  52.621  1.00  0.00    -0.034 C 
HETATM   10  C5  UNL     1      25.554  -0.171  53.243  1.00  0.00     0.009 A 
HETATM   11  C6  UNL     1      24.766  -1.134  53.861  1.00  0.00     0.031 A 
HETATM   12  C19 UNL     1      24.261  -0.593  52.631  1.00  0.00     0.053 A 
HETATM   13  C7  UNL     1      23.683  -0.381  53.913  1.00  0.00    -0.071 A 
HETATM   14  C8  UNL     1      22.458   0.494  53.796  1.00  0.00     0.198 C 
HETATM   15  O2  UNL     1      22.755   1.425  52.719  1.00  0.00    -0.381 OA
HETATM   16  C9  UNL     1      23.939   1.966  53.117  1.00  0.00     0.232 C 
HETATM   17  C10 UNL     1      24.671   2.858  52.298  1.00  0.00     0.074 C 
HETATM   18  C11 UNL     1      25.793   2.149  52.125  1.00  0.00    -0.012 C 
BRANCH  17  19
HETATM   19  O3  UNL     1      24.364   4.097  51.799  1.00  0.00    -0.362 OA
HETATM   20  H9  UNL     1      23.625   4.691  52.159  1.00  0.00     0.217 HD
ENDBRANCH  17  19
BRANCH  18  21
HETATM   21  C12 UNL     1      26.879   2.783  51.335  1.00  0.00     0.121 C 
BRANCH  21  22
HETATM   22  S1  UNL     1      26.445   2.899  49.598  1.00  0.00    -0.125 SA
BRANCH  22  23
HETATM   23  C13 UNL     1      26.784   4.565  49.057  1.00  0.00     0.000 A 
HETATM   24  C14 UNL     1      25.824   5.577  49.065  1.00  0.00     0.018 A 
HETATM   25  C15 UNL     1      26.168   6.843  48.629  1.00  0.00     0.001 A 
HETATM   26  C16 UNL     1      27.445   7.129  48.185  1.00  0.00     0.000 A 
HETATM   27  C17 UNL     1      28.403   6.127  48.175  1.00  0.00     0.001 A 
HETATM   28  C18 UNL     1      28.065   4.858  48.610  1.00  0.00     0.018 A 
ENDBRANCH  22  23
ENDBRANCH  21  22
ENDBRANCH  18  21
ENDBRANCH   3   9
TORSDOF 6
ENDMDL
MODEL 9
REMARK VINA RESULT:      -7.0      3.910      6.663
REMARK  6 active torsions:
REMARK  status: ('A' for Active; 'I' for Inactive)
REMARK    1  A    between atoms: C2_3  and  C3_4 
REMARK    2  A    between atoms: C2_3  and  C4_7 
REMARK       I    between atoms: C3_4  and  N2_5 
REMARK    3  A    between atoms: C10_14  and  O3_15 
REMARK    4  A    between atoms: C11_16  and  C12_17 
REMARK    5  A    between atoms: C12_17  and  S1_18 
REMARK    6  A    between atoms: S1_18  and  C13_19 
ROOT
HETATM    1  N1  UNL     1      24.545   3.214  53.396  1.00  0.00    -0.196 NA
HETATM    2  C1  UNL     1      24.621   2.991  52.251  1.00  0.00     0.077 C 
HETATM    3  C2  UNL     1      24.742   2.712  50.806  1.00  0.00     0.209 C 
ENDROOT
BRANCH   3   4
HETATM    4  C3  UNL     1      26.115   3.147  50.422  1.00  0.00     0.216 C 
HETATM    5  N2  UNL     1      26.962   2.843  51.552  1.00  0.00    -0.271 NA
HETATM    6  H2  UNL     1      27.479   2.806  52.479  1.00  0.00     0.127 HD
HETATM    7  H3  UNL     1      27.418   2.896  52.509  1.00  0.00     0.127 HD
HETATM    8  O1  UNL     1      27.259   3.541  50.025  1.00  0.00    -0.278 OA
ENDBRANCH   3   4
BRANCH   3   9
HETATM    9  C4  UNL     1      23.710   3.538  50.118  1.00  0.00    -0.034 C 
HETATM   10  C5  UNL     1      24.333   4.655  50.206  1.00  0.00     0.009 A 
HETATM   11  C6  UNL     1      24.814   5.958  50.190  1.00  0.00     0.031 A 
HETATM   12  C19 UNL     1      23.407   5.803  50.428  1.00  0.00     0.053 A 
HETATM   13  C7  UNL     1      23.979   6.379  49.259  1.00  0.00    -0.071 A 
HETATM   14  C8  UNL     1      22.891   6.807  48.303  1.00  0.00     0.198 C 
HETATM   15  O2  UNL     1      21.834   5.822  48.459  1.00  0.00    -0.381 OA
HETATM   16  C9  UNL     1      22.494   4.649  48.255  1.00  0.00     0.232 C 
HETATM   17  C10 UNL     1      21.865   3.393  48.428  1.00  0.00     0.074 C 
HETATM   18  C11 UNL     1      22.611   2.893  49.419  1.00  0.00    -0.012 C 
BRANCH  17  19
HETATM   19  O3  UNL     1      20.799   2.812  47.791  1.00  0.00    -0.362 OA
HETATM   20  H9  UNL     1      20.112   3.322  47.247  1.00  0.00     0.217 HD
ENDBRANCH  17  19
BRANCH  18  21
HETATM   21  C12 UNL     1      22.295   1.516  49.876  1.00  0.00     0.121 C 
BRANCH  21  22
HETATM   22  S1  UNL     1      20.966   1.512  51.081  1.00  0.00    -0.125 SA
BRANCH  22  23
HETATM   23  C13 UNL     1      21.528   0.614  52.517  1.00  0.00     0.000 A 
HETATM   24  C14 UNL     1      22.747  -0.062  52.562  1.00  0.00     0.018 A 
HETATM   25  C15 UNL     1      23.110  -0.734  53.715  1.00  0.00     0.001 A 
HETATM   26  C16 UNL     1      22.288  -0.751  54.825  1.00  0.00     0.000 A 
HETATM   27  C17 UNL     1      21.074  -0.081  54.786  1.00  0.00     0.001 A 
HETATM   28  C18 UNL     1      20.707   0.593  53.635  1.00  0.00     0.018 A 
ENDBRANCH  22  23
ENDBRANCH  21  22
ENDBRANCH  18  21
ENDBRANCH   3   9
TORSDOF 6
ENDMDL
