MODEL 1
REMARK VINA RESULT:      -7.9      0.000      0.000
REMARK  8 active torsions:
REMARK  status: ('A' for Active; 'I' for Inactive)
REMARK    1  A    between atoms: O1_2  and  C2_3 
REMARK    2  A    between atoms: N3_9  and  C6_10 
REMARK    3  A    between atoms: C14_20  and  O2_21 
REMARK    4  A    between atoms: O2_21  and  C15_22 
REMARK    5  A    between atoms: C15_22  and  C16_23 
REMARK    6  A    between atoms: C16_23  and  O3_24 
REMARK    7  A    between atoms: C16_23  and  C17_25 
REMARK    8  A    between atoms: C17_25  and  N4_26 
ROOT
HETATM    1  C2  UNL     1      25.925   0.499  54.234  1.00  0.00     0.117 A 
HETATM    2  C3  UNL     1      25.195  -0.411  54.901  1.00  0.00     0.134 A 
HETATM    3  N1  UNL     1      23.899  -0.704  54.337  1.00  0.00    -0.323 N 
HETATM    4  C4  UNL     1      23.030  -1.556  55.126  1.00  0.00     0.207 C 
HETATM    5  N2  UNL     1      21.767  -1.179  55.243  1.00  0.00    -0.265 NA
HETATM    6  C5  UNL     1      21.403   0.042  54.572  1.00  0.00     0.277 C 
HETATM    7  N3  UNL     1      21.959   0.185  53.245  1.00  0.00    -0.337 N 
HETATM    8  C12 UNL     1      23.314  -0.236  53.096  1.00  0.00     0.220 A 
HETATM    9  C13 UNL     1      24.233   0.769  52.509  1.00  0.00     0.059 A 
HETATM   10  C14 UNL     1      25.412   1.103  53.009  1.00  0.00     0.103 A 
ENDROOT
BRANCH  10  11
HETATM   11  O2  UNL     1      26.311   2.026  52.495  1.00  0.00    -0.346 OA
BRANCH  11  12
HETATM   12  C15 UNL     1      26.653   2.171  51.153  1.00  0.00     0.209 C 
BRANCH  12  13
HETATM   13  C16 UNL     1      26.278   3.517  50.586  1.00  0.00     0.160 C 
BRANCH  13  14
HETATM   14  O3  UNL     1      27.349   4.125  49.939  1.00  0.00    -0.392 OA
HETATM   15  H16 UNL     1      27.610   3.598  49.156  1.00  0.00     0.210 HD
ENDBRANCH  13  14
BRANCH  13  16
HETATM   16  C17 UNL     1      25.144   3.396  49.594  1.00  0.00     0.150 C 
BRANCH  16  17
HETATM   17  N4  UNL     1      24.019   4.219  49.867  1.00  0.00    -0.406 N 
HETATM   18  C18 UNL     1      24.229   5.617  49.932  1.00  0.00     0.143 C 
HETATM   19  C19 UNL     1      23.627   6.315  51.126  1.00  0.00     0.187 C 
HETATM   20  O4  UNL     1      22.520   5.709  51.657  1.00  0.00    -0.388 OA
HETATM   21  C20 UNL     1      22.818   4.389  51.998  1.00  0.00     0.187 C 
HETATM   22  C21 UNL     1      22.988   3.665  50.668  1.00  0.00     0.143 C 
ENDBRANCH  16  17
ENDBRANCH  13  16
ENDBRANCH  12  13
ENDBRANCH  11  12
ENDBRANCH  10  11
BRANCH   1  23
HETATM   23  O1  UNL     1      27.153   0.753  54.822  1.00  0.00    -0.352 OA
HETATM   24  C1  UNL     1      28.282  -0.008  54.441  1.00  0.00     0.210 C 
ENDBRANCH   1  23
BRANCH   7  25
HETATM   25  C6  UNL     1      21.187   0.715  52.184  1.00  0.00     0.035 A 
HETATM   26  C7  UNL     1      21.323   0.300  50.878  1.00  0.00     0.032 A 
HETATM   27  C8  UNL     1      20.600   0.807  49.848  1.00  0.00     0.046 A 
HETATM   28  C9  UNL     1      19.667   1.786  50.040  1.00  0.00     0.138 A 
HETATM   29  F1  UNL     1      18.942   2.303  49.031  1.00  0.00    -0.204 F 
HETATM   30  C10 UNL     1      19.492   2.238  51.328  1.00  0.00     0.074 A 
HETATM   31 CL1  UNL     1      18.292   3.504  51.606  1.00  0.00    -0.081 Cl
HETATM   32  C11 UNL     1      20.245   1.704  52.375  1.00  0.00     0.056 A 
ENDBRANCH   7  25
TORSDOF 8
ENDMDL
MODEL 2
REMARK VINA RESULT:      -7.8      3.438      6.577
REMARK  8 active torsions:
REMARK  status: ('A' for Active; 'I' for Inactive)
REMARK    1  A    between atoms: O1_2  and  C2_3 
REMARK    2  A    between atoms: N3_9  and  C6_10 
REMARK    3  A    between atoms: C14_20  and  O2_21 
REMARK    4  A    between atoms: O2_21  and  C15_22 
REMARK    5  A    between atoms: C15_22  and  C16_23 
REMARK    6  A    between atoms: C16_23  and  O3_24 
REMARK    7  A    between atoms: C16_23  and  C17_25 
REMARK    8  A    between atoms: C17_25  and  N4_26 
ROOT
HETATM    1  C2  UNL     1      21.363   1.427  52.608  1.00  0.00     0.117 A 
HETATM    2  C3  UNL     1      20.553   1.976  51.687  1.00  0.00     0.134 A 
HETATM    3  N1  UNL     1      21.218   2.602  50.568  1.00  0.00    -0.323 N 
HETATM    4  C4  UNL     1      20.374   3.341  49.648  1.00  0.00     0.207 C 
HETATM    5  N2  UNL     1      20.807   4.531  49.265  1.00  0.00    -0.265 NA
HETATM    6  C5  UNL     1      22.069   4.956  49.812  1.00  0.00     0.277 C 
HETATM    7  N3  UNL     1      23.083   3.925  49.850  1.00  0.00    -0.337 N 
HETATM    8  C12 UNL     1      22.629   2.630  50.242  1.00  0.00     0.220 A 
HETATM    9  C13 UNL     1      23.370   2.009  51.367  1.00  0.00     0.059 A 
HETATM   10  C14 UNL     1      22.811   1.460  52.432  1.00  0.00     0.103 A 
ENDROOT
BRANCH  10  11
HETATM   11  O2  UNL     1      23.455   0.859  53.504  1.00  0.00    -0.346 OA
BRANCH  11  12
HETATM   12  C15 UNL     1      23.974  -0.433  53.522  1.00  0.00     0.209 C 
BRANCH  12  13
HETATM   13  C16 UNL     1      25.343  -0.516  54.149  1.00  0.00     0.160 C 
BRANCH  13  14
HETATM   14  O3  UNL     1      25.333  -1.260  55.324  1.00  0.00    -0.392 OA
HETATM   15  H16 UNL     1      24.934  -0.737  56.049  1.00  0.00     0.210 HD
ENDBRANCH  13  14
BRANCH  13  16
HETATM   16  C17 UNL     1      26.339  -1.151  53.205  1.00  0.00     0.150 C 
BRANCH  16  17
HETATM   17  N4  UNL     1      27.383  -0.292  52.770  1.00  0.00    -0.406 N 
HETATM   18  C18 UNL     1      28.543  -0.206  53.578  1.00  0.00     0.143 C 
HETATM   19  C19 UNL     1      29.031   1.189  53.878  1.00  0.00     0.187 C 
HETATM   20  O4  UNL     1      28.717   2.130  52.933  1.00  0.00    -0.388 OA
HETATM   21  C20 UNL     1      27.336   2.159  52.732  1.00  0.00     0.187 C 
HETATM   22  C21 UNL     1      27.012   0.852  52.018  1.00  0.00     0.143 C 
ENDBRANCH  16  17
ENDBRANCH  13  16
ENDBRANCH  12  13
ENDBRANCH  11  12
ENDBRANCH  10  11
BRANCH   1  23
HETATM   23  O1  UNL     1      20.677   0.853  53.665  1.00  0.00    -0.352 OA
HETATM   24  C1  UNL     1      20.058  -0.407  53.495  1.00  0.00     0.210 C 
ENDBRANCH   1  23
BRANCH   7  25
HETATM   25  C6  UNL     1      24.428   4.212  49.519  1.00  0.00     0.035 A 
HETATM   26  C7  UNL     1      25.440   3.283  49.621  1.00  0.00     0.032 A 
HETATM   27  C8  UNL     1      26.736   3.547  49.320  1.00  0.00     0.046 A 
HETATM   28  C9  UNL     1      27.136   4.780  48.886  1.00  0.00     0.138 A 
HETATM   29  F1  UNL     1      28.416   5.061  48.585  1.00  0.00    -0.204 F 
HETATM   30  C10 UNL     1      26.163   5.745  48.768  1.00  0.00     0.074 A 
HETATM   31 CL1  UNL     1      26.651   7.349  48.209  1.00  0.00    -0.081 Cl
HETATM   32  C11 UNL     1      24.834   5.455  49.082  1.00  0.00     0.056 A 
ENDBRANCH   7  25
TORSDOF 8
ENDMDL
MODEL 3
REMARK VINA RESULT:      -7.4      3.559      5.661
REMARK  8 active torsions:
REMARK  status: ('A' for Active; 'I' for Inactive)
REMARK    1  A    between atoms: O1_2  and  C2_3 
REMARK    2  A    between atoms: N3_9  and  C6_10 
REMARK    3  A    between atoms: C14_20  and  O2_21 
REMARK    4  A    between atoms: O2_21  and  C15_22 
REMARK    5  A    between atoms: C15_22  and  C16_23 
REMARK    6  A    between atoms: C16_23  and  O3_24 
REMARK    7  A    between atoms: C16_23  and  C17_25 
REMARK    8  A    between atoms: C17_25  and  N4_26 
ROOT
HETATM    1  C2  UNL     1      21.783   2.754  50.925  1.00  0.00     0.117 A 
HETATM    2  C3  UNL     1      21.121   2.045  51.855  1.00  0.00     0.134 A 
HETATM    3  N1  UNL     1      21.944   1.408  52.855  1.00  0.00    -0.323 N 
HETATM    4  C4  UNL     1      21.268   0.506  53.768  1.00  0.00     0.207 C 
HETATM    5  N2  UNL     1      21.855  -0.656  54.006  1.00  0.00    -0.265 NA
HETATM    6  C5  UNL     1      23.101  -0.890  53.324  1.00  0.00     0.277 C 
HETATM    7  N3  UNL     1      23.994   0.248  53.299  1.00  0.00    -0.337 N 
HETATM    8  C12 UNL     1      23.375   1.511  53.063  1.00  0.00     0.220 A 
HETATM    9  C13 UNL     1      23.943   2.302  51.945  1.00  0.00     0.059 A 
HETATM   10  C14 UNL     1      23.237   2.870  50.981  1.00  0.00     0.103 A 
ENDROOT
BRANCH  10  11
HETATM   11  O2  UNL     1      23.716   3.625  49.921  1.00  0.00    -0.346 OA
BRANCH  11  12
HETATM   12  C15 UNL     1      24.973   3.501  49.335  1.00  0.00     0.209 C 
BRANCH  12  13
HETATM   13  C16 UNL     1      25.992   4.456  49.906  1.00  0.00     0.160 C 
BRANCH  13  14
HETATM   14  O3  UNL     1      27.172   3.809  50.256  1.00  0.00    -0.392 OA
HETATM   15  H16 UNL     1      27.788   4.442  50.680  1.00  0.00     0.210 HD
ENDBRANCH  13  14
BRANCH  13  16
HETATM   16  C17 UNL     1      26.336   5.545  48.915  1.00  0.00     0.150 C 
BRANCH  16  17
HETATM   17  N4  UNL     1      25.616   6.759  49.086  1.00  0.00    -0.406 N 
HETATM   18  C18 UNL     1      25.449   7.242  50.406  1.00  0.00     0.143 C 
HETATM   19  C19 UNL     1      24.048   7.660  50.778  1.00  0.00     0.187 C 
HETATM   20  O4  UNL     1      23.271   8.082  49.732  1.00  0.00    -0.388 OA
HETATM   21  C20 UNL     1      23.210   7.088  48.753  1.00  0.00     0.187 C 
HETATM   22  C21 UNL     1      24.604   7.053  48.138  1.00  0.00     0.143 C 
ENDBRANCH  16  17
ENDBRANCH  13  16
ENDBRANCH  12  13
ENDBRANCH  11  12
ENDBRANCH  10  11
BRANCH   1  23
HETATM   23  O1  UNL     1      20.949   3.332  49.983  1.00  0.00    -0.352 OA
HETATM   24  C1  UNL     1      20.437   2.545  48.925  1.00  0.00     0.210 C 
ENDBRANCH   1  23
BRANCH   7  25
HETATM   25  C6  UNL     1      25.387   0.087  53.494  1.00  0.00     0.035 A 
HETATM   26  C7  UNL     1      26.178   1.051  54.079  1.00  0.00     0.032 A 
HETATM   27  C8  UNL     1      27.515   0.918  54.261  1.00  0.00     0.046 A 
HETATM   28  C9  UNL     1      28.184  -0.207  53.868  1.00  0.00     0.138 A 
HETATM   29  F1  UNL     1      29.510  -0.357  54.039  1.00  0.00    -0.204 F 
HETATM   30  C10 UNL     1      27.440  -1.202  53.278  1.00  0.00     0.074 A 
HETATM   31 CL1  UNL     1      28.279  -2.668  52.760  1.00  0.00    -0.081 Cl
HETATM   32  C11 UNL     1      26.064  -1.047  53.099  1.00  0.00     0.056 A 
ENDBRANCH   7  25
TORSDOF 8
ENDMDL
MODEL 4
REMARK VINA RESULT:      -7.3      4.118      6.240
REMARK  8 active torsions:
REMARK  status: ('A' for Active; 'I' for Inactive)
REMARK    1  A    between atoms: O1_2  and  C2_3 
REMARK    2  A    between atoms: N3_9  and  C6_10 
REMARK    3  A    between atoms: C14_20  and  O2_21 
REMARK    4  A    between atoms: O2_21  and  C15_22 
REMARK    5  A    between atoms: C15_22  and  C16_23 
REMARK    6  A    between atoms: C16_23  and  O3_24 
REMARK    7  A    between atoms: C16_23  and  C17_25 
REMARK    8  A    between atoms: C17_25  and  N4_26 
ROOT
HETATM    1  C2  UNL     1      22.704   2.796  50.620  1.00  0.00     0.117 A 
HETATM    2  C3  UNL     1      22.031   2.187  51.611  1.00  0.00     0.134 A 
HETATM    3  N1  UNL     1      22.846   1.558  52.623  1.00  0.00    -0.323 N 
HETATM    4  C4  UNL     1      22.146   0.757  53.609  1.00  0.00     0.207 C 
HETATM    5  N2  UNL     1      22.667  -0.425  53.899  1.00  0.00    -0.265 NA
HETATM    6  C5  UNL     1      23.872  -0.779  53.195  1.00  0.00     0.277 C 
HETATM    7  N3  UNL     1      24.833   0.295  53.073  1.00  0.00    -0.337 N 
HETATM    8  C12 UNL     1      24.287   1.580  52.781  1.00  0.00     0.220 A 
HETATM    9  C13 UNL     1      24.865   2.265  51.599  1.00  0.00     0.059 A 
HETATM   10  C14 UNL     1      24.163   2.820  50.625  1.00  0.00     0.103 A 
ENDROOT
BRANCH  10  11
HETATM   11  O2  UNL     1      24.653   3.479  49.506  1.00  0.00    -0.346 OA
BRANCH  11  12
HETATM   12  C15 UNL     1      25.698   4.398  49.495  1.00  0.00     0.209 C 
BRANCH  12  13
HETATM   13  C16 UNL     1      25.241   5.821  49.701  1.00  0.00     0.160 C 
BRANCH  13  14
HETATM   14  O3  UNL     1      25.013   6.105  51.043  1.00  0.00    -0.392 OA
HETATM   15  H16 UNL     1      24.910   5.272  51.549  1.00  0.00     0.210 HD
ENDBRANCH  13  14
BRANCH  13  16
HETATM   16  C17 UNL     1      26.268   6.805  49.186  1.00  0.00     0.150 C 
BRANCH  16  17
HETATM   17  N4  UNL     1      26.029   8.160  49.541  1.00  0.00    -0.406 N 
HETATM   18  C18 UNL     1      25.101   8.889  48.760  1.00  0.00     0.143 C 
HETATM   19  C19 UNL     1      25.557  10.253  48.305  1.00  0.00     0.187 C 
HETATM   20  O4  UNL     1      26.475  10.860  49.120  1.00  0.00    -0.388 OA
HETATM   21  C20 UNL     1      27.589  10.033  49.280  1.00  0.00     0.187 C 
HETATM   22  C21 UNL     1      27.099   8.873  50.139  1.00  0.00     0.143 C 
ENDBRANCH  16  17
ENDBRANCH  13  16
ENDBRANCH  12  13
ENDBRANCH  11  12
ENDBRANCH  10  11
BRANCH   1  23
HETATM   23  O1  UNL     1      21.877   3.371  49.670  1.00  0.00    -0.352 OA
HETATM   24  C1  UNL     1      21.357   4.668  49.889  1.00  0.00     0.210 C 
ENDBRANCH   1  23
BRANCH   7  25
HETATM   25  C6  UNL     1      26.218   0.056  53.236  1.00  0.00     0.035 A 
HETATM   26  C7  UNL     1      26.823  -1.125  52.865  1.00  0.00     0.032 A 
HETATM   27  C8  UNL     1      28.146  -1.375  53.027  1.00  0.00     0.046 A 
HETATM   28  C9  UNL     1      28.989  -0.453  53.581  1.00  0.00     0.138 A 
HETATM   29  F1  UNL     1      30.303  -0.683  53.751  1.00  0.00    -0.204 F 
HETATM   30  C10 UNL     1      28.434   0.745  53.969  1.00  0.00     0.074 A 
HETATM   31 CL1  UNL     1      29.500   1.957  54.689  1.00  0.00    -0.081 Cl
HETATM   32  C11 UNL     1      27.070   0.984  53.795  1.00  0.00     0.056 A 
ENDBRANCH   7  25
TORSDOF 8
ENDMDL
MODEL 5
REMARK VINA RESULT:      -7.3      2.817      6.685
REMARK  8 active torsions:
REMARK  status: ('A' for Active; 'I' for Inactive)
REMARK    1  A    between atoms: O1_2  and  C2_3 
REMARK    2  A    between atoms: N3_9  and  C6_10 
REMARK    3  A    between atoms: C14_20  and  O2_21 
REMARK    4  A    between atoms: O2_21  and  C15_22 
REMARK    5  A    between atoms: C15_22  and  C16_23 
REMARK    6  A    between atoms: C16_23  and  O3_24 
REMARK    7  A    between atoms: C16_23  and  C17_25 
REMARK    8  A    between atoms: C17_25  and  N4_26 
ROOT
HETATM    1  C2  UNL     1      27.056   4.960  49.014  1.00  0.00     0.117 A 
HETATM    2  C3  UNL     1      26.503   6.001  48.370  1.00  0.00     0.134 A 
HETATM    3  N1  UNL     1      25.099   6.219  48.628  1.00  0.00    -0.323 N 
HETATM    4  C4  UNL     1      24.444   7.231  47.821  1.00  0.00     0.207 C 
HETATM    5  N2  UNL     1      23.262   6.921  47.314  1.00  0.00    -0.265 NA
HETATM    6  C5  UNL     1      22.764   5.606  47.622  1.00  0.00     0.277 C 
HETATM    7  N3  UNL     1      22.963   5.194  48.994  1.00  0.00    -0.337 N 
HETATM    8  C12 UNL     1      24.225   5.539  49.563  1.00  0.00     0.220 A 
HETATM    9  C13 UNL     1      24.983   4.414  50.162  1.00  0.00     0.059 A 
HETATM   10  C14 UNL     1      26.257   4.148  49.926  1.00  0.00     0.103 A 
ENDROOT
BRANCH  10  11
HETATM   11  O2  UNL     1      27.014   3.117  50.466  1.00  0.00    -0.346 OA
BRANCH  11  12
HETATM   12  C15 UNL     1      26.579   2.198  51.416  1.00  0.00     0.209 C 
BRANCH  12  13
HETATM   13  C16 UNL     1      27.627   1.871  52.451  1.00  0.00     0.160 C 
BRANCH  13  14
HETATM   14  O3  UNL     1      28.391   2.983  52.786  1.00  0.00    -0.392 OA
HETATM   15  H16 UNL     1      28.010   3.427  53.571  1.00  0.00     0.210 HD
ENDBRANCH  13  14
BRANCH  13  16
HETATM   16  C17 UNL     1      26.996   1.341  53.719  1.00  0.00     0.150 C 
BRANCH  16  17
HETATM   17  N4  UNL     1      27.289  -0.018  54.011  1.00  0.00    -0.406 N 
HETATM   18  C18 UNL     1      28.651  -0.387  54.122  1.00  0.00     0.143 C 
HETATM   19  C19 UNL     1      29.060  -1.623  53.361  1.00  0.00     0.187 C 
HETATM   20  O4  UNL     1      28.061  -2.538  53.159  1.00  0.00    -0.388 OA
HETATM   21  C20 UNL     1      26.986  -1.932  52.508  1.00  0.00     0.187 C 
HETATM   22  C21 UNL     1      26.374  -0.995  53.543  1.00  0.00     0.143 C 
ENDBRANCH  16  17
ENDBRANCH  13  16
ENDBRANCH  12  13
ENDBRANCH  11  12
ENDBRANCH  10  11
BRANCH   1  23
HETATM   23  O1  UNL     1      28.398   4.787  48.722  1.00  0.00    -0.352 OA
HETATM   24  C1  UNL     1      29.123   5.839  48.115  1.00  0.00     0.210 C 
ENDBRANCH   1  23
BRANCH   7  25
HETATM   25  C6  UNL     1      21.955   4.494  49.699  1.00  0.00     0.035 A 
HETATM   26  C7  UNL     1      21.256   5.045  50.750  1.00  0.00     0.032 A 
HETATM   27  C8  UNL     1      20.297   4.383  51.444  1.00  0.00     0.046 A 
HETATM   28  C9  UNL     1      19.952   3.096  51.143  1.00  0.00     0.138 A 
HETATM   29  F1  UNL     1      19.005   2.423  51.821  1.00  0.00    -0.204 F 
HETATM   30  C10 UNL     1      20.621   2.498  50.100  1.00  0.00     0.074 A 
HETATM   31 CL1  UNL     1      20.196   0.834  49.687  1.00  0.00    -0.081 Cl
HETATM   32  C11 UNL     1      21.605   3.196  49.397  1.00  0.00     0.056 A 
ENDBRANCH   7  25
TORSDOF 8
ENDMDL
MODEL 6
REMARK VINA RESULT:      -7.3      2.803      5.904
REMARK  8 active torsions:
REMARK  status: ('A' for Active; 'I' for Inactive)
REMARK    1  A    between atoms: O1_2  and  C2_3 
REMARK    2  A    between atoms: N3_9  and  C6_10 
REMARK    3  A    between atoms: C14_20  and  O2_21 
REMARK    4  A    between atoms: O2_21  and  C15_22 
REMARK    5  A    between atoms: C15_22  and  C16_23 
REMARK    6  A    between atoms: C16_23  and  O3_24 
REMARK    7  A    between atoms: C16_23  and  C17_25 
REMARK    8  A    between atoms: C17_25  and  N4_26 
ROOT
HETATM    1  C2  UNL     1      24.365   4.147  50.191  1.00  0.00     0.117 A 
HETATM    2  C3  UNL     1      23.572   4.268  49.113  1.00  0.00     0.134 A 
HETATM    3  N1  UNL     1      22.273   3.648  49.223  1.00  0.00    -0.323 N 
HETATM    4  C4  UNL     1      21.466   3.623  48.017  1.00  0.00     0.207 C 
HETATM    5  N2  UNL     1      20.860   2.483  47.727  1.00  0.00    -0.265 NA
HETATM    6  C5  UNL     1      21.077   1.396  48.644  1.00  0.00     0.277 C 
HETATM    7  N3  UNL     1      21.028   1.770  50.040  1.00  0.00    -0.337 N 
HETATM    8  C12 UNL     1      21.659   3.007  50.368  1.00  0.00     0.220 A 
HETATM    9  C13 UNL     1      22.672   2.939  51.450  1.00  0.00     0.059 A 
HETATM   10  C14 UNL     1      23.889   3.453  51.383  1.00  0.00     0.103 A 
ENDROOT
BRANCH  10  11
HETATM   11  O2  UNL     1      24.868   3.426  52.366  1.00  0.00    -0.346 OA
BRANCH  11  12
HETATM   12  C15 UNL     1      25.366   2.284  52.988  1.00  0.00     0.209 C 
BRANCH  12  13
HETATM   13  C16 UNL     1      26.759   1.921  52.539  1.00  0.00     0.160 C 
BRANCH  13  14
HETATM   14  O3  UNL     1      27.279   2.856  51.651  1.00  0.00    -0.392 OA
HETATM   15  H16 UNL     1      26.560   3.422  51.300  1.00  0.00     0.210 HD
ENDBRANCH  13  14
BRANCH  13  16
HETATM   16  C17 UNL     1      27.705   1.822  53.715  1.00  0.00     0.150 C 
BRANCH  16  17
HETATM   17  N4  UNL     1      28.024   0.496  54.115  1.00  0.00    -0.406 N 
HETATM   18  C18 UNL     1      29.390   0.125  54.126  1.00  0.00     0.143 C 
HETATM   19  C19 UNL     1      29.718  -1.187  53.460  1.00  0.00     0.187 C 
HETATM   20  O4  UNL     1      28.702  -2.107  53.457  1.00  0.00    -0.388 OA
HETATM   21  C20 UNL     1      27.567  -1.558  52.858  1.00  0.00     0.187 C 
HETATM   22  C21 UNL     1      27.065  -0.512  53.847  1.00  0.00     0.143 C 
ENDBRANCH  16  17
ENDBRANCH  13  16
ENDBRANCH  12  13
ENDBRANCH  11  12
ENDBRANCH  10  11
BRANCH   1  23
HETATM   23  O1  UNL     1      25.603   4.746  50.029  1.00  0.00    -0.352 OA
HETATM   24  C1  UNL     1      25.678   6.116  49.690  1.00  0.00     0.210 C 
ENDBRANCH   1  23
BRANCH   7  25
HETATM   25  C6  UNL     1      20.392   0.943  50.996  1.00  0.00     0.035 A 
HETATM   26  C7  UNL     1      19.047   0.646  50.954  1.00  0.00     0.032 A 
HETATM   27  C8  UNL     1      18.420  -0.134  51.869  1.00  0.00     0.046 A 
HETATM   28  C9  UNL     1      19.094  -0.691  52.919  1.00  0.00     0.138 A 
HETATM   29  F1  UNL     1      18.489  -1.465  53.838  1.00  0.00    -0.204 F 
HETATM   30  C10 UNL     1      20.440  -0.426  53.008  1.00  0.00     0.074 A 
HETATM   31 CL1  UNL     1      21.337  -1.133  54.357  1.00  0.00    -0.081 Cl
HETATM   32  C11 UNL     1      21.069   0.379  52.057  1.00  0.00     0.056 A 
ENDBRANCH   7  25
TORSDOF 8
ENDMDL
MODEL 7
REMARK VINA RESULT:      -7.2      2.956      5.919
REMARK  8 active torsions:
REMARK  status: ('A' for Active; 'I' for Inactive)
REMARK    1  A    between atoms: O1_2  and  C2_3 
REMARK    2  A    between atoms: N3_9  and  C6_10 
REMARK    3  A    between atoms: C14_20  and  O2_21 
REMARK    4  A    between atoms: O2_21  and  C15_22 
REMARK    5  A    between atoms: C15_22  and  C16_23 
REMARK    6  A    between atoms: C16_23  and  O3_24 
REMARK    7  A    between atoms: C16_23  and  C17_25 
REMARK    8  A    between atoms: C17_25  and  N4_26 
ROOT
HETATM    1  C2  UNL     1      22.115   4.863  50.330  1.00  0.00     0.117 A 
HETATM    2  C3  UNL     1      20.778   4.925  50.451  1.00  0.00     0.134 A 
HETATM    3  N1  UNL     1      20.191   3.970  51.361  1.00  0.00    -0.323 N 
HETATM    4  C4  UNL     1      18.742   3.907  51.384  1.00  0.00     0.207 C 
HETATM    5  N2  UNL     1      18.195   2.703  51.373  1.00  0.00    -0.265 NA
HETATM    6  C5  UNL     1      19.107   1.590  51.336  1.00  0.00     0.277 C 
HETATM    7  N3  UNL     1      20.256   1.727  52.204  1.00  0.00    -0.337 N 
HETATM    8  C12 UNL     1      20.846   3.025  52.244  1.00  0.00     0.220 A 
HETATM    9  C13 UNL     1      22.301   3.073  51.964  1.00  0.00     0.059 A 
HETATM   10  C14 UNL     1      22.883   3.899  51.110  1.00  0.00     0.103 A 
ENDROOT
BRANCH  10  11
HETATM   11  O2  UNL     1      24.237   3.990  50.819  1.00  0.00    -0.346 OA
BRANCH  11  12
HETATM   12  C15 UNL     1      24.952   3.132  49.988  1.00  0.00     0.209 C 
BRANCH  12  13
HETATM   13  C16 UNL     1      26.307   2.764  50.537  1.00  0.00     0.160 C 
BRANCH  13  14
HETATM   14  O3  UNL     1      27.162   3.860  50.590  1.00  0.00    -0.392 OA
HETATM   15  H16 UNL     1      28.081   3.562  50.748  1.00  0.00     0.210 HD
ENDBRANCH  13  14
BRANCH  13  16
HETATM   16  C17 UNL     1      26.195   2.194  51.933  1.00  0.00     0.150 C 
BRANCH  16  17
HETATM   17  N4  UNL     1      27.139   1.178  52.242  1.00  0.00    -0.406 N 
HETATM   18  C18 UNL     1      26.795  -0.157  51.917  1.00  0.00     0.143 C 
HETATM   19  C19 UNL     1      27.015  -1.174  53.008  1.00  0.00     0.187 C 
HETATM   20  O4  UNL     1      28.004  -0.862  53.903  1.00  0.00    -0.388 OA
HETATM   21  C20 UNL     1      27.748   0.383  54.480  1.00  0.00     0.187 C 
HETATM   22  C21 UNL     1      27.982   1.392  53.361  1.00  0.00     0.143 C 
ENDBRANCH  16  17
ENDBRANCH  13  16
ENDBRANCH  12  13
ENDBRANCH  11  12
ENDBRANCH  10  11
BRANCH   1  23
HETATM   23  O1  UNL     1      22.626   5.790  49.436  1.00  0.00    -0.352 OA
HETATM   24  C1  UNL     1      21.844   6.200  48.332  1.00  0.00     0.210 C 
ENDBRANCH   1  23
BRANCH   7  25
HETATM   25  C6  UNL     1      20.741   0.627  52.951  1.00  0.00     0.035 A 
HETATM   26  C7  UNL     1      19.942  -0.425  53.340  1.00  0.00     0.032 A 
HETATM   27  C8  UNL     1      20.389  -1.479  54.068  1.00  0.00     0.046 A 
HETATM   28  C9  UNL     1      21.690  -1.571  54.474  1.00  0.00     0.138 A 
HETATM   29  F1  UNL     1      22.151  -2.608  55.197  1.00  0.00    -0.204 F 
HETATM   30  C10 UNL     1      22.531  -0.545  54.111  1.00  0.00     0.074 A 
HETATM   31 CL1  UNL     1      24.220  -0.637  54.622  1.00  0.00    -0.081 Cl
HETATM   32  C11 UNL     1      22.054   0.532  53.362  1.00  0.00     0.056 A 
ENDBRANCH   7  25
TORSDOF 8
ENDMDL
MODEL 8
REMARK VINA RESULT:      -7.2      5.949     10.088
REMARK  8 active torsions:
REMARK  status: ('A' for Active; 'I' for Inactive)
REMARK    1  A    between atoms: O1_2  and  C2_3 
REMARK    2  A    between atoms: N3_9  and  C6_10 
REMARK    3  A    between atoms: C14_20  and  O2_21 
REMARK    4  A    between atoms: O2_21  and  C15_22 
REMARK    5  A    between atoms: C15_22  and  C16_23 
REMARK    6  A    between atoms: C16_23  and  O3_24 
REMARK    7  A    between atoms: C16_23  and  C17_25 
REMARK    8  A    between atoms: C17_25  and  N4_26 
ROOT
HETATM    1  C2  UNL     1      26.048   6.738  49.731  1.00  0.00     0.117 A 
HETATM    2  C3  UNL     1      26.463   8.012  49.828  1.00  0.00     0.134 A 
HETATM    3  N1  UNL     1      27.640   8.344  49.061  1.00  0.00    -0.323 N 
HETATM    4  C4  UNL     1      28.201   9.665  49.277  1.00  0.00     0.207 C 
HETATM    5  N2  UNL     1      29.514   9.741  49.420  1.00  0.00    -0.265 NA
HETATM    6  C5  UNL     1      30.235   8.498  49.347  1.00  0.00     0.277 C 
HETATM    7  N3  UNL     1      29.790   7.607  48.299  1.00  0.00    -0.337 N 
HETATM    8  C12 UNL     1      28.377   7.528  48.117  1.00  0.00     0.220 A 
HETATM    9  C13 UNL     1      27.805   6.160  48.154  1.00  0.00     0.059 A 
HETATM   10  C14 UNL     1      26.756   5.795  48.871  1.00  0.00     0.103 A 
ENDROOT
BRANCH  10  11
HETATM   11  O2  UNL     1      26.177   4.535  48.934  1.00  0.00    -0.346 OA
BRANCH  11  12
HETATM   12  C15 UNL     1      26.694   3.434  49.611  1.00  0.00     0.209 C 
BRANCH  12  13
HETATM   13  C16 UNL     1      26.193   3.320  51.030  1.00  0.00     0.160 C 
BRANCH  13  14
HETATM   14  O3  UNL     1      24.810   3.442  51.104  1.00  0.00    -0.392 OA
HETATM   15  H16 UNL     1      24.570   4.199  51.677  1.00  0.00     0.210 HD
ENDBRANCH  13  14
BRANCH  13  16
HETATM   16  C17 UNL     1      26.576   1.990  51.639  1.00  0.00     0.150 C 
BRANCH  16  17
HETATM   17  N4  UNL     1      27.054   2.059  52.975  1.00  0.00    -0.406 N 
HETATM   18  C18 UNL     1      28.419   2.381  53.167  1.00  0.00     0.143 C 
HETATM   19  C19 UNL     1      29.173   1.492  54.124  1.00  0.00     0.187 C 
HETATM   20  O4  UNL     1      28.408   0.904  55.097  1.00  0.00    -0.388 OA
HETATM   21  C20 UNL     1      27.372   0.174  54.510  1.00  0.00     0.187 C 
HETATM   22  C21 UNL     1      26.428   1.222  53.932  1.00  0.00     0.143 C 
ENDBRANCH  16  17
ENDBRANCH  13  16
ENDBRANCH  12  13
ENDBRANCH  11  12
ENDBRANCH  10  11
BRANCH   1  23
HETATM   23  O1  UNL     1      24.926   6.469  50.496  1.00  0.00    -0.352 OA
HETATM   24  C1  UNL     1      23.648   6.833  50.014  1.00  0.00     0.210 C 
ENDBRANCH   1  23
BRANCH   7  25
HETATM   25  C6  UNL     1      30.718   6.873  47.522  1.00  0.00     0.035 A 
HETATM   26  C7  UNL     1      31.186   7.310  46.302  1.00  0.00     0.032 A 
HETATM   27  C8  UNL     1      32.064   6.612  45.540  1.00  0.00     0.046 A 
HETATM   28  C9  UNL     1      32.556   5.401  45.939  1.00  0.00     0.138 A 
HETATM   29  F1  UNL     1      33.427   4.694  45.196  1.00  0.00    -0.204 F 
HETATM   30  C10 UNL     1      32.120   4.919  47.151  1.00  0.00     0.074 A 
HETATM   31 CL1  UNL     1      32.740   3.355  47.692  1.00  0.00    -0.081 Cl
HETATM   32  C11 UNL     1      31.216   5.651  47.922  1.00  0.00     0.056 A 
ENDBRANCH   7  25
TORSDOF 8
ENDMDL
MODEL 9
REMARK VINA RESULT:      -7.2      1.570      1.915
REMARK  8 active torsions:
REMARK  status: ('A' for Active; 'I' for Inactive)
REMARK    1  A    between atoms: O1_2  and  C2_3 
REMARK    2  A    between atoms: N3_9  and  C6_10 
REMARK    3  A    between atoms: C14_20  and  O2_21 
REMARK    4  A    between atoms: O2_21  and  C15_22 
REMARK    5  A    between atoms: C15_22  and  C16_23 
REMARK    6  A    between atoms: C16_23  and  O3_24 
REMARK    7  A    between atoms: C16_23  and  C17_25 
REMARK    8  A    between atoms: C17_25  and  N4_26 
ROOT
HETATM    1  C2  UNL     1      25.268   0.681  53.097  1.00  0.00     0.117 A 
HETATM    2  C3  UNL     1      24.737  -0.263  53.893  1.00  0.00     0.134 A 
HETATM    3  N1  UNL     1      23.333  -0.531  53.691  1.00  0.00    -0.323 N 
HETATM    4  C4  UNL     1      22.702  -1.423  54.645  1.00  0.00     0.207 C 
HETATM    5  N2  UNL     1      21.523  -1.056  55.119  1.00  0.00    -0.265 NA
HETATM    6  C5  UNL     1      21.004   0.195  54.632  1.00  0.00     0.277 C 
HETATM    7  N3  UNL     1      21.179   0.406  53.212  1.00  0.00    -0.337 N 
HETATM    8  C12 UNL     1      22.438  -0.004  52.680  1.00  0.00     0.220 A 
HETATM    9  C13 UNL     1      23.174   1.031  51.914  1.00  0.00     0.059 A 
HETATM   10  C14 UNL     1      24.447   1.343  52.089  1.00  0.00     0.103 A 
ENDROOT
BRANCH  10  11
HETATM   11  O2  UNL     1      25.183   2.292  51.395  1.00  0.00    -0.346 OA
BRANCH  11  12
HETATM   12  C15 UNL     1      24.742   3.018  50.291  1.00  0.00     0.209 C 
BRANCH  12  13
HETATM   13  C16 UNL     1      25.187   4.459  50.310  1.00  0.00     0.160 C 
BRANCH  13  14
HETATM   14  O3  UNL     1      26.571   4.577  50.230  1.00  0.00    -0.392 OA
HETATM   15  H16 UNL     1      26.893   4.177  49.397  1.00  0.00     0.210 HD
ENDBRANCH  13  14
BRANCH  13  16
HETATM   16  C17 UNL     1      24.588   5.231  49.157  1.00  0.00     0.150 C 
BRANCH  16  17
HETATM   17  N4  UNL     1      23.342   5.855  49.437  1.00  0.00    -0.406 N 
HETATM   18  C18 UNL     1      23.075   6.214  50.780  1.00  0.00     0.143 C 
HETATM   19  C19 UNL     1      21.724   5.806  51.311  1.00  0.00     0.187 C 
HETATM   20  O4  UNL     1      20.738   5.693  50.366  1.00  0.00    -0.388 OA
HETATM   21  C20 UNL     1      21.132   4.795  49.373  1.00  0.00     0.187 C 
HETATM   22  C21 UNL     1      22.243   5.509  48.611  1.00  0.00     0.143 C 
ENDBRANCH  16  17
ENDBRANCH  13  16
ENDBRANCH  12  13
ENDBRANCH  11  12
ENDBRANCH  10  11
BRANCH   1  23
HETATM   23  O1  UNL     1      26.612   0.909  53.341  1.00  0.00    -0.352 OA
HETATM   24  C1  UNL     1      27.235   0.296  54.453  1.00  0.00     0.210 C 
ENDBRANCH   1  23
BRANCH   7  25
HETATM   25  C6  UNL     1      20.153   0.985  52.428  1.00  0.00     0.035 A 
HETATM   26  C7  UNL     1      19.919   2.341  52.384  1.00  0.00     0.032 A 
HETATM   27  C8  UNL     1      18.931   2.910  51.649  1.00  0.00     0.046 A 
HETATM   28  C9  UNL     1      18.081   2.160  50.885  1.00  0.00     0.138 A 
HETATM   29  F1  UNL     1      17.095   2.706  50.151  1.00  0.00    -0.204 F 
HETATM   30  C10 UNL     1      18.272   0.798  50.895  1.00  0.00     0.074 A 
HETATM   31 CL1  UNL     1      17.188  -0.198  49.917  1.00  0.00    -0.081 Cl
HETATM   32  C11 UNL     1      19.294   0.230  51.658  1.00  0.00     0.056 A 
ENDBRANCH   7  25
TORSDOF 8
ENDMDL
