MODEL 1
REMARK VINA RESULT:      -7.1      0.000      0.000
REMARK  2 active torsions:
REMARK  status: ('A' for Active; 'I' for Inactive)
REMARK    1  A    between atoms: N1_7  and  C6_8 
REMARK    2  A    between atoms: C6_8  and  C10_13 
ROOT
HETATM    1  C6  UNL     1      24.036  -0.114  53.489  1.00  0.00     0.066 C 
HETATM    2  C7  UNL     1      23.153  -0.590  54.346  1.00  0.00     0.046 C 
HETATM    3  C8  UNL     1      23.425  -1.714  55.275  1.00  0.00     0.062 C 
HETATM    4  C9  UNL     1      21.827  -0.006  54.470  1.00  0.00     0.097 C 
HETATM    5  N2  UNL     1      20.760   0.485  54.562  1.00  0.00    -0.192 NA
ENDROOT
BRANCH   1   6
HETATM    6  N1  UNL     1      25.344  -0.522  53.266  1.00  0.00    -0.319 N 
HETATM    7  C2  UNL     1      26.524  -0.135  53.973  1.00  0.00     0.048 C 
HETATM    8  C1  UNL     1      26.505   0.714  54.987  1.00  0.00     0.045 C 
HETATM    9  C3  UNL     1      27.695  -0.801  53.422  1.00  0.00     0.050 C 
HETATM   10 BR1  UNL     1      29.507  -0.413  53.896  1.00  0.00    -0.048 Br
HETATM   11  C4  UNL     1      27.140  -1.645  52.599  1.00  0.00     0.013 C 
HETATM   12  C5  UNL     1      25.896  -1.432  52.294  1.00  0.00     0.111 C 
ENDBRANCH   1   6
BRANCH   1  13
HETATM   13  C10 UNL     1      23.611   0.986  52.602  1.00  0.00    -0.006 A 
HETATM   14  C11 UNL     1      23.925   2.273  53.007  1.00  0.00     0.014 A 
HETATM   15  C12 UNL     1      23.543   3.317  52.165  1.00  0.00     0.002 A 
HETATM   16  C13 UNL     1      22.879   3.013  50.981  1.00  0.00     0.023 A 
HETATM   17  C14 UNL     1      22.567   1.721  50.580  1.00  0.00     0.045 A 
HETATM   18  C15 UNL     1      21.892   1.393  49.380  1.00  0.00     0.099 C 
HETATM   19  C16 UNL     1      22.952   0.705  51.426  1.00  0.00     0.036 A 
HETATM   20  N3  UNL     1      21.352   1.123  48.401  1.00  0.00    -0.191 NA
ENDBRANCH   1  13
TORSDOF 2
ENDMDL
MODEL 2
REMARK VINA RESULT:      -7.1      3.188      5.510
REMARK  2 active torsions:
REMARK  status: ('A' for Active; 'I' for Inactive)
REMARK    1  A    between atoms: N1_7  and  C6_8 
REMARK    2  A    between atoms: C6_8  and  C10_13 
ROOT
HETATM    1  C6  UNL     1      24.606   2.046  51.307  1.00  0.00     0.066 C 
HETATM    2  C7  UNL     1      23.352   1.646  51.228  1.00  0.00     0.046 C 
HETATM    3  C8  UNL     1      22.370   2.184  50.254  1.00  0.00     0.062 C 
HETATM    4  C9  UNL     1      22.837   0.593  52.090  1.00  0.00     0.097 C 
HETATM    5  N2  UNL     1      22.440  -0.267  52.791  1.00  0.00    -0.192 NA
ENDROOT
BRANCH   1   6
HETATM    6  N1  UNL     1      25.266   3.003  50.548  1.00  0.00    -0.319 N 
HETATM    7  C2  UNL     1      25.046   4.415  50.518  1.00  0.00     0.048 C 
HETATM    8  C1  UNL     1      24.126   5.011  51.259  1.00  0.00     0.045 C 
HETATM    9  C3  UNL     1      25.961   5.058  49.587  1.00  0.00     0.050 C 
HETATM   10 BR1  UNL     1      25.876   6.893  49.050  1.00  0.00    -0.048 Br
HETATM   11  C4  UNL     1      26.753   4.068  49.288  1.00  0.00     0.013 C 
HETATM   12  C5  UNL     1      26.340   2.876  49.595  1.00  0.00     0.111 C 
ENDBRANCH   1   6
BRANCH   1  13
HETATM   13  C10 UNL     1      25.457   1.444  52.351  1.00  0.00    -0.006 A 
HETATM   14  C11 UNL     1      25.641   2.181  53.509  1.00  0.00     0.014 A 
HETATM   15  C12 UNL     1      26.429   1.611  54.508  1.00  0.00     0.002 A 
HETATM   16  C13 UNL     1      26.978   0.352  54.291  1.00  0.00     0.023 A 
HETATM   17  C14 UNL     1      26.790  -0.383  53.128  1.00  0.00     0.045 A 
HETATM   18  C15 UNL     1      27.340  -1.664  52.889  1.00  0.00     0.099 C 
HETATM   19  C16 UNL     1      26.009   0.198  52.154  1.00  0.00     0.036 A 
HETATM   20  N3  UNL     1      27.778  -2.710  52.696  1.00  0.00    -0.191 NA
ENDBRANCH   1  13
TORSDOF 2
ENDMDL
MODEL 3
REMARK VINA RESULT:      -7.1      3.184      5.523
REMARK  2 active torsions:
REMARK  status: ('A' for Active; 'I' for Inactive)
REMARK    1  A    between atoms: N1_7  and  C6_8 
REMARK    2  A    between atoms: C6_8  and  C10_13 
ROOT
HETATM    1  C6  UNL     1      21.994   0.431  52.623  1.00  0.00     0.066 C 
HETATM    2  C7  UNL     1      21.355  -0.281  53.531  1.00  0.00     0.046 C 
HETATM    3  C8  UNL     1      19.901  -0.573  53.481  1.00  0.00     0.062 C 
HETATM    4  C9  UNL     1      22.056  -0.877  54.657  1.00  0.00     0.097 C 
HETATM    5  N2  UNL     1      22.641  -1.358  55.559  1.00  0.00    -0.192 NA
ENDROOT
BRANCH   1   6
HETATM    6  N1  UNL     1      21.495   1.036  51.477  1.00  0.00    -0.319 N 
HETATM    7  C2  UNL     1      20.758   2.257  51.371  1.00  0.00     0.048 C 
HETATM    8  C1  UNL     1      20.446   2.997  52.422  1.00  0.00     0.045 C 
HETATM    9  C3  UNL     1      20.428   2.538  49.982  1.00  0.00     0.050 C 
HETATM   10 BR1  UNL     1      19.259   3.933  49.390  1.00  0.00    -0.048 Br
HETATM   11  C4  UNL     1      21.121   1.623  49.369  1.00  0.00     0.013 C 
HETATM   12  C5  UNL     1      21.565   0.642  50.093  1.00  0.00     0.111 C 
ENDBRANCH   1   6
BRANCH   1  13
HETATM   13  C10 UNL     1      23.436   0.669  52.824  1.00  0.00    -0.006 A 
HETATM   14  C11 UNL     1      23.825   1.974  53.076  1.00  0.00     0.014 A 
HETATM   15  C12 UNL     1      25.184   2.204  53.286  1.00  0.00     0.002 A 
HETATM   16  C13 UNL     1      26.062   1.127  53.231  1.00  0.00     0.023 A 
HETATM   17  C14 UNL     1      25.666  -0.180  52.978  1.00  0.00     0.045 A 
HETATM   18  C15 UNL     1      26.545  -1.288  52.919  1.00  0.00     0.099 C 
HETATM   19  C16 UNL     1      24.320  -0.385  52.773  1.00  0.00     0.036 A 
HETATM   20  N3  UNL     1      27.254  -2.192  52.879  1.00  0.00    -0.191 NA
ENDBRANCH   1  13
TORSDOF 2
ENDMDL
MODEL 4
REMARK VINA RESULT:      -7.0      1.458      2.025
REMARK  2 active torsions:
REMARK  status: ('A' for Active; 'I' for Inactive)
REMARK    1  A    between atoms: N1_7  and  C6_8 
REMARK    2  A    between atoms: C6_8  and  C10_13 
ROOT
HETATM    1  C6  UNL     1      23.899  -0.153  53.527  1.00  0.00     0.066 C 
HETATM    2  C7  UNL     1      23.088  -0.587  54.472  1.00  0.00     0.046 C 
HETATM    3  C8  UNL     1      23.479  -1.570  55.512  1.00  0.00     0.062 C 
HETATM    4  C9  UNL     1      21.726  -0.090  54.588  1.00  0.00     0.097 C 
HETATM    5  N2  UNL     1      20.628   0.329  54.671  1.00  0.00    -0.192 NA
ENDROOT
BRANCH   1   6
HETATM    6  N1  UNL     1      25.226  -0.489  53.294  1.00  0.00    -0.319 N 
HETATM    7  C2  UNL     1      26.396   0.036  53.925  1.00  0.00     0.048 C 
HETATM    8  C1  UNL     1      26.346   0.966  54.864  1.00  0.00     0.045 C 
HETATM    9  C3  UNL     1      27.594  -0.593  53.391  1.00  0.00     0.050 C 
HETATM   10 BR1  UNL     1      29.388  -0.043  53.768  1.00  0.00    -0.048 Br
HETATM   11  C4  UNL     1      27.077  -1.540  52.662  1.00  0.00     0.013 C 
HETATM   12  C5  UNL     1      25.813  -1.439  52.383  1.00  0.00     0.111 C 
ENDBRANCH   1   6
BRANCH   1  13
HETATM   13  C10 UNL     1      23.359   0.800  52.539  1.00  0.00    -0.006 A 
HETATM   14  C11 UNL     1      22.547   0.278  51.546  1.00  0.00     0.014 A 
HETATM   15  C12 UNL     1      22.017   1.175  50.620  1.00  0.00     0.002 A 
HETATM   16  C13 UNL     1      22.328   2.525  50.742  1.00  0.00     0.023 A 
HETATM   17  C14 UNL     1      23.142   3.043  51.740  1.00  0.00     0.045 A 
HETATM   18  C15 UNL     1      23.470   4.413  51.879  1.00  0.00     0.099 C 
HETATM   19  C16 UNL     1      23.656   2.141  52.644  1.00  0.00     0.036 A 
HETATM   20  N3  UNL     1      23.730   5.526  52.001  1.00  0.00    -0.191 NA
ENDBRANCH   1  13
TORSDOF 2
ENDMDL
MODEL 5
REMARK VINA RESULT:      -6.7      2.935      5.564
REMARK  2 active torsions:
REMARK  status: ('A' for Active; 'I' for Inactive)
REMARK    1  A    between atoms: N1_7  and  C6_8 
REMARK    2  A    between atoms: C6_8  and  C10_13 
ROOT
HETATM    1  C6  UNL     1      22.948   0.796  53.142  1.00  0.00     0.066 C 
HETATM    2  C7  UNL     1      22.154   0.231  54.031  1.00  0.00     0.046 C 
HETATM    3  C8  UNL     1      20.718   0.567  54.191  1.00  0.00     0.062 C 
HETATM    4  C9  UNL     1      22.635  -0.818  54.916  1.00  0.00     0.097 C 
HETATM    5  N2  UNL     1      23.040  -1.672  55.620  1.00  0.00    -0.192 NA
ENDROOT
BRANCH   1   6
HETATM    6  N1  UNL     1      22.650   1.777  52.205  1.00  0.00    -0.319 N 
HETATM    7  C2  UNL     1      22.016   1.621  50.933  1.00  0.00     0.048 C 
HETATM    8  C1  UNL     1      21.616   0.448  50.472  1.00  0.00     0.045 C 
HETATM    9  C3  UNL     1      21.887   2.906  50.263  1.00  0.00     0.050 C 
HETATM   10 BR1  UNL     1      21.316   3.151  48.453  1.00  0.00    -0.048 Br
HETATM   11  C4  UNL     1      22.251   3.722  51.211  1.00  0.00     0.013 C 
HETATM   12  C5  UNL     1      22.873   3.200  52.224  1.00  0.00     0.111 C 
ENDBRANCH   1   6
BRANCH   1  13
HETATM   13  C10 UNL     1      24.365   0.385  53.123  1.00  0.00    -0.006 A 
HETATM   14  C11 UNL     1      24.634  -0.912  52.718  1.00  0.00     0.014 A 
HETATM   15  C12 UNL     1      25.972  -1.302  52.679  1.00  0.00     0.002 A 
HETATM   16  C13 UNL     1      26.948  -0.381  53.044  1.00  0.00     0.023 A 
HETATM   17  C14 UNL     1      26.673   0.918  53.449  1.00  0.00     0.045 A 
HETATM   18  C15 UNL     1      27.653   1.868  53.824  1.00  0.00     0.099 C 
HETATM   19  C16 UNL     1      25.346   1.283  53.481  1.00  0.00     0.036 A 
HETATM   20  N3  UNL     1      28.447   2.645  54.119  1.00  0.00    -0.191 NA
ENDBRANCH   1  13
TORSDOF 2
ENDMDL
MODEL 6
REMARK VINA RESULT:      -6.6      3.049      5.544
REMARK  2 active torsions:
REMARK  status: ('A' for Active; 'I' for Inactive)
REMARK    1  A    between atoms: N1_7  and  C6_8 
REMARK    2  A    between atoms: C6_8  and  C10_13 
ROOT
HETATM    1  C6  UNL     1      24.656   2.232  51.957  1.00  0.00     0.066 C 
HETATM    2  C7  UNL     1      25.826   1.649  52.132  1.00  0.00     0.046 C 
HETATM    3  C8  UNL     1      27.119   2.378  52.155  1.00  0.00     0.062 C 
HETATM    4  C9  UNL     1      25.933   0.216  52.357  1.00  0.00     0.097 C 
HETATM    5  N2  UNL     1      25.999  -0.945  52.546  1.00  0.00    -0.192 NA
ENDROOT
BRANCH   1   6
HETATM    6  N1  UNL     1      24.371   3.577  51.766  1.00  0.00    -0.319 N 
HETATM    7  C2  UNL     1      24.639   4.385  50.618  1.00  0.00     0.048 C 
HETATM    8  C1  UNL     1      25.231   3.912  49.533  1.00  0.00     0.045 C 
HETATM    9  C3  UNL     1      24.173   5.747  50.827  1.00  0.00     0.050 C 
HETATM   10 BR1  UNL     1      24.525   7.222  49.660  1.00  0.00    -0.048 Br
HETATM   11  C4  UNL     1      23.516   5.619  51.944  1.00  0.00     0.013 C 
HETATM   12  C5  UNL     1      23.735   4.540  52.631  1.00  0.00     0.111 C 
ENDBRANCH   1   6
BRANCH   1  13
HETATM   13  C10 UNL     1      23.457   1.373  51.921  1.00  0.00    -0.006 A 
HETATM   14  C11 UNL     1      22.712   1.388  50.753  1.00  0.00     0.014 A 
HETATM   15  C12 UNL     1      21.588   0.565  50.705  1.00  0.00     0.002 A 
HETATM   16  C13 UNL     1      21.281  -0.215  51.816  1.00  0.00     0.023 A 
HETATM   17  C14 UNL     1      22.032  -0.226  52.983  1.00  0.00     0.045 A 
HETATM   18  C15 UNL     1      21.734  -1.012  54.122  1.00  0.00     0.099 C 
HETATM   19  C16 UNL     1      23.137   0.594  53.011  1.00  0.00     0.036 A 
HETATM   20  N3  UNL     1      21.501  -1.656  55.045  1.00  0.00    -0.191 NA
ENDBRANCH   1  13
TORSDOF 2
ENDMDL
MODEL 7
REMARK VINA RESULT:      -6.6      3.403      6.321
REMARK  2 active torsions:
REMARK  status: ('A' for Active; 'I' for Inactive)
REMARK    1  A    between atoms: N1_7  and  C6_8 
REMARK    2  A    between atoms: C6_8  and  C10_13 
ROOT
HETATM    1  C6  UNL     1      23.641   2.691  51.059  1.00  0.00     0.066 C 
HETATM    2  C7  UNL     1      24.157   3.205  49.960  1.00  0.00     0.046 C 
HETATM    3  C8  UNL     1      23.351   3.794  48.863  1.00  0.00     0.062 C 
HETATM    4  C9  UNL     1      25.596   3.265  49.756  1.00  0.00     0.097 C 
HETATM    5  N2  UNL     1      26.765   3.312  49.611  1.00  0.00    -0.192 NA
ENDROOT
BRANCH   1   6
HETATM    6  N1  UNL     1      22.307   2.586  51.430  1.00  0.00    -0.319 N 
HETATM    7  C2  UNL     1      21.375   1.554  51.100  1.00  0.00     0.048 C 
HETATM    8  C1  UNL     1      21.697   0.512  50.351  1.00  0.00     0.045 C 
HETATM    9  C3  UNL     1      20.076   1.824  51.698  1.00  0.00     0.050 C 
HETATM   10 BR1  UNL     1      18.473   0.843  51.337  1.00  0.00    -0.048 Br
HETATM   11  C4  UNL     1      20.358   2.837  52.465  1.00  0.00     0.013 C 
HETATM   12  C5  UNL     1      21.480   3.448  52.238  1.00  0.00     0.111 C 
ENDBRANCH   1   6
BRANCH   1  13
HETATM   13  C10 UNL     1      24.567   2.107  52.049  1.00  0.00    -0.006 A 
HETATM   14  C11 UNL     1      24.879   2.888  53.150  1.00  0.00     0.014 A 
HETATM   15  C12 UNL     1      25.738   2.336  54.098  1.00  0.00     0.002 A 
HETATM   16  C13 UNL     1      26.228   1.050  53.890  1.00  0.00     0.023 A 
HETATM   17  C14 UNL     1      25.911   0.272  52.785  1.00  0.00     0.045 A 
HETATM   18  C15 UNL     1      26.400  -1.036  52.557  1.00  0.00     0.099 C 
HETATM   19  C16 UNL     1      25.061   0.836  51.860  1.00  0.00     0.036 A 
HETATM   20  N3  UNL     1      26.787  -2.103  52.374  1.00  0.00    -0.191 NA
ENDBRANCH   1  13
TORSDOF 2
ENDMDL
MODEL 8
REMARK VINA RESULT:      -6.5      9.909     11.205
REMARK  2 active torsions:
REMARK  status: ('A' for Active; 'I' for Inactive)
REMARK    1  A    between atoms: N1_7  and  C6_8 
REMARK    2  A    between atoms: C6_8  and  C10_13 
ROOT
HETATM    1  C6  UNL     1      31.689   6.771  47.506  1.00  0.00     0.066 C 
HETATM    2  C7  UNL     1      32.350   7.551  48.338  1.00  0.00     0.046 C 
HETATM    3  C8  UNL     1      33.830   7.611  48.419  1.00  0.00     0.062 C 
HETATM    4  C9  UNL     1      31.656   8.462  49.236  1.00  0.00     0.097 C 
HETATM    5  N2  UNL     1      31.077   9.198  49.951  1.00  0.00    -0.192 NA
ENDROOT
BRANCH   1   6
HETATM    6  N1  UNL     1      32.186   5.878  46.566  1.00  0.00    -0.319 N 
HETATM    7  C2  UNL     1      32.573   6.139  45.215  1.00  0.00     0.048 C 
HETATM    8  C1  UNL     1      32.494   7.341  44.668  1.00  0.00     0.045 C 
HETATM    9  C3  UNL     1      33.048   4.923  44.572  1.00  0.00     0.050 C 
HETATM   10 BR1  UNL     1      33.447   4.747  42.709  1.00  0.00    -0.048 Br
HETATM   11  C4  UNL     1      33.098   4.107  45.585  1.00  0.00     0.013 C 
HETATM   12  C5  UNL     1      32.462   4.466  46.658  1.00  0.00     0.111 C 
ENDBRANCH   1   6
BRANCH   1  13
HETATM   13  C10 UNL     1      30.215   6.793  47.564  1.00  0.00    -0.006 A 
HETATM   14  C11 UNL     1      29.581   7.859  46.946  1.00  0.00     0.014 A 
HETATM   15  C12 UNL     1      28.187   7.876  46.981  1.00  0.00     0.002 A 
HETATM   16  C13 UNL     1      27.520   6.839  47.624  1.00  0.00     0.023 A 
HETATM   17  C14 UNL     1      28.161   5.773  48.241  1.00  0.00     0.045 A 
HETATM   18  C15 UNL     1      27.499   4.709  48.899  1.00  0.00     0.099 C 
HETATM   19  C16 UNL     1      29.537   5.775  48.196  1.00  0.00     0.036 A 
HETATM   20  N3  UNL     1      26.964   3.839  49.426  1.00  0.00    -0.191 NA
ENDBRANCH   1  13
TORSDOF 2
ENDMDL
MODEL 9
REMARK VINA RESULT:      -6.5      3.311      5.169
REMARK  2 active torsions:
REMARK  status: ('A' for Active; 'I' for Inactive)
REMARK    1  A    between atoms: N1_7  and  C6_8 
REMARK    2  A    between atoms: C6_8  and  C10_13 
ROOT
HETATM    1  C6  UNL     1      23.515   2.853  51.836  1.00  0.00     0.066 C 
HETATM    2  C7  UNL     1      24.049   2.054  52.739  1.00  0.00     0.046 C 
HETATM    3  C8  UNL     1      25.325   2.334  53.441  1.00  0.00     0.062 C 
HETATM    4  C9  UNL     1      23.387   0.825  53.148  1.00  0.00     0.097 C 
HETATM    5  N2  UNL     1      22.833  -0.163  53.473  1.00  0.00    -0.192 NA
ENDROOT
BRANCH   1   6
HETATM    6  N1  UNL     1      23.986   4.068  51.358  1.00  0.00    -0.319 N 
HETATM    7  C2  UNL     1      24.912   4.301  50.294  1.00  0.00     0.048 C 
HETATM    8  C1  UNL     1      25.465   3.320  49.599  1.00  0.00     0.045 C 
HETATM    9  C3  UNL     1      25.134   5.727  50.109  1.00  0.00     0.050 C 
HETATM   10 BR1  UNL     1      26.462   6.495  48.965  1.00  0.00    -0.048 Br
HETATM   11  C4  UNL     1      24.226   6.227  50.897  1.00  0.00     0.013 C 
HETATM   12  C5  UNL     1      23.696   5.420  51.765  1.00  0.00     0.111 C 
ENDBRANCH   1   6
BRANCH   1  13
HETATM   13  C10 UNL     1      22.257   2.425  51.194  1.00  0.00    -0.006 A 
HETATM   14  C11 UNL     1      22.358   1.474  50.193  1.00  0.00     0.014 A 
HETATM   15  C12 UNL     1      21.171   1.050  49.595  1.00  0.00     0.002 A 
HETATM   16  C13 UNL     1      19.969   1.599  50.031  1.00  0.00     0.023 A 
HETATM   17  C14 UNL     1      19.874   2.552  51.035  1.00  0.00     0.045 A 
HETATM   18  C15 UNL     1      18.661   3.121  51.491  1.00  0.00     0.099 C 
HETATM   19  C16 UNL     1      21.057   2.957  51.612  1.00  0.00     0.036 A 
HETATM   20  N3  UNL     1      17.676   3.578  51.870  1.00  0.00    -0.191 NA
ENDBRANCH   1  13
TORSDOF 2
ENDMDL
