MODEL 1
REMARK VINA RESULT:      -8.7      0.000      0.000
REMARK  6 active torsions:
REMARK  status: ('A' for Active; 'I' for Inactive)
REMARK    1  A    between atoms: C3_3  and  N1_4 
REMARK    2  A    between atoms: N1_4  and  C4_5 
REMARK    3  A    between atoms: C4_5  and  C5_6 
REMARK    4  A    between atoms: C12_13  and  N2_14 
REMARK    5  A    between atoms: N2_14  and  C13_15 
REMARK    6  A    between atoms: C16_19  and  C17_20 
ROOT
HETATM    1  C1  UNL     1      21.509  -0.424  54.749  1.00  0.00     0.004 A 
HETATM    2  C2  UNL     1      22.782  -0.947  54.673  1.00  0.00     0.029 A 
HETATM    3  C3  UNL     1      23.649  -0.599  53.662  1.00  0.00     0.030 A 
HETATM    4  C11 UNL     1      23.184   0.298  52.731  1.00  0.00     0.059 A 
HETATM    5  C12 UNL     1      21.935   0.871  52.725  1.00  0.00     0.051 A 
HETATM    6  C22 UNL     1      21.134   0.468  53.768  1.00  0.00     0.030 A 
ENDROOT
BRANCH   5   7
HETATM    7  N2  UNL     1      21.578   1.785  51.702  1.00  0.00    -0.188 N 
HETATM    8  H18 UNL     1      20.893   1.449  50.990  1.00  0.00     0.184 HD
BRANCH   7   9
HETATM    9  C13 UNL     1      22.055   3.109  51.539  1.00  0.00     0.727 A 
HETATM   10  N3  UNL     1      21.460   4.242  51.928  1.00  0.00    -0.075 NA
HETATM   11  C14 UNL     1      21.949   5.473  51.752  1.00  0.00     0.139 A 
HETATM   12  C15 UNL     1      23.158   5.639  51.125  1.00  0.00     0.053 A 
HETATM   13  C16 UNL     1      23.785   4.507  50.719  1.00  0.00     0.089 A 
HETATM   14  N5  UNL     1      23.235   3.306  50.929  1.00  0.00    -0.062 NA
BRANCH  13  15
HETATM   15  C17 UNL     1      25.068   4.558  50.046  1.00  0.00     0.011 A 
HETATM   16  C18 UNL     1      25.465   5.749  49.444  1.00  0.00     0.017 A 
HETATM   17  C19 UNL     1      26.684   5.887  48.775  1.00  0.00     0.020 A 
HETATM   18  C20 UNL     1      27.505   4.775  48.729  1.00  0.00     0.116 A 
HETATM   19  N4  UNL     1      27.140   3.617  49.306  1.00  0.00    -0.272 NA
HETATM   20  C21 UNL     1      25.951   3.529  49.941  1.00  0.00     0.130 A 
ENDBRANCH  13  15
ENDBRANCH   7   9
ENDBRANCH   5   7
BRANCH   3  21
HETATM   21  N1  UNL     1      24.961  -1.131  53.543  1.00  0.00    -0.389 N 
HETATM   22  H3  UNL     1      25.071  -2.182  53.668  1.00  0.00     0.159 HD
BRANCH  21  23
HETATM   23  C4  UNL     1      26.167  -0.394  53.268  1.00  0.00     0.124 C 
BRANCH  23  24
HETATM   24  C5  UNL     1      26.575   0.571  54.347  1.00  0.00     0.003 C 
HETATM   25  C6  UNL     1      26.565   2.004  53.861  1.00  0.00     0.006 C 
HETATM   26  C7  UNL     1      27.771   2.370  53.061  1.00  0.00     0.000 C 
HETATM   27  C8  UNL     1      29.009   2.097  53.869  1.00  0.00     0.000 C 
HETATM   28  C9  UNL     1      29.067   0.576  54.044  1.00  0.00     0.000 C 
HETATM   29  C10 UNL     1      27.917   0.184  54.923  1.00  0.00     0.006 C 
ENDBRANCH  23  24
ENDBRANCH  21  23
ENDBRANCH   3  21
TORSDOF 6
ENDMDL
MODEL 2
REMARK VINA RESULT:      -8.5      1.437      2.120
REMARK  6 active torsions:
REMARK  status: ('A' for Active; 'I' for Inactive)
REMARK    1  A    between atoms: C3_3  and  N1_4 
REMARK    2  A    between atoms: N1_4  and  C4_5 
REMARK    3  A    between atoms: C4_5  and  C5_6 
REMARK    4  A    between atoms: C12_13  and  N2_14 
REMARK    5  A    between atoms: N2_14  and  C13_15 
REMARK    6  A    between atoms: C16_19  and  C17_20 
ROOT
HETATM    1  C1  UNL     1      21.624  -1.340  54.898  1.00  0.00     0.004 A 
HETATM    2  C2  UNL     1      22.996  -1.420  55.001  1.00  0.00     0.029 A 
HETATM    3  C3  UNL     1      23.826  -0.591  54.280  1.00  0.00     0.030 A 
HETATM    4  C11 UNL     1      23.219   0.323  53.454  1.00  0.00     0.059 A 
HETATM    5  C12 UNL     1      21.863   0.477  53.287  1.00  0.00     0.051 A 
HETATM    6  C22 UNL     1      21.109  -0.391  54.043  1.00  0.00     0.030 A 
ENDROOT
BRANCH   5   7
HETATM    7  N2  UNL     1      21.364   1.462  52.399  1.00  0.00    -0.188 N 
HETATM    8  H18 UNL     1      20.650   2.120  52.781  1.00  0.00     0.184 HD
BRANCH   7   9
HETATM    9  C13 UNL     1      21.728   1.649  51.043  1.00  0.00     0.727 A 
HETATM   10  N3  UNL     1      21.165   1.093  49.965  1.00  0.00    -0.075 NA
HETATM   11  C14 UNL     1      21.545   1.298  48.700  1.00  0.00     0.139 A 
HETATM   12  C15 UNL     1      22.595   2.142  48.436  1.00  0.00     0.053 A 
HETATM   13  C16 UNL     1      23.186   2.720  49.510  1.00  0.00     0.089 A 
HETATM   14  N5  UNL     1      22.752   2.468  50.750  1.00  0.00    -0.062 NA
BRANCH  13  15
HETATM   15  C17 UNL     1      24.303   3.630  49.355  1.00  0.00     0.011 A 
HETATM   16  C18 UNL     1      24.061   4.921  48.896  1.00  0.00     0.017 A 
HETATM   17  C19 UNL     1      25.077   5.863  48.716  1.00  0.00     0.020 A 
HETATM   18  C20 UNL     1      26.366   5.461  49.018  1.00  0.00     0.116 A 
HETATM   19  N4  UNL     1      26.620   4.218  49.464  1.00  0.00    -0.272 NA
HETATM   20  C21 UNL     1      25.606   3.341  49.621  1.00  0.00     0.130 A 
ENDBRANCH  13  15
ENDBRANCH   7   9
ENDBRANCH   5   7
BRANCH   3  21
HETATM   21  N1  UNL     1      25.243  -0.656  54.347  1.00  0.00    -0.389 N 
HETATM   22  H3  UNL     1      25.683  -1.625  54.363  1.00  0.00     0.159 HD
BRANCH  21  23
HETATM   23  C4  UNL     1      26.155   0.456  54.395  1.00  0.00     0.124 C 
BRANCH  23  24
HETATM   24  C5  UNL     1      27.021   0.615  53.176  1.00  0.00     0.003 C 
HETATM   25  C6  UNL     1      27.613  -0.701  52.723  1.00  0.00     0.006 C 
HETATM   26  C7  UNL     1      28.799  -1.127  53.525  1.00  0.00     0.000 C 
HETATM   27  C8  UNL     1      29.840  -0.043  53.491  1.00  0.00     0.000 C 
HETATM   28  C9  UNL     1      29.230   1.145  54.244  1.00  0.00     0.000 C 
HETATM   29  C10 UNL     1      28.088   1.657  53.417  1.00  0.00     0.006 C 
ENDBRANCH  23  24
ENDBRANCH  21  23
ENDBRANCH   3  21
TORSDOF 6
ENDMDL
MODEL 3
REMARK VINA RESULT:      -8.4      3.614      8.104
REMARK  6 active torsions:
REMARK  status: ('A' for Active; 'I' for Inactive)
REMARK    1  A    between atoms: C3_3  and  N1_4 
REMARK    2  A    between atoms: N1_4  and  C4_5 
REMARK    3  A    between atoms: C4_5  and  C5_6 
REMARK    4  A    between atoms: C12_13  and  N2_14 
REMARK    5  A    between atoms: N2_14  and  C13_15 
REMARK    6  A    between atoms: C16_19  and  C17_20 
ROOT
HETATM    1  C1  UNL     1      27.235   7.644  48.477  1.00  0.00     0.004 A 
HETATM    2  C2  UNL     1      28.569   7.664  48.130  1.00  0.00     0.029 A 
HETATM    3  C3  UNL     1      29.312   6.508  48.041  1.00  0.00     0.030 A 
HETATM    4  C11 UNL     1      28.659   5.332  48.316  1.00  0.00     0.059 A 
HETATM    5  C12 UNL     1      27.336   5.213  48.670  1.00  0.00     0.051 A 
HETATM    6  C22 UNL     1      26.669   6.415  48.734  1.00  0.00     0.030 A 
ENDROOT
BRANCH   5   7
HETATM    7  N2  UNL     1      26.782   3.935  48.928  1.00  0.00    -0.188 N 
HETATM    8  H18 UNL     1      26.810   3.244  48.147  1.00  0.00     0.184 HD
BRANCH   7   9
HETATM    9  C13 UNL     1      26.189   3.493  50.137  1.00  0.00     0.727 A 
HETATM   10  N3  UNL     1      24.943   3.724  50.565  1.00  0.00    -0.075 NA
HETATM   11  C14 UNL     1      24.427   3.286  51.717  1.00  0.00     0.139 A 
HETATM   12  C15 UNL     1      25.200   2.532  52.564  1.00  0.00     0.053 A 
HETATM   13  C16 UNL     1      26.469   2.282  52.156  1.00  0.00     0.089 A 
HETATM   14  N5  UNL     1      26.919   2.753  50.988  1.00  0.00    -0.062 NA
BRANCH  13  15
HETATM   15  C17 UNL     1      27.378   1.496  52.967  1.00  0.00     0.011 A 
HETATM   16  C18 UNL     1      27.387   0.112  52.818  1.00  0.00     0.017 A 
HETATM   17  C19 UNL     1      28.230  -0.722  53.557  1.00  0.00     0.020 A 
HETATM   18  C20 UNL     1      29.078  -0.113  54.464  1.00  0.00     0.116 A 
HETATM   19  N4  UNL     1      29.085   1.223  54.622  1.00  0.00    -0.272 NA
HETATM   20  C21 UNL     1      28.251   1.989  53.886  1.00  0.00     0.130 A 
ENDBRANCH  13  15
ENDBRANCH   7   9
ENDBRANCH   5   7
BRANCH   3  21
HETATM   21  N1  UNL     1      30.692   6.492  47.704  1.00  0.00    -0.389 N 
HETATM   22  H3  UNL     1      31.065   7.321  47.150  1.00  0.00     0.159 HD
BRANCH  21  23
HETATM   23  C4  UNL     1      31.647   5.467  48.033  1.00  0.00     0.124 C 
BRANCH  23  24
HETATM   24  C5  UNL     1      32.404   4.910  46.859  1.00  0.00     0.003 C 
HETATM   25  C6  UNL     1      32.280   3.405  46.764  1.00  0.00     0.006 C 
HETATM   26  C7  UNL     1      33.180   2.674  47.705  1.00  0.00     0.000 C 
HETATM   27  C8  UNL     1      34.602   3.101  47.471  1.00  0.00     0.000 C 
HETATM   28  C9  UNL     1      34.669   4.575  47.885  1.00  0.00     0.000 C 
HETATM   29  C10 UNL     1      33.847   5.353  46.901  1.00  0.00     0.006 C 
ENDBRANCH  23  24
ENDBRANCH  21  23
ENDBRANCH   3  21
TORSDOF 6
ENDMDL
MODEL 4
REMARK VINA RESULT:      -8.4      1.955      5.838
REMARK  6 active torsions:
REMARK  status: ('A' for Active; 'I' for Inactive)
REMARK    1  A    between atoms: C3_3  and  N1_4 
REMARK    2  A    between atoms: N1_4  and  C4_5 
REMARK    3  A    between atoms: C4_5  and  C5_6 
REMARK    4  A    between atoms: C12_13  and  N2_14 
REMARK    5  A    between atoms: N2_14  and  C13_15 
REMARK    6  A    between atoms: C16_19  and  C17_20 
ROOT
HETATM    1  C1  UNL     1      23.913   5.448  48.701  1.00  0.00     0.004 A 
HETATM    2  C2  UNL     1      24.993   5.218  49.527  1.00  0.00     0.029 A 
HETATM    3  C3  UNL     1      25.239   3.977  50.069  1.00  0.00     0.030 A 
HETATM    4  C11 UNL     1      24.355   2.976  49.746  1.00  0.00     0.059 A 
HETATM    5  C12 UNL     1      23.254   3.110  48.934  1.00  0.00     0.051 A 
HETATM    6  C22 UNL     1      23.083   4.380  48.436  1.00  0.00     0.030 A 
ENDROOT
BRANCH   5   7
HETATM    7  N2  UNL     1      22.419   1.993  48.680  1.00  0.00    -0.188 N 
HETATM    8  H18 UNL     1      22.575   1.485  47.782  1.00  0.00     0.184 HD
BRANCH   7   9
HETATM    9  C13 UNL     1      21.391   1.492  49.515  1.00  0.00     0.727 A 
HETATM   10  N3  UNL     1      20.072   1.532  49.296  1.00  0.00    -0.075 NA
HETATM   11  C14 UNL     1      19.136   1.045  50.115  1.00  0.00     0.139 A 
HETATM   12  C15 UNL     1      19.510   0.446  51.292  1.00  0.00     0.053 A 
HETATM   13  C16 UNL     1      20.841   0.392  51.542  1.00  0.00     0.089 A 
HETATM   14  N5  UNL     1      21.723   0.900  50.674  1.00  0.00    -0.062 NA
BRANCH  13  15
HETATM   15  C17 UNL     1      21.354  -0.218  52.753  1.00  0.00     0.011 A 
HETATM   16  C18 UNL     1      22.725  -0.182  52.995  1.00  0.00     0.017 A 
HETATM   17  C19 UNL     1      23.306  -0.744  54.134  1.00  0.00     0.020 A 
HETATM   18  C20 UNL     1      22.454  -1.352  55.039  1.00  0.00     0.116 A 
HETATM   19  N4  UNL     1      21.127  -1.395  54.824  1.00  0.00    -0.272 NA
HETATM   20  C21 UNL     1      20.611  -0.840  53.707  1.00  0.00     0.130 A 
ENDBRANCH  13  15
ENDBRANCH   7   9
ENDBRANCH   5   7
BRANCH   3  21
HETATM   21  N1  UNL     1      26.330   3.708  50.937  1.00  0.00    -0.389 N 
HETATM   22  H3  UNL     1      26.807   4.545  51.390  1.00  0.00     0.159 HD
BRANCH  21  23
HETATM   23  C4  UNL     1      26.864   2.414  51.273  1.00  0.00     0.124 C 
BRANCH  23  24
HETATM   24  C5  UNL     1      26.635   1.988  52.697  1.00  0.00     0.003 C 
HETATM   25  C6  UNL     1      27.851   2.225  53.564  1.00  0.00     0.006 C 
HETATM   26  C7  UNL     1      28.906   1.179  53.409  1.00  0.00     0.000 C 
HETATM   27  C8  UNL     1      28.314  -0.173  53.691  1.00  0.00     0.000 C 
HETATM   28  C9  UNL     1      27.302  -0.428  52.569  1.00  0.00     0.000 C 
HETATM   29  C10 UNL     1      26.179   0.549  52.752  1.00  0.00     0.006 C 
ENDBRANCH  23  24
ENDBRANCH  21  23
ENDBRANCH   3  21
TORSDOF 6
ENDMDL
MODEL 5
REMARK VINA RESULT:      -8.4      1.840      5.912
REMARK  6 active torsions:
REMARK  status: ('A' for Active; 'I' for Inactive)
REMARK    1  A    between atoms: C3_3  and  N1_4 
REMARK    2  A    between atoms: N1_4  and  C4_5 
REMARK    3  A    between atoms: C4_5  and  C5_6 
REMARK    4  A    between atoms: C12_13  and  N2_14 
REMARK    5  A    between atoms: N2_14  and  C13_15 
REMARK    6  A    between atoms: C16_19  and  C17_20 
ROOT
HETATM    1  C1  UNL     1      21.987   1.745  47.923  1.00  0.00     0.004 A 
HETATM    2  C2  UNL     1      22.345   3.025  48.289  1.00  0.00     0.029 A 
HETATM    3  C3  UNL     1      22.147   3.494  49.568  1.00  0.00     0.030 A 
HETATM    4  C11 UNL     1      21.575   2.624  50.463  1.00  0.00     0.059 A 
HETATM    5  C12 UNL     1      21.186   1.334  50.190  1.00  0.00     0.051 A 
HETATM    6  C22 UNL     1      21.420   0.947  48.891  1.00  0.00     0.030 A 
ENDROOT
BRANCH   5   7
HETATM    7  N2  UNL     1      20.605   0.537  51.208  1.00  0.00    -0.188 N 
HETATM    8  H18 UNL     1      19.596   0.297  51.098  1.00  0.00     0.184 HD
BRANCH   7   9
HETATM    9  C13 UNL     1      21.249   0.031  52.364  1.00  0.00     0.727 A 
HETATM   10  N3  UNL     1      20.676  -0.538  53.431  1.00  0.00    -0.075 NA
HETATM   11  C14 UNL     1      21.326  -1.002  54.503  1.00  0.00     0.139 A 
HETATM   12  C15 UNL     1      22.694  -0.909  54.559  1.00  0.00     0.053 A 
HETATM   13  C16 UNL     1      23.302  -0.336  53.492  1.00  0.00     0.089 A 
HETATM   14  N5  UNL     1      22.587   0.106  52.451  1.00  0.00    -0.062 NA
BRANCH  13  15
HETATM   15  C17 UNL     1      24.742  -0.185  53.439  1.00  0.00     0.011 A 
HETATM   16  C18 UNL     1      25.309   0.495  52.364  1.00  0.00     0.017 A 
HETATM   17  C19 UNL     1      26.686   0.687  52.232  1.00  0.00     0.020 A 
HETATM   18  C20 UNL     1      27.491   0.169  53.230  1.00  0.00     0.116 A 
HETATM   19  N4  UNL     1      26.963  -0.490  54.277  1.00  0.00    -0.272 NA
HETATM   20  C21 UNL     1      25.625  -0.653  54.361  1.00  0.00     0.130 A 
ENDBRANCH  13  15
ENDBRANCH   7   9
ENDBRANCH   5   7
BRANCH   3  21
HETATM   21  N1  UNL     1      22.487   4.812  49.977  1.00  0.00    -0.389 N 
HETATM   22  H3  UNL     1      21.878   5.259  50.726  1.00  0.00     0.159 HD
BRANCH  21  23
HETATM   23  C4  UNL     1      23.576   5.613  49.481  1.00  0.00     0.124 C 
BRANCH  23  24
HETATM   24  C5  UNL     1      24.820   5.575  50.324  1.00  0.00     0.003 C 
HETATM   25  C6  UNL     1      25.941   6.393  49.720  1.00  0.00     0.006 C 
HETATM   26  C7  UNL     1      26.656   5.694  48.611  1.00  0.00     0.000 C 
HETATM   27  C8  UNL     1      27.176   4.373  49.106  1.00  0.00     0.000 C 
HETATM   28  C9  UNL     1      25.937   3.523  49.407  1.00  0.00     0.000 C 
HETATM   29  C10 UNL     1      25.243   4.148  50.580  1.00  0.00     0.006 C 
ENDBRANCH  23  24
ENDBRANCH  21  23
ENDBRANCH   3  21
TORSDOF 6
ENDMDL
MODEL 6
REMARK VINA RESULT:      -8.1      3.284      8.327
REMARK  6 active torsions:
REMARK  status: ('A' for Active; 'I' for Inactive)
REMARK    1  A    between atoms: C3_3  and  N1_4 
REMARK    2  A    between atoms: N1_4  and  C4_5 
REMARK    3  A    between atoms: C4_5  and  C5_6 
REMARK    4  A    between atoms: C12_13  and  N2_14 
REMARK    5  A    between atoms: N2_14  and  C13_15 
REMARK    6  A    between atoms: C16_19  and  C17_20 
ROOT
HETATM    1  C1  UNL     1      26.268   7.073  48.599  1.00  0.00     0.004 A 
HETATM    2  C2  UNL     1      27.586   7.207  48.216  1.00  0.00     0.029 A 
HETATM    3  C3  UNL     1      28.450   6.135  48.205  1.00  0.00     0.030 A 
HETATM    4  C11 UNL     1      27.934   4.923  48.594  1.00  0.00     0.059 A 
HETATM    5  C12 UNL     1      26.639   4.693  48.991  1.00  0.00     0.051 A 
HETATM    6  C22 UNL     1      25.845   5.816  48.973  1.00  0.00     0.030 A 
ENDROOT
BRANCH   5   7
HETATM    7  N2  UNL     1      26.233   3.389  49.370  1.00  0.00    -0.188 N 
HETATM    8  H18 UNL     1      26.099   2.697  48.601  1.00  0.00     0.184 HD
BRANCH   7   9
HETATM    9  C13 UNL     1      25.986   2.923  50.684  1.00  0.00     0.727 A 
HETATM   10  N3  UNL     1      25.004   3.299  51.511  1.00  0.00    -0.075 NA
HETATM   11  C14 UNL     1      24.810   2.831  52.747  1.00  0.00     0.139 A 
HETATM   12  C15 UNL     1      25.664   1.884  53.255  1.00  0.00     0.053 A 
HETATM   13  C16 UNL     1      26.671   1.484  52.440  1.00  0.00     0.089 A 
HETATM   14  N5  UNL     1      26.804   1.996  51.212  1.00  0.00    -0.062 NA
BRANCH  13  15
HETATM   15  C17 UNL     1      27.634   0.488  52.868  1.00  0.00     0.011 A 
HETATM   16  C18 UNL     1      28.897   0.907  53.278  1.00  0.00     0.017 A 
HETATM   17  C19 UNL     1      29.886   0.017  53.705  1.00  0.00     0.020 A 
HETATM   18  C20 UNL     1      29.562  -1.327  53.709  1.00  0.00     0.116 A 
HETATM   19  N4  UNL     1      28.347  -1.751  53.318  1.00  0.00    -0.272 NA
HETATM   20  C21 UNL     1      27.423  -0.855  52.911  1.00  0.00     0.130 A 
ENDBRANCH  13  15
ENDBRANCH   7   9
ENDBRANCH   5   7
BRANCH   3  21
HETATM   21  N1  UNL     1      29.817   6.239  47.833  1.00  0.00    -0.389 N 
HETATM   22  H3  UNL     1      30.450   5.422  48.083  1.00  0.00     0.159 HD
BRANCH  21  23
HETATM   23  C4  UNL     1      30.441   7.341  47.149  1.00  0.00     0.124 C 
BRANCH  23  24
HETATM   24  C5  UNL     1      31.505   8.052  47.939  1.00  0.00     0.003 C 
HETATM   25  C6  UNL     1      31.035   8.409  49.332  1.00  0.00     0.006 C 
HETATM   26  C7  UNL     1      30.172   9.627  49.375  1.00  0.00     0.000 C 
HETATM   27  C8  UNL     1      30.908  10.783  48.755  1.00  0.00     0.000 C 
HETATM   28  C9  UNL     1      31.064  10.431  47.272  1.00  0.00     0.000 C 
HETATM   29  C10 UNL     1      32.002   9.264  47.187  1.00  0.00     0.006 C 
ENDBRANCH  23  24
ENDBRANCH  21  23
ENDBRANCH   3  21
TORSDOF 6
ENDMDL
MODEL 7
REMARK VINA RESULT:      -7.9      3.162      8.057
REMARK  6 active torsions:
REMARK  status: ('A' for Active; 'I' for Inactive)
REMARK    1  A    between atoms: C3_3  and  N1_4 
REMARK    2  A    between atoms: N1_4  and  C4_5 
REMARK    3  A    between atoms: C4_5  and  C5_6 
REMARK    4  A    between atoms: C12_13  and  N2_14 
REMARK    5  A    between atoms: N2_14  and  C13_15 
REMARK    6  A    between atoms: C16_19  and  C17_20 
ROOT
HETATM    1  C1  UNL     1      26.479   7.042  48.985  1.00  0.00     0.004 A 
HETATM    2  C2  UNL     1      27.739   7.087  48.428  1.00  0.00     0.029 A 
HETATM    3  C3  UNL     1      28.483   5.947  48.227  1.00  0.00     0.030 A 
HETATM    4  C11 UNL     1      27.908   4.759  48.607  1.00  0.00     0.059 A 
HETATM    5  C12 UNL     1      26.661   4.615  49.169  1.00  0.00     0.051 A 
HETATM    6  C22 UNL     1      25.987   5.803  49.334  1.00  0.00     0.030 A 
ENDROOT
BRANCH   5   7
HETATM    7  N2  UNL     1      26.183   3.328  49.518  1.00  0.00    -0.188 N 
HETATM    8  H18 UNL     1      25.731   2.773  48.759  1.00  0.00     0.184 HD
BRANCH   7   9
HETATM    9  C13 UNL     1      26.252   2.711  50.791  1.00  0.00     0.727 A 
HETATM   10  N3  UNL     1      27.320   2.607  51.589  1.00  0.00    -0.075 NA
HETATM   11  C14 UNL     1      27.338   2.013  52.786  1.00  0.00     0.139 A 
HETATM   12  C15 UNL     1      26.189   1.448  53.280  1.00  0.00     0.053 A 
HETATM   13  C16 UNL     1      25.089   1.538  52.492  1.00  0.00     0.089 A 
HETATM   14  N5  UNL     1      25.145   2.148  51.303  1.00  0.00    -0.062 NA
BRANCH  13  15
HETATM   15  C17 UNL     1      23.818   0.979  52.909  1.00  0.00     0.011 A 
HETATM   16  C18 UNL     1      23.802  -0.267  53.529  1.00  0.00     0.017 A 
HETATM   17  C19 UNL     1      22.624  -0.881  53.963  1.00  0.00     0.020 A 
HETATM   18  C20 UNL     1      21.444  -0.192  53.752  1.00  0.00     0.116 A 
HETATM   19  N4  UNL     1      21.438   1.013  53.155  1.00  0.00    -0.272 NA
HETATM   20  C21 UNL     1      22.602   1.567  52.752  1.00  0.00     0.130 A 
ENDBRANCH  13  15
ENDBRANCH   7   9
ENDBRANCH   5   7
BRANCH   3  21
HETATM   21  N1  UNL     1      29.791   5.957  47.672  1.00  0.00    -0.389 N 
HETATM   22  H3  UNL     1      29.897   5.600  46.675  1.00  0.00     0.159 HD
BRANCH  21  23
HETATM   23  C4  UNL     1      30.997   6.400  48.320  1.00  0.00     0.124 C 
BRANCH  23  24
HETATM   24  C5  UNL     1      32.009   5.318  48.578  1.00  0.00     0.003 C 
HETATM   25  C6  UNL     1      33.401   5.876  48.777  1.00  0.00     0.006 C 
HETATM   26  C7  UNL     1      34.088   6.230  47.498  1.00  0.00     0.000 C 
HETATM   27  C8  UNL     1      34.127   5.023  46.602  1.00  0.00     0.000 C 
HETATM   28  C9  UNL     1      32.670   4.733  46.229  1.00  0.00     0.000 C 
HETATM   29  C10 UNL     1      31.971   4.284  47.478  1.00  0.00     0.006 C 
ENDBRANCH  23  24
ENDBRANCH  21  23
ENDBRANCH   3  21
TORSDOF 6
ENDMDL
MODEL 8
REMARK VINA RESULT:      -7.9      3.915      7.286
REMARK  6 active torsions:
REMARK  status: ('A' for Active; 'I' for Inactive)
REMARK    1  A    between atoms: C3_3  and  N1_4 
REMARK    2  A    between atoms: N1_4  and  C4_5 
REMARK    3  A    between atoms: C4_5  and  C5_6 
REMARK    4  A    between atoms: C12_13  and  N2_14 
REMARK    5  A    between atoms: N2_14  and  C13_15 
REMARK    6  A    between atoms: C16_19  and  C17_20 
ROOT
HETATM    1  C1  UNL     1      25.066   6.196  49.836  1.00  0.00     0.004 A 
HETATM    2  C2  UNL     1      25.192   4.857  50.140  1.00  0.00     0.029 A 
HETATM    3  C3  UNL     1      26.266   4.114  49.704  1.00  0.00     0.030 A 
HETATM    4  C11 UNL     1      27.208   4.773  48.951  1.00  0.00     0.059 A 
HETATM    5  C12 UNL     1      27.166   6.101  48.599  1.00  0.00     0.051 A 
HETATM    6  C22 UNL     1      26.061   6.767  49.075  1.00  0.00     0.030 A 
ENDROOT
BRANCH   5   7
HETATM    7  N2  UNL     1      28.206   6.660  47.815  1.00  0.00    -0.188 N 
HETATM    8  H18 UNL     1      27.997   6.823  46.805  1.00  0.00     0.184 HD
BRANCH   7   9
HETATM    9  C13 UNL     1      29.503   7.022  48.254  1.00  0.00     0.727 A 
HETATM   10  N3  UNL     1      29.879   8.175  48.820  1.00  0.00    -0.075 NA
HETATM   11  C14 UNL     1      31.118   8.473  49.219  1.00  0.00     0.139 A 
HETATM   12  C15 UNL     1      32.124   7.553  49.055  1.00  0.00     0.053 A 
HETATM   13  C16 UNL     1      31.772   6.375  48.483  1.00  0.00     0.089 A 
HETATM   14  N5  UNL     1      30.509   6.145  48.107  1.00  0.00    -0.062 NA
BRANCH  13  15
HETATM   15  C17 UNL     1      32.748   5.327  48.259  1.00  0.00     0.011 A 
HETATM   16  C18 UNL     1      34.089   5.587  48.532  1.00  0.00     0.017 A 
HETATM   17  C19 UNL     1      35.095   4.636  48.346  1.00  0.00     0.020 A 
HETATM   18  C20 UNL     1      34.708   3.396  47.871  1.00  0.00     0.116 A 
HETATM   19  N4  UNL     1      33.419   3.126  47.602  1.00  0.00    -0.272 NA
HETATM   20  C21 UNL     1      32.480   4.077  47.796  1.00  0.00     0.130 A 
ENDBRANCH  13  15
ENDBRANCH   7   9
ENDBRANCH   5   7
BRANCH   3  21
HETATM   21  N1  UNL     1      26.421   2.730  49.982  1.00  0.00    -0.389 N 
HETATM   22  H3  UNL     1      26.943   2.146  49.261  1.00  0.00     0.159 HD
BRANCH  21  23
HETATM   23  C4  UNL     1      25.943   2.026  51.143  1.00  0.00     0.124 C 
BRANCH  23  24
HETATM   24  C5  UNL     1      27.002   1.285  51.911  1.00  0.00     0.003 C 
HETATM   25  C6  UNL     1      26.671  -0.183  52.064  1.00  0.00     0.006 C 
HETATM   26  C7  UNL     1      25.678  -0.460  53.144  1.00  0.00     0.000 C 
HETATM   27  C8  UNL     1      26.182   0.104  54.443  1.00  0.00     0.000 C 
HETATM   28  C9  UNL     1      26.192   1.625  54.262  1.00  0.00     0.000 C 
HETATM   29  C10 UNL     1      27.248   1.946  53.247  1.00  0.00     0.006 C 
ENDBRANCH  23  24
ENDBRANCH  21  23
ENDBRANCH   3  21
TORSDOF 6
ENDMDL
MODEL 9
REMARK VINA RESULT:      -7.8      2.462      7.352
REMARK  6 active torsions:
REMARK  status: ('A' for Active; 'I' for Inactive)
REMARK    1  A    between atoms: C3_3  and  N1_4 
REMARK    2  A    between atoms: N1_4  and  C4_5 
REMARK    3  A    between atoms: C4_5  and  C5_6 
REMARK    4  A    between atoms: C12_13  and  N2_14 
REMARK    5  A    between atoms: N2_14  and  C13_15 
REMARK    6  A    between atoms: C16_19  and  C17_20 
ROOT
HETATM    1  C1  UNL     1      23.584   8.656  49.208  1.00  0.00     0.004 A 
HETATM    2  C2  UNL     1      24.961   8.644  49.143  1.00  0.00     0.029 A 
HETATM    3  C3  UNL     1      25.715   7.789  49.916  1.00  0.00     0.030 A 
HETATM    4  C11 UNL     1      25.027   6.948  50.756  1.00  0.00     0.059 A 
HETATM    5  C12 UNL     1      23.660   6.889  50.889  1.00  0.00     0.051 A 
HETATM    6  C22 UNL     1      22.986   7.775  50.081  1.00  0.00     0.030 A 
ENDROOT
BRANCH   5   7
HETATM    7  N2  UNL     1      23.074   5.972  51.796  1.00  0.00    -0.188 N 
HETATM    8  H18 UNL     1      22.669   6.371  52.671  1.00  0.00     0.184 HD
BRANCH   7   9
HETATM    9  C13 UNL     1      22.979   4.567  51.644  1.00  0.00     0.727 A 
HETATM   10  N3  UNL     1      22.140   3.888  50.854  1.00  0.00    -0.075 NA
HETATM   11  C14 UNL     1      22.086   2.558  50.743  1.00  0.00     0.139 A 
HETATM   12  C15 UNL     1      22.943   1.781  51.482  1.00  0.00     0.053 A 
HETATM   13  C16 UNL     1      23.804   2.441  52.293  1.00  0.00     0.089 A 
HETATM   14  N5  UNL     1      23.803   3.778  52.353  1.00  0.00    -0.062 NA
BRANCH  13  15
HETATM   15  C17 UNL     1      24.756   1.726  53.120  1.00  0.00     0.011 A 
HETATM   16  C18 UNL     1      24.590   0.357  53.308  1.00  0.00     0.017 A 
HETATM   17  C19 UNL     1      25.458  -0.410  54.088  1.00  0.00     0.020 A 
HETATM   18  C20 UNL     1      26.518   0.251  54.683  1.00  0.00     0.116 A 
HETATM   19  N4  UNL     1      26.697   1.573  54.513  1.00  0.00    -0.272 NA
HETATM   20  C21 UNL     1      25.830   2.274  53.750  1.00  0.00     0.130 A 
ENDBRANCH  13  15
ENDBRANCH   7   9
ENDBRANCH   5   7
BRANCH   3  21
HETATM   21  N1  UNL     1      27.135   7.760  49.888  1.00  0.00    -0.389 N 
HETATM   22  H3  UNL     1      27.629   7.394  50.757  1.00  0.00     0.159 HD
BRANCH  21  23
HETATM   23  C4  UNL     1      27.983   8.176  48.802  1.00  0.00     0.124 C 
BRANCH  23  24
HETATM   24  C5  UNL     1      28.150   7.159  47.707  1.00  0.00     0.003 C 
HETATM   25  C6  UNL     1      28.661   5.836  48.233  1.00  0.00     0.006 C 
HETATM   26  C7  UNL     1      30.134   5.825  48.483  1.00  0.00     0.000 C 
HETATM   27  C8  UNL     1      30.858   6.206  47.223  1.00  0.00     0.000 C 
HETATM   28  C9  UNL     1      30.489   7.669  46.955  1.00  0.00     0.000 C 
HETATM   29  C10 UNL     1      29.031   7.704  46.608  1.00  0.00     0.006 C 
ENDBRANCH  23  24
ENDBRANCH  21  23
ENDBRANCH   3  21
TORSDOF 6
ENDMDL
