MODEL 1
REMARK VINA RESULT:      -8.6      0.000      0.000
REMARK  4 active torsions:
REMARK  status: ('A' for Active; 'I' for Inactive)
REMARK    1  A    between atoms: N1_1  and  C1_2 
REMARK    2  A    between atoms: C3_4  and  N2_5 
REMARK    3  A    between atoms: N2_5  and  C4_6 
REMARK    4  A    between atoms: C14_20  and  O1_21 
ROOT
HETATM    1  C4  UNL     1      25.697   1.586  51.416  1.00  0.00     0.056 C 
HETATM    2  C5  UNL     1      24.454   1.364  51.753  1.00  0.00     0.092 C 
HETATM    3  N3  UNL     1      23.171   2.002  51.518  1.00  0.00    -0.277 NA
HETATM    4  C6  UNL     1      22.233   2.829  52.246  1.00  0.00     0.060 C 
HETATM    5  C7  UNL     1      22.516   4.177  52.101  1.00  0.00     0.023 C 
HETATM    6  C8  UNL     1      23.545   4.988  51.380  1.00  0.00     0.211 A 
HETATM    7  C9  UNL     1      23.891   6.329  51.207  1.00  0.00     0.201 A 
HETATM    8  F1  UNL     1      24.421   5.247  50.732  1.00  0.00    -0.364 F 
HETATM    9  C10 UNL     1      25.072   6.348  50.238  1.00  0.00     0.051 A 
HETATM   10 CL1  UNL     1      24.545   7.963  50.840  1.00  0.00    -0.135 Cl
HETATM   11  C11 UNL     1      26.078   5.874  49.347  1.00  0.00     0.014 C 
HETATM   12  C12 UNL     1      25.871   4.439  49.284  1.00  0.00     0.136 C 
HETATM   13  N4  UNL     1      26.807   3.537  49.843  1.00  0.00    -0.416 NA
HETATM   14  C13 UNL     1      26.456   2.539  50.621  1.00  0.00     0.304 C 
HETATM   15  H7  UNL     1      23.530   2.184  52.515  1.00  0.00     0.132 HD
ENDROOT
BRANCH   1  16
HETATM   16  N2  UNL     1      26.804   0.753  51.822  1.00  0.00    -0.374 N 
HETATM   17  H5  UNL     1      27.713   0.716  51.262  1.00  0.00     0.160 HD
BRANCH  16  18
HETATM   18  C3  UNL     1      26.550  -0.003  53.029  1.00  0.00     0.163 C 
HETATM   19  C2  UNL     1      27.059  -1.395  52.823  1.00  0.00     0.029 C 
HETATM   20  C1  UNL     1      28.248  -1.816  53.227  1.00  0.00     0.004 C 
HETATM   21  C16 UNL     1      29.143  -0.889  53.921  1.00  0.00     0.086 C 
HETATM   22  C15 UNL     1      28.405   0.165  54.672  1.00  0.00     0.013 C 
HETATM   23  C14 UNL     1      27.204   0.554  54.232  1.00  0.00     0.066 C 
BRANCH  20  24
HETATM   24  N1  UNL     1      28.694  -3.146  53.012  1.00  0.00    -0.402 N 
HETATM   25  H1  UNL     1      29.090  -3.711  52.245  1.00  0.00     0.156 HD
HETATM   26  H2  UNL     1      28.657  -3.855  53.808  1.00  0.00     0.156 HD
ENDBRANCH  20  24
BRANCH  23  27
HETATM   27  O1  UNL     1      26.537   1.526  54.935  1.00  0.00    -0.363 OA
HETATM   28  H15 UNL     1      25.651   1.921  54.685  1.00  0.00     0.217 HD
ENDBRANCH  23  27
ENDBRANCH  16  18
ENDBRANCH   1  16
TORSDOF 4
ENDMDL
MODEL 2
REMARK VINA RESULT:      -8.5      1.881      3.328
REMARK  4 active torsions:
REMARK  status: ('A' for Active; 'I' for Inactive)
REMARK    1  A    between atoms: N1_1  and  C1_2 
REMARK    2  A    between atoms: C3_4  and  N2_5 
REMARK    3  A    between atoms: N2_5  and  C4_6 
REMARK    4  A    between atoms: C14_20  and  O1_21 
ROOT
HETATM    1  C4  UNL     1      26.153   1.848  51.420  1.00  0.00     0.056 C 
HETATM    2  C5  UNL     1      26.624   2.942  50.885  1.00  0.00     0.092 C 
HETATM    3  N3  UNL     1      26.105   4.256  50.547  1.00  0.00    -0.277 NA
HETATM    4  C6  UNL     1      25.691   4.976  49.361  1.00  0.00     0.060 C 
HETATM    5  C7  UNL     1      24.350   4.777  49.081  1.00  0.00     0.023 C 
HETATM    6  C8  UNL     1      23.224   4.009  49.697  1.00  0.00     0.211 A 
HETATM    7  C9  UNL     1      21.873   3.757  49.461  1.00  0.00     0.201 A 
HETATM    8  F1  UNL     1      22.658   3.353  50.407  1.00  0.00    -0.364 F 
HETATM    9  C10 UNL     1      21.385   2.891  50.621  1.00  0.00     0.051 A 
HETATM   10 CL1  UNL     1      20.143   3.270  49.370  1.00  0.00    -0.135 Cl
HETATM   11  C11 UNL     1      21.405   2.161  51.844  1.00  0.00     0.014 C 
HETATM   12  C12 UNL     1      22.749   2.342  52.362  1.00  0.00     0.136 C 
HETATM   13  N4  UNL     1      23.666   1.265  52.416  1.00  0.00    -0.416 NA
HETATM   14  C13 UNL     1      24.902   1.363  51.985  1.00  0.00     0.304 C 
HETATM   15  H7  UNL     1      26.227   3.639  49.675  1.00  0.00     0.132 HD
ENDROOT
BRANCH   1  16
HETATM   16  N2  UNL     1      26.932   0.652  51.630  1.00  0.00    -0.374 N 
HETATM   17  H5  UNL     1      27.352   0.104  50.815  1.00  0.00     0.160 HD
BRANCH  16  18
HETATM   18  C3  UNL     1      27.073   0.287  53.023  1.00  0.00     0.163 C 
HETATM   19  C2  UNL     1      27.298  -1.190  53.098  1.00  0.00     0.029 C 
HETATM   20  C1  UNL     1      28.494  -1.753  53.194  1.00  0.00     0.004 C 
HETATM   21  C16 UNL     1      29.687  -0.906  53.230  1.00  0.00     0.086 C 
HETATM   22  C15 UNL     1      29.420   0.435  53.820  1.00  0.00     0.013 C 
HETATM   23  C14 UNL     1      28.196   0.962  53.708  1.00  0.00     0.066 C 
BRANCH  20  24
HETATM   24  N1  UNL     1      28.666  -3.160  53.263  1.00  0.00    -0.402 N 
HETATM   25  H1  UNL     1      28.098  -3.995  53.472  1.00  0.00     0.156 HD
HETATM   26  H2  UNL     1      29.619  -3.590  53.055  1.00  0.00     0.156 HD
ENDBRANCH  20  24
BRANCH  23  27
HETATM   27  O1  UNL     1      27.966   2.198  54.257  1.00  0.00    -0.363 OA
HETATM   28  H15 UNL     1      28.486   2.606  55.009  1.00  0.00     0.217 HD
ENDBRANCH  23  27
ENDBRANCH  16  18
ENDBRANCH   1  16
TORSDOF 4
ENDMDL
MODEL 3
REMARK VINA RESULT:      -8.2      1.888      2.328
REMARK  4 active torsions:
REMARK  status: ('A' for Active; 'I' for Inactive)
REMARK    1  A    between atoms: N1_1  and  C1_2 
REMARK    2  A    between atoms: C3_4  and  N2_5 
REMARK    3  A    between atoms: N2_5  and  C4_6 
REMARK    4  A    between atoms: C14_20  and  O1_21 
ROOT
HETATM    1  C4  UNL     1      25.632   2.947  51.140  1.00  0.00     0.056 C 
HETATM    2  C5  UNL     1      24.387   3.224  51.424  1.00  0.00     0.092 C 
HETATM    3  N3  UNL     1      23.413   4.221  51.018  1.00  0.00    -0.277 NA
HETATM    4  C6  UNL     1      22.818   5.425  51.560  1.00  0.00     0.060 C 
HETATM    5  C7  UNL     1      23.560   6.551  51.244  1.00  0.00     0.023 C 
HETATM    6  C8  UNL     1      24.815   6.834  50.482  1.00  0.00     0.211 A 
HETATM    7  C9  UNL     1      25.612   7.928  50.144  1.00  0.00     0.201 A 
HETATM    8  F1  UNL     1      25.734   6.670  49.862  1.00  0.00    -0.364 F 
HETATM    9  C10 UNL     1      26.735   7.386  49.260  1.00  0.00     0.051 A 
HETATM   10 CL1  UNL     1      26.804   9.157  49.592  1.00  0.00    -0.135 Cl
HETATM   11  C11 UNL     1      27.520   6.461  48.512  1.00  0.00     0.014 C 
HETATM   12  C12 UNL     1      26.821   5.195  48.640  1.00  0.00     0.136 C 
HETATM   13  N4  UNL     1      27.374   4.123  49.380  1.00  0.00    -0.416 NA
HETATM   14  C13 UNL     1      26.686   3.443  50.267  1.00  0.00     0.304 C 
HETATM   15  H7  UNL     1      23.803   4.421  52.000  1.00  0.00     0.132 HD
ENDROOT
BRANCH   1  16
HETATM   16  N2  UNL     1      26.371   1.857  51.729  1.00  0.00    -0.374 N 
HETATM   17  H5  UNL     1      26.533   0.940  51.206  1.00  0.00     0.160 HD
BRANCH  16  18
HETATM   18  C3  UNL     1      26.848   2.134  53.067  1.00  0.00     0.163 C 
HETATM   19  C2  UNL     1      26.132   1.227  54.016  1.00  0.00     0.029 C 
HETATM   20  C1  UNL     1      26.624   0.079  54.457  1.00  0.00     0.004 C 
HETATM   21  C16 UNL     1      27.947  -0.357  54.008  1.00  0.00     0.086 C 
HETATM   22  C15 UNL     1      28.843   0.784  53.672  1.00  0.00     0.013 C 
HETATM   23  C14 UNL     1      28.302   1.928  53.238  1.00  0.00     0.066 C 
BRANCH  20  24
HETATM   24  N1  UNL     1      25.912  -0.754  55.359  1.00  0.00    -0.402 N 
HETATM   25  H1  UNL     1      24.947  -0.864  55.706  1.00  0.00     0.156 HD
HETATM   26  H2  UNL     1      26.423  -1.528  55.885  1.00  0.00     0.156 HD
ENDBRANCH  20  24
BRANCH  23  27
HETATM   27  O1  UNL     1      29.142   2.970  52.932  1.00  0.00    -0.363 OA
HETATM   28  H15 UNL     1      29.868   2.948  52.243  1.00  0.00     0.217 HD
ENDBRANCH  23  27
ENDBRANCH  16  18
ENDBRANCH   1  16
TORSDOF 4
ENDMDL
MODEL 4
REMARK VINA RESULT:      -7.6      2.315      3.163
REMARK  4 active torsions:
REMARK  status: ('A' for Active; 'I' for Inactive)
REMARK    1  A    between atoms: N1_1  and  C1_2 
REMARK    2  A    between atoms: C3_4  and  N2_5 
REMARK    3  A    between atoms: N2_5  and  C4_6 
REMARK    4  A    between atoms: C14_20  and  O1_21 
ROOT
HETATM    1  C4  UNL     1      25.186   3.520  50.783  1.00  0.00     0.056 C 
HETATM    2  C5  UNL     1      24.038   4.118  50.960  1.00  0.00     0.092 C 
HETATM    3  N3  UNL     1      23.404   5.336  50.488  1.00  0.00    -0.277 NA
HETATM    4  C6  UNL     1      23.100   6.656  50.997  1.00  0.00     0.060 C 
HETATM    5  C7  UNL     1      24.138   7.545  50.771  1.00  0.00     0.023 C 
HETATM    6  C8  UNL     1      25.489   7.482  50.132  1.00  0.00     0.211 A 
HETATM    7  C9  UNL     1      26.574   8.323  49.888  1.00  0.00     0.201 A 
HETATM    8  F1  UNL     1      26.385   7.077  49.594  1.00  0.00    -0.364 F 
HETATM    9  C10 UNL     1      27.591   7.500  49.100  1.00  0.00     0.051 A 
HETATM   10 CL1  UNL     1      28.094   9.191  49.471  1.00  0.00    -0.135 Cl
HETATM   11  C11 UNL     1      28.169   6.397  48.406  1.00  0.00     0.014 C 
HETATM   12  C12 UNL     1      27.152   5.361  48.446  1.00  0.00     0.136 C 
HETATM   13  N4  UNL     1      27.332   4.185  49.212  1.00  0.00    -0.416 NA
HETATM   14  C13 UNL     1      26.410   3.715  50.020  1.00  0.00     0.304 C 
HETATM   15  H7  UNL     1      23.740   5.430  51.505  1.00  0.00     0.132 HD
ENDROOT
BRANCH   1  16
HETATM   16  N2  UNL     1      25.554   2.276  51.416  1.00  0.00    -0.374 N 
HETATM   17  H5  UNL     1      25.975   1.467  50.861  1.00  0.00     0.160 HD
BRANCH  16  18
HETATM   18  C3  UNL     1      25.291   2.247  52.838  1.00  0.00     0.163 C 
HETATM   19  C2  UNL     1      24.157   1.304  53.085  1.00  0.00     0.029 C 
HETATM   20  C1  UNL     1      24.310   0.038  53.443  1.00  0.00     0.004 C 
HETATM   21  C16 UNL     1      25.660  -0.502  53.618  1.00  0.00     0.086 C 
HETATM   22  C15 UNL     1      26.643   0.538  54.029  1.00  0.00     0.013 C 
HETATM   23  C14 UNL     1      26.444   1.805  53.651  1.00  0.00     0.066 C 
BRANCH  20  24
HETATM   24  N1  UNL     1      23.207  -0.826  53.668  1.00  0.00    -0.402 N 
HETATM   25  H1  UNL     1      22.177  -0.778  53.652  1.00  0.00     0.156 HD
HETATM   26  H2  UNL     1      23.374  -1.845  53.934  1.00  0.00     0.156 HD
ENDBRANCH  20  24
BRANCH  23  27
HETATM   27  O1  UNL     1      27.360   2.752  54.037  1.00  0.00    -0.363 OA
HETATM   28  H15 UNL     1      28.219   2.958  53.564  1.00  0.00     0.217 HD
ENDBRANCH  23  27
ENDBRANCH  16  18
ENDBRANCH   1  16
TORSDOF 4
ENDMDL
MODEL 5
REMARK VINA RESULT:      -7.6      3.380      7.046
REMARK  4 active torsions:
REMARK  status: ('A' for Active; 'I' for Inactive)
REMARK    1  A    between atoms: N1_1  and  C1_2 
REMARK    2  A    between atoms: C3_4  and  N2_5 
REMARK    3  A    between atoms: N2_5  and  C4_6 
REMARK    4  A    between atoms: C14_20  and  O1_21 
ROOT
HETATM    1  C4  UNL     1      25.551   2.953  51.001  1.00  0.00     0.056 C 
HETATM    2  C5  UNL     1      26.570   2.169  51.231  1.00  0.00     0.092 C 
HETATM    3  N3  UNL     1      26.765   0.773  51.577  1.00  0.00    -0.277 NA
HETATM    4  C6  UNL     1      27.106  -0.007  52.748  1.00  0.00     0.060 C 
HETATM    5  C7  UNL     1      25.981  -0.363  53.473  1.00  0.00     0.023 C 
HETATM    6  C8  UNL     1      24.507  -0.148  53.347  1.00  0.00     0.211 A 
HETATM    7  C9  UNL     1      23.338  -0.463  54.040  1.00  0.00     0.201 A 
HETATM    8  F1  UNL     1      23.520   0.191  52.937  1.00  0.00    -0.364 F 
HETATM    9  C10 UNL     1      22.180   0.082  53.204  1.00  0.00     0.051 A 
HETATM   10 CL1  UNL     1      21.703  -0.723  54.745  1.00  0.00    -0.135 Cl
HETATM   11  C11 UNL     1      21.487   0.709  52.128  1.00  0.00     0.014 C 
HETATM   12  C12 UNL     1      22.525   1.074  51.181  1.00  0.00     0.136 C 
HETATM   13  N4  UNL     1      22.861   2.428  50.945  1.00  0.00    -0.416 NA
HETATM   14  C13 UNL     1      24.100   2.862  50.933  1.00  0.00     0.304 C 
HETATM   15  H7  UNL     1      26.924   1.419  52.421  1.00  0.00     0.132 HD
ENDROOT
BRANCH   1  16
HETATM   16  N2  UNL     1      25.667   4.355  50.676  1.00  0.00    -0.374 N 
HETATM   17  H5  UNL     1      25.688   5.107  51.434  1.00  0.00     0.160 HD
BRANCH  16  18
HETATM   18  C3  UNL     1      25.746   4.617  49.255  1.00  0.00     0.163 C 
HETATM   19  C2  UNL     1      24.632   5.546  48.890  1.00  0.00     0.029 C 
HETATM   20  C1  UNL     1      24.767   6.860  48.785  1.00  0.00     0.004 C 
HETATM   21  C16 UNL     1      26.074   7.471  49.033  1.00  0.00     0.086 C 
HETATM   22  C15 UNL     1      27.204   6.554  48.718  1.00  0.00     0.013 C 
HETATM   23  C14 UNL     1      27.020   5.235  48.830  1.00  0.00     0.066 C 
BRANCH  20  24
HETATM   24  N1  UNL     1      23.684   7.708  48.435  1.00  0.00    -0.402 N 
HETATM   25  H1  UNL     1      23.516   8.541  47.851  1.00  0.00     0.156 HD
HETATM   26  H2  UNL     1      22.713   7.522  48.834  1.00  0.00     0.156 HD
ENDBRANCH  20  24
BRANCH  23  27
HETATM   27  O1  UNL     1      28.072   4.403  48.536  1.00  0.00    -0.363 OA
HETATM   28  H15 UNL     1      28.279   4.024  47.632  1.00  0.00     0.217 HD
ENDBRANCH  23  27
ENDBRANCH  16  18
ENDBRANCH   1  16
TORSDOF 4
ENDMDL
MODEL 6
REMARK VINA RESULT:      -7.4      2.452      4.023
REMARK  4 active torsions:
REMARK  status: ('A' for Active; 'I' for Inactive)
REMARK    1  A    between atoms: N1_1  and  C1_2 
REMARK    2  A    between atoms: C3_4  and  N2_5 
REMARK    3  A    between atoms: N2_5  and  C4_6 
REMARK    4  A    between atoms: C14_20  and  O1_21 
ROOT
HETATM    1  C4  UNL     1      25.298   3.393  50.868  1.00  0.00     0.056 C 
HETATM    2  C5  UNL     1      26.490   3.403  50.333  1.00  0.00     0.092 C 
HETATM    3  N3  UNL     1      27.420   4.411  49.857  1.00  0.00    -0.277 NA
HETATM    4  C6  UNL     1      27.876   4.938  48.588  1.00  0.00     0.060 C 
HETATM    5  C7  UNL     1      27.085   5.988  48.154  1.00  0.00     0.023 C 
HETATM    6  C8  UNL     1      25.882   6.713  48.667  1.00  0.00     0.211 A 
HETATM    7  C9  UNL     1      25.040   7.754  48.278  1.00  0.00     0.201 A 
HETATM    8  F1  UNL     1      25.035   7.011  49.338  1.00  0.00    -0.364 F 
HETATM    9  C10 UNL     1      24.039   7.950  49.416  1.00  0.00     0.051 A 
HETATM   10 CL1  UNL     1      23.813   9.041  48.000  1.00  0.00    -0.135 Cl
HETATM   11  C11 UNL     1      23.392   7.769  50.673  1.00  0.00     0.014 C 
HETATM   12  C12 UNL     1      24.168   6.741  51.345  1.00  0.00     0.136 C 
HETATM   13  N4  UNL     1      23.632   5.451  51.576  1.00  0.00    -0.416 NA
HETATM   14  C13 UNL     1      24.289   4.349  51.299  1.00  0.00     0.304 C 
HETATM   15  H7  UNL     1      26.933   3.902  49.044  1.00  0.00     0.132 HD
ENDROOT
BRANCH   1  16
HETATM   16  N2  UNL     1      24.592   2.191  51.244  1.00  0.00    -0.374 N 
HETATM   17  H5  UNL     1      24.320   1.451  50.524  1.00  0.00     0.160 HD
BRANCH  16  18
HETATM   18  C3  UNL     1      24.300   2.107  52.659  1.00  0.00     0.163 C 
HETATM   19  C2  UNL     1      23.196   1.117  52.850  1.00  0.00     0.029 C 
HETATM   20  C1  UNL     1      23.387  -0.154  53.171  1.00  0.00     0.004 C 
HETATM   21  C16 UNL     1      24.751  -0.651  53.359  1.00  0.00     0.086 C 
HETATM   22  C15 UNL     1      25.688   0.409  53.825  1.00  0.00     0.013 C 
HETATM   23  C14 UNL     1      25.451   1.680  53.483  1.00  0.00     0.066 C 
BRANCH  20  24
HETATM   24  N1  UNL     1      22.311  -1.062  53.344  1.00  0.00    -0.402 N 
HETATM   25  H1  UNL     1      21.370  -1.070  53.767  1.00  0.00     0.156 HD
HETATM   26  H2  UNL     1      22.386  -2.055  52.961  1.00  0.00     0.156 HD
ENDBRANCH  20  24
BRANCH  23  27
HETATM   27  O1  UNL     1      26.324   2.645  53.919  1.00  0.00    -0.363 OA
HETATM   28  H15 UNL     1      26.069   3.559  54.239  1.00  0.00     0.217 HD
ENDBRANCH  23  27
ENDBRANCH  16  18
ENDBRANCH   1  16
TORSDOF 4
ENDMDL
MODEL 7
REMARK VINA RESULT:      -7.3      3.599      7.293
REMARK  4 active torsions:
REMARK  status: ('A' for Active; 'I' for Inactive)
REMARK    1  A    between atoms: N1_1  and  C1_2 
REMARK    2  A    between atoms: C3_4  and  N2_5 
REMARK    3  A    between atoms: N2_5  and  C4_6 
REMARK    4  A    between atoms: C14_20  and  O1_21 
ROOT
HETATM    1  C4  UNL     1      24.751   3.352  51.442  1.00  0.00     0.056 C 
HETATM    2  C5  UNL     1      25.926   2.790  51.344  1.00  0.00     0.092 C 
HETATM    3  N3  UNL     1      26.457   1.441  51.414  1.00  0.00    -0.277 NA
HETATM    4  C6  UNL     1      27.189   0.622  52.356  1.00  0.00     0.060 C 
HETATM    5  C7  UNL     1      26.341  -0.059  53.213  1.00  0.00     0.023 C 
HETATM    6  C8  UNL     1      24.862  -0.162  53.406  1.00  0.00     0.211 A 
HETATM    7  C9  UNL     1      23.956  -0.808  54.248  1.00  0.00     0.201 A 
HETATM    8  F1  UNL     1      23.763  -0.003  53.252  1.00  0.00    -0.364 F 
HETATM    9  C10 UNL     1      22.561  -0.436  53.747  1.00  0.00     0.051 A 
HETATM   10 CL1  UNL     1      22.597  -1.505  55.198  1.00  0.00    -0.135 Cl
HETATM   11  C11 UNL     1      21.541   0.146  52.939  1.00  0.00     0.014 C 
HETATM   12  C12 UNL     1      22.257   0.842  51.885  1.00  0.00     0.136 C 
HETATM   13  N4  UNL     1      22.266   2.255  51.813  1.00  0.00    -0.416 NA
HETATM   14  C13 UNL     1      23.366   2.950  51.637  1.00  0.00     0.304 C 
HETATM   15  H7  UNL     1      26.670   2.000  52.307  1.00  0.00     0.132 HD
ENDROOT
BRANCH   1  16
HETATM   16  N2  UNL     1      24.523   4.772  51.334  1.00  0.00    -0.374 N 
HETATM   17  H5  UNL     1      23.948   5.306  52.059  1.00  0.00     0.160 HD
BRANCH  16  18
HETATM   18  C3  UNL     1      25.138   5.373  50.170  1.00  0.00     0.163 C 
HETATM   19  C2  UNL     1      24.347   4.972  48.966  1.00  0.00     0.029 C 
HETATM   20  C1  UNL     1      23.401   5.719  48.417  1.00  0.00     0.004 C 
HETATM   21  C16 UNL     1      23.086   7.024  49.002  1.00  0.00     0.086 C 
HETATM   22  C15 UNL     1      24.256   7.643  49.684  1.00  0.00     0.013 C 
HETATM   23  C14 UNL     1      25.192   6.849  50.216  1.00  0.00     0.066 C 
BRANCH  20  24
HETATM   24  N1  UNL     1      22.673   5.302  47.273  1.00  0.00    -0.402 N 
HETATM   25  H1  UNL     1      22.694   4.533  46.585  1.00  0.00     0.156 HD
HETATM   26  H2  UNL     1      21.838   5.873  46.936  1.00  0.00     0.156 HD
ENDBRANCH  20  24
BRANCH  23  27
HETATM   27  O1  UNL     1      26.263   7.436  50.842  1.00  0.00    -0.363 OA
HETATM   28  H15 UNL     1      27.225   7.192  50.700  1.00  0.00     0.217 HD
ENDBRANCH  23  27
ENDBRANCH  16  18
ENDBRANCH   1  16
TORSDOF 4
ENDMDL
MODEL 8
REMARK VINA RESULT:      -7.3      2.097      2.970
REMARK  4 active torsions:
REMARK  status: ('A' for Active; 'I' for Inactive)
REMARK    1  A    between atoms: N1_1  and  C1_2 
REMARK    2  A    between atoms: C3_4  and  N2_5 
REMARK    3  A    between atoms: N2_5  and  C4_6 
REMARK    4  A    between atoms: C14_20  and  O1_21 
ROOT
HETATM    1  C4  UNL     1      24.748   3.328  51.698  1.00  0.00     0.056 C 
HETATM    2  C5  UNL     1      23.626   3.998  51.712  1.00  0.00     0.092 C 
HETATM    3  N3  UNL     1      23.026   5.059  50.924  1.00  0.00    -0.277 NA
HETATM    4  C6  UNL     1      22.780   6.480  51.045  1.00  0.00     0.060 C 
HETATM    5  C7  UNL     1      23.844   7.227  50.568  1.00  0.00     0.023 C 
HETATM    6  C8  UNL     1      25.178   6.934  49.959  1.00  0.00     0.211 A 
HETATM    7  C9  UNL     1      26.287   7.629  49.477  1.00  0.00     0.201 A 
HETATM    8  F1  UNL     1      26.047   6.359  49.546  1.00  0.00    -0.364 F 
HETATM    9  C10 UNL     1      27.257   6.578  48.940  1.00  0.00     0.051 A 
HETATM   10 CL1  UNL     1      27.827   8.283  48.817  1.00  0.00    -0.135 Cl
HETATM   11  C11 UNL     1      27.780   5.303  48.579  1.00  0.00     0.014 C 
HETATM   12  C12 UNL     1      26.728   4.361  48.918  1.00  0.00     0.136 C 
HETATM   13  N4  UNL     1      26.882   3.440  49.981  1.00  0.00    -0.416 NA
HETATM   14  C13 UNL     1      25.961   3.252  50.898  1.00  0.00     0.304 C 
HETATM   15  H7  UNL     1      23.387   5.420  51.870  1.00  0.00     0.132 HD
ENDROOT
BRANCH   1  16
HETATM   16  N2  UNL     1      25.085   2.297  52.650  1.00  0.00    -0.374 N 
HETATM   17  H5  UNL     1      25.486   2.530  53.612  1.00  0.00     0.160 HD
BRANCH  16  18
HETATM   18  C3  UNL     1      24.829   0.957  52.169  1.00  0.00     0.163 C 
HETATM   19  C2  UNL     1      26.056   0.135  52.405  1.00  0.00     0.029 C 
HETATM   20  C1  UNL     1      26.230  -0.653  53.457  1.00  0.00     0.004 C 
HETATM   21  C16 UNL     1      25.176  -0.747  54.467  1.00  0.00     0.086 C 
HETATM   22  C15 UNL     1      23.819  -0.507  53.902  1.00  0.00     0.013 C 
HETATM   23  C14 UNL     1      23.691   0.289  52.835  1.00  0.00     0.066 C 
BRANCH  20  24
HETATM   24  N1  UNL     1      27.411  -1.417  53.644  1.00  0.00    -0.402 N 
HETATM   25  H1  UNL     1      27.845  -2.270  53.258  1.00  0.00     0.156 HD
HETATM   26  H2  UNL     1      28.133  -1.113  54.367  1.00  0.00     0.156 HD
ENDBRANCH  20  24
BRANCH  23  27
HETATM   27  O1  UNL     1      22.433   0.500  52.328  1.00  0.00    -0.363 OA
HETATM   28  H15 UNL     1      21.648  -0.111  52.446  1.00  0.00     0.217 HD
ENDBRANCH  23  27
ENDBRANCH  16  18
ENDBRANCH   1  16
TORSDOF 4
ENDMDL
MODEL 9
REMARK VINA RESULT:      -7.3      3.412      6.986
REMARK  4 active torsions:
REMARK  status: ('A' for Active; 'I' for Inactive)
REMARK    1  A    between atoms: N1_1  and  C1_2 
REMARK    2  A    between atoms: C3_4  and  N2_5 
REMARK    3  A    between atoms: N2_5  and  C4_6 
REMARK    4  A    between atoms: C14_20  and  O1_21 
ROOT
HETATM    1  C4  UNL     1      24.477   3.109  51.265  1.00  0.00     0.056 C 
HETATM    2  C5  UNL     1      23.421   2.691  51.910  1.00  0.00     0.092 C 
HETATM    3  N3  UNL     1      23.156   1.818  53.039  1.00  0.00    -0.277 NA
HETATM    4  C6  UNL     1      22.665   0.476  53.267  1.00  0.00     0.060 C 
HETATM    5  C7  UNL     1      23.689  -0.455  53.257  1.00  0.00     0.023 C 
HETATM    6  C8  UNL     1      25.173  -0.420  53.072  1.00  0.00     0.211 A 
HETATM    7  C9  UNL     1      26.247  -1.310  53.036  1.00  0.00     0.201 A 
HETATM    8  F1  UNL     1      26.208  -0.023  52.908  1.00  0.00    -0.364 F 
HETATM    9  C10 UNL     1      27.505  -0.462  52.857  1.00  0.00     0.051 A 
HETATM   10 CL1  UNL     1      27.782  -2.242  52.932  1.00  0.00    -0.135 Cl
HETATM   11  C11 UNL     1      28.332   0.690  52.718  1.00  0.00     0.014 C 
HETATM   12  C12 UNL     1      27.419   1.815  52.811  1.00  0.00     0.136 C 
HETATM   13  N4  UNL     1      27.143   2.632  51.689  1.00  0.00    -0.416 NA
HETATM   14  C13 UNL     1      25.924   2.966  51.335  1.00  0.00     0.304 C 
HETATM   15  H7  UNL     1      22.915   1.345  52.104  1.00  0.00     0.132 HD
ENDROOT
BRANCH   1  16
HETATM   16  N2  UNL     1      24.430   4.001  50.131  1.00  0.00    -0.374 N 
HETATM   17  H5  UNL     1      24.011   3.699  49.196  1.00  0.00     0.160 HD
BRANCH  16  18
HETATM   18  C3  UNL     1      25.001   5.305  50.392  1.00  0.00     0.163 C 
HETATM   19  C2  UNL     1      25.320   5.947  49.080  1.00  0.00     0.029 C 
HETATM   20  C1  UNL     1      24.523   6.807  48.463  1.00  0.00     0.004 C 
HETATM   21  C16 UNL     1      23.246   7.173  49.077  1.00  0.00     0.086 C 
HETATM   22  C15 UNL     1      23.280   7.087  50.563  1.00  0.00     0.013 C 
HETATM   23  C14 UNL     1      24.105   6.210  51.144  1.00  0.00     0.066 C 
BRANCH  20  24
HETATM   24  N1  UNL     1      24.863   7.395  47.217  1.00  0.00    -0.402 N 
HETATM   25  H1  UNL     1      25.372   8.222  46.869  1.00  0.00     0.156 HD
HETATM   26  H2  UNL     1      24.556   6.930  46.308  1.00  0.00     0.156 HD
ENDBRANCH  20  24
BRANCH  23  27
HETATM   27  O1  UNL     1      24.124   6.142  52.515  1.00  0.00    -0.363 OA
HETATM   28  H15 UNL     1      24.887   5.805  53.070  1.00  0.00     0.217 HD
ENDBRANCH  23  27
ENDBRANCH  16  18
ENDBRANCH   1  16
TORSDOF 4
ENDMDL
