MODEL 1
REMARK VINA RESULT:      -7.6      0.000      0.000
REMARK  7 active torsions:
REMARK  status: ('A' for Active; 'I' for Inactive)
REMARK    1  A    between atoms: C1_2  and  C2_3 
REMARK       I    between atoms: C1_2  and  N1_9 
REMARK    2  A    between atoms: C3_4  and  C4_5 
REMARK    3  A    between atoms: N1_9  and  C5_10 
REMARK    4  A    between atoms: C6_11  and  C7_12 
REMARK    5  A    between atoms: C10_15  and  N2_16 
REMARK    6  A    between atoms: N2_16  and  C11_17 
REMARK    7  A    between atoms: C12_18  and  C13_19 
ROOT
HETATM    1  C7  UNL     1      27.202   2.151  52.026  1.00  0.00     0.029 C 
HETATM    2  C8  UNL     1      27.228   1.349  53.038  1.00  0.00     0.043 A 
HETATM    3  C9  UNL     1      26.013   0.670  53.519  1.00  0.00     0.137 A 
HETATM    4  C10 UNL     1      26.349  -0.178  54.683  1.00  0.00     0.110 A 
HETATM    5  N3  UNL     1      27.520  -0.291  55.181  1.00  0.00    -0.228 NA
HETATM    6  C14 UNL     1      28.652   0.401  54.660  1.00  0.00     0.235 A 
HETATM    7  N4  UNL     1      28.486   1.171  53.645  1.00  0.00    -0.246 NA
ENDROOT
BRANCH   1   8
HETATM    8  C6  UNL     1      26.321   2.728  51.035  1.00  0.00     0.019 C 
HETATM    9  C5  UNL     1      26.164   3.641  50.109  1.00  0.00     0.091 C 
BRANCH   9  10
HETATM   10  N1  UNL     1      26.850   4.688  49.496  1.00  0.00    -0.334 N 
HETATM   11  C1  UNL     1      26.638   5.895  48.741  1.00  0.00     0.245 C 
HETATM   12  O1  UNL     1      25.381   6.054  48.583  1.00  0.00    -0.268 OA
HETATM   13  H3  UNL     1      27.906   4.637  49.578  1.00  0.00     0.168 HD
BRANCH  11  14
HETATM   14  C2  UNL     1      27.637   6.813  48.225  1.00  0.00     0.079 C 
HETATM   15  C3  UNL     1      28.933   6.900  47.895  1.00  0.00     0.094 C 
BRANCH  15  16
HETATM   16  C4  UNL     1      30.026   5.903  47.947  1.00  0.00     0.408 C 
HETATM   17  F1  UNL     1      30.607   5.869  49.205  1.00  0.00    -0.167 F 
HETATM   18  F2  UNL     1      30.952   6.209  46.977  1.00  0.00    -0.167 F 
HETATM   19  F3  UNL     1      29.508   4.613  47.767  1.00  0.00    -0.167 F 
ENDBRANCH  15  16
ENDBRANCH  11  14
ENDBRANCH   9  10
ENDBRANCH   1   8
BRANCH   4  20
HETATM   20  N2  UNL     1      25.268  -0.879  55.231  1.00  0.00    -0.354 N 
HETATM   21  H9  UNL     1      25.249  -1.390  56.146  1.00  0.00     0.166 HD
BRANCH  20  22
HETATM   22  C11 UNL     1      24.006  -0.988  54.584  1.00  0.00     0.086 C 
HETATM   23  C12 UNL     1      22.812  -1.297  55.066  1.00  0.00     0.001 C 
BRANCH  23  24
HETATM   24  C13 UNL     1      21.462  -1.425  54.431  1.00  0.00     0.113 C 
HETATM   25 BR1  UNL     1      20.802   0.374  54.127  1.00  0.00    -0.092 Br
ENDBRANCH  23  24
ENDBRANCH  20  22
ENDBRANCH   4  20
TORSDOF 7
ENDMDL
MODEL 2
REMARK VINA RESULT:      -7.6      4.517      7.620
REMARK  7 active torsions:
REMARK  status: ('A' for Active; 'I' for Inactive)
REMARK    1  A    between atoms: C1_2  and  C2_3 
REMARK       I    between atoms: C1_2  and  N1_9 
REMARK    2  A    between atoms: C3_4  and  C4_5 
REMARK    3  A    between atoms: N1_9  and  C5_10 
REMARK    4  A    between atoms: C6_11  and  C7_12 
REMARK    5  A    between atoms: C10_15  and  N2_16 
REMARK    6  A    between atoms: N2_16  and  C11_17 
REMARK    7  A    between atoms: C12_18  and  C13_19 
ROOT
HETATM    1  C7  UNL     1      21.636  -1.009  54.669  1.00  0.00     0.029 C 
HETATM    2  C8  UNL     1      21.184  -0.536  53.557  1.00  0.00     0.043 A 
HETATM    3  C9  UNL     1      22.082   0.010  52.525  1.00  0.00     0.137 A 
HETATM    4  C10 UNL     1      21.284   0.474  51.370  1.00  0.00     0.110 A 
HETATM    5  N3  UNL     1      20.011   0.403  51.296  1.00  0.00    -0.228 NA
HETATM    6  C14 UNL     1      19.205  -0.140  52.338  1.00  0.00     0.235 A 
HETATM    7  N4  UNL     1      19.786  -0.578  53.398  1.00  0.00    -0.246 NA
ENDROOT
BRANCH   1   8
HETATM    8  C6  UNL     1      22.855  -1.248  55.409  1.00  0.00     0.019 C 
HETATM    9  C5  UNL     1      24.165  -1.271  55.384  1.00  0.00     0.091 C 
BRANCH   9  10
HETATM   10  N1  UNL     1      25.233  -1.049  54.517  1.00  0.00    -0.334 N 
HETATM   11  C1  UNL     1      25.808  -0.045  53.659  1.00  0.00     0.245 C 
HETATM   12  O1  UNL     1      25.081   1.001  53.723  1.00  0.00    -0.268 OA
HETATM   13  H3  UNL     1      25.893  -1.871  54.402  1.00  0.00     0.168 HD
BRANCH  11  14
HETATM   14  C2  UNL     1      27.004  -0.147  52.843  1.00  0.00     0.079 C 
HETATM   15  C3  UNL     1      28.342  -0.148  52.911  1.00  0.00     0.094 C 
BRANCH  15  16
HETATM   16  C4  UNL     1      29.265  -0.021  54.062  1.00  0.00     0.408 C 
HETATM   17  F1  UNL     1      30.397  -0.799  53.879  1.00  0.00    -0.167 F 
HETATM   18  F2  UNL     1      28.595  -0.377  55.210  1.00  0.00    -0.167 F 
HETATM   19  F3  UNL     1      29.752   1.291  54.144  1.00  0.00    -0.167 F 
ENDBRANCH  15  16
ENDBRANCH  11  14
ENDBRANCH   9  10
ENDBRANCH   1   8
BRANCH   4  20
HETATM   20  N2  UNL     1      22.032   1.017  50.319  1.00  0.00    -0.354 N 
HETATM   21  H9  UNL     1      21.914   0.823  49.295  1.00  0.00     0.166 HD
BRANCH  20  22
HETATM   22  C11 UNL     1      23.095   1.942  50.519  1.00  0.00     0.086 C 
HETATM   23  C12 UNL     1      23.599   2.866  49.716  1.00  0.00     0.001 C 
BRANCH  23  24
HETATM   24  C13 UNL     1      24.709   3.858  49.878  1.00  0.00     0.113 C 
HETATM   25 BR1  UNL     1      26.245   2.888  50.562  1.00  0.00    -0.092 Br
ENDBRANCH  23  24
ENDBRANCH  20  22
ENDBRANCH   4  20
TORSDOF 7
ENDMDL
MODEL 3
REMARK VINA RESULT:      -7.4      2.135      2.436
REMARK  7 active torsions:
REMARK  status: ('A' for Active; 'I' for Inactive)
REMARK    1  A    between atoms: C1_2  and  C2_3 
REMARK       I    between atoms: C1_2  and  N1_9 
REMARK    2  A    between atoms: C3_4  and  C4_5 
REMARK    3  A    between atoms: N1_9  and  C5_10 
REMARK    4  A    between atoms: C6_11  and  C7_12 
REMARK    5  A    between atoms: C10_15  and  N2_16 
REMARK    6  A    between atoms: N2_16  and  C11_17 
REMARK    7  A    between atoms: C12_18  and  C13_19 
ROOT
HETATM    1  C7  UNL     1      26.977   2.341  51.638  1.00  0.00     0.029 C 
HETATM    2  C8  UNL     1      27.155   1.574  52.661  1.00  0.00     0.043 A 
HETATM    3  C9  UNL     1      26.069   0.737  53.201  1.00  0.00     0.137 A 
HETATM    4  C10 UNL     1      26.566  -0.028  54.365  1.00  0.00     0.110 A 
HETATM    5  N3  UNL     1      27.759   0.041  54.818  1.00  0.00    -0.228 NA
HETATM    6  C14 UNL     1      28.759   0.877  54.242  1.00  0.00     0.235 A 
HETATM    7  N4  UNL     1      28.446   1.592  53.221  1.00  0.00    -0.246 NA
ENDROOT
BRANCH   1   8
HETATM    8  C6  UNL     1      25.986   2.763  50.674  1.00  0.00     0.019 C 
HETATM    9  C5  UNL     1      25.628   3.666  49.795  1.00  0.00     0.091 C 
BRANCH   9  10
HETATM   10  N1  UNL     1      26.067   4.868  49.242  1.00  0.00    -0.334 N 
HETATM   11  C1  UNL     1      27.232   5.500  48.679  1.00  0.00     0.245 C 
HETATM   12  O1  UNL     1      28.191   4.659  48.696  1.00  0.00    -0.268 OA
HETATM   13  H3  UNL     1      25.330   5.630  49.188  1.00  0.00     0.168 HD
BRANCH  11  14
HETATM   14  C2  UNL     1      27.353   6.852  48.164  1.00  0.00     0.079 C 
HETATM   15  C3  UNL     1      27.263   8.140  48.523  1.00  0.00     0.094 C 
BRANCH  15  16
HETATM   16  C4  UNL     1      26.946   8.775  49.822  1.00  0.00     0.408 C 
HETATM   17  F1  UNL     1      26.001   9.777  49.666  1.00  0.00    -0.167 F 
HETATM   18  F2  UNL     1      28.106   9.264  50.373  1.00  0.00    -0.167 F 
HETATM   19  F3  UNL     1      26.330   7.845  50.673  1.00  0.00    -0.167 F 
ENDBRANCH  15  16
ENDBRANCH  11  14
ENDBRANCH   9  10
ENDBRANCH   1   8
BRANCH   4  20
HETATM   20  N2  UNL     1      25.619  -0.864  54.966  1.00  0.00    -0.354 N 
HETATM   21  H9  UNL     1      25.774  -1.506  55.781  1.00  0.00     0.166 HD
BRANCH  20  22
HETATM   22  C11 UNL     1      24.269  -0.951  54.526  1.00  0.00     0.086 C 
HETATM   23  C12 UNL     1      23.150  -1.146  55.205  1.00  0.00     0.001 C 
BRANCH  23  24
HETATM   24  C13 UNL     1      21.714  -1.245  54.791  1.00  0.00     0.113 C 
HETATM   25 BR1  UNL     1      21.497  -0.135  53.214  1.00  0.00    -0.092 Br
ENDBRANCH  23  24
ENDBRANCH  20  22
ENDBRANCH   4  20
TORSDOF 7
ENDMDL
MODEL 4
REMARK VINA RESULT:      -7.3      4.677      7.273
REMARK  7 active torsions:
REMARK  status: ('A' for Active; 'I' for Inactive)
REMARK    1  A    between atoms: C1_2  and  C2_3 
REMARK       I    between atoms: C1_2  and  N1_9 
REMARK    2  A    between atoms: C3_4  and  C4_5 
REMARK    3  A    between atoms: N1_9  and  C5_10 
REMARK    4  A    between atoms: C6_11  and  C7_12 
REMARK    5  A    between atoms: C10_15  and  N2_16 
REMARK    6  A    between atoms: N2_16  and  C11_17 
REMARK    7  A    between atoms: C12_18  and  C13_19 
ROOT
HETATM    1  C7  UNL     1      24.973  -0.881  55.316  1.00  0.00     0.029 C 
HETATM    2  C8  UNL     1      25.879  -0.342  54.570  1.00  0.00     0.043 A 
HETATM    3  C9  UNL     1      25.581   0.124  53.205  1.00  0.00     0.137 A 
HETATM    4  C10 UNL     1      26.804   0.693  52.599  1.00  0.00     0.110 A 
HETATM    5  N3  UNL     1      27.937   0.762  53.187  1.00  0.00    -0.228 NA
HETATM    6  C14 UNL     1      28.150   0.287  54.514  1.00  0.00     0.235 A 
HETATM    7  N4  UNL     1      27.158  -0.230  55.147  1.00  0.00    -0.246 NA
ENDROOT
BRANCH   1   8
HETATM    8  C6  UNL     1      23.579  -1.265  55.341  1.00  0.00     0.019 C 
HETATM    9  C5  UNL     1      22.431  -1.263  54.709  1.00  0.00     0.091 C 
BRANCH   9  10
HETATM   10  N1  UNL     1      21.857  -0.835  53.514  1.00  0.00    -0.334 N 
HETATM   11  C1  UNL     1      20.826   0.026  52.995  1.00  0.00     0.245 C 
HETATM   12  O1  UNL     1      20.240   0.588  53.978  1.00  0.00    -0.268 OA
HETATM   13  H3  UNL     1      22.284  -1.255  52.638  1.00  0.00     0.168 HD
BRANCH  11  14
HETATM   14  C2  UNL     1      20.470   0.256  51.606  1.00  0.00     0.079 C 
HETATM   15  C3  UNL     1      20.904   0.833  50.477  1.00  0.00     0.094 C 
BRANCH  15  16
HETATM   16  C4  UNL     1      22.139   1.591  50.178  1.00  0.00     0.408 C 
HETATM   17  F1  UNL     1      22.450   1.521  48.829  1.00  0.00    -0.167 F 
HETATM   18  F2  UNL     1      23.163   1.097  50.952  1.00  0.00    -0.167 F 
HETATM   19  F3  UNL     1      21.934   2.958  50.417  1.00  0.00    -0.167 F 
ENDBRANCH  15  16
ENDBRANCH  11  14
ENDBRANCH   9  10
ENDBRANCH   1   8
BRANCH   4  20
HETATM   20  N2  UNL     1      26.646   1.173  51.294  1.00  0.00    -0.354 N 
HETATM   21  H9  UNL     1      26.535   0.601  50.422  1.00  0.00     0.166 HD
BRANCH  20  22
HETATM   22  C11 UNL     1      26.615   2.559  50.974  1.00  0.00     0.086 C 
HETATM   23  C12 UNL     1      25.660   3.300  50.436  1.00  0.00     0.001 C 
BRANCH  23  24
HETATM   24  C13 UNL     1      25.579   4.753  50.081  1.00  0.00     0.113 C 
HETATM   25 BR1  UNL     1      27.027   5.119  48.842  1.00  0.00    -0.092 Br
ENDBRANCH  23  24
ENDBRANCH  20  22
ENDBRANCH   4  20
TORSDOF 7
ENDMDL
MODEL 5
REMARK VINA RESULT:      -7.3      5.409      8.504
REMARK  7 active torsions:
REMARK  status: ('A' for Active; 'I' for Inactive)
REMARK    1  A    between atoms: C1_2  and  C2_3 
REMARK       I    between atoms: C1_2  and  N1_9 
REMARK    2  A    between atoms: C3_4  and  C4_5 
REMARK    3  A    between atoms: N1_9  and  C5_10 
REMARK    4  A    between atoms: C6_11  and  C7_12 
REMARK    5  A    between atoms: C10_15  and  N2_16 
REMARK    6  A    between atoms: N2_16  and  C11_17 
REMARK    7  A    between atoms: C12_18  and  C13_19 
ROOT
HETATM    1  C7  UNL     1      22.434   2.803  49.065  1.00  0.00     0.029 C 
HETATM    2  C8  UNL     1      23.533   3.412  49.362  1.00  0.00     0.043 A 
HETATM    3  C9  UNL     1      24.551   2.794  50.230  1.00  0.00     0.137 A 
HETATM    4  C10 UNL     1      25.692   3.721  50.391  1.00  0.00     0.110 A 
HETATM    5  N3  UNL     1      25.765   4.877  49.852  1.00  0.00    -0.228 NA
HETATM    6  C14 UNL     1      24.737   5.410  49.022  1.00  0.00     0.235 A 
HETATM    7  N4  UNL     1      23.691   4.695  48.806  1.00  0.00    -0.246 NA
ENDROOT
BRANCH   1   8
HETATM    8  C6  UNL     1      21.703   1.575  49.280  1.00  0.00     0.019 C 
HETATM    9  C5  UNL     1      21.213   0.730  50.153  1.00  0.00     0.091 C 
BRANCH   9  10
HETATM   10  N1  UNL     1      21.121   0.532  51.530  1.00  0.00    -0.334 N 
HETATM   11  C1  UNL     1      20.621   1.146  52.733  1.00  0.00     0.245 C 
HETATM   12  O1  UNL     1      20.074   2.255  52.420  1.00  0.00    -0.268 OA
HETATM   13  H3  UNL     1      21.552  -0.370  51.881  1.00  0.00     0.168 HD
BRANCH  11  14
HETATM   14  C2  UNL     1      20.695   0.638  54.091  1.00  0.00     0.079 C 
HETATM   15  C3  UNL     1      21.317  -0.269  54.856  1.00  0.00     0.094 C 
BRANCH  15  16
HETATM   16  C4  UNL     1      22.353  -1.277  54.534  1.00  0.00     0.408 C 
HETATM   17  F1  UNL     1      21.801  -2.361  53.870  1.00  0.00    -0.167 F 
HETATM   18  F2  UNL     1      22.971  -1.667  55.699  1.00  0.00    -0.167 F 
HETATM   19  F3  UNL     1      23.275  -0.743  53.623  1.00  0.00    -0.167 F 
ENDBRANCH  15  16
ENDBRANCH  11  14
ENDBRANCH   9  10
ENDBRANCH   1   8
BRANCH   4  20
HETATM   20  N2  UNL     1      26.728   3.241  51.200  1.00  0.00    -0.354 N 
HETATM   21  H9  UNL     1      27.555   3.783  51.551  1.00  0.00     0.166 HD
BRANCH  20  22
HETATM   22  C11 UNL     1      26.792   1.899  51.665  1.00  0.00     0.086 C 
HETATM   23  C12 UNL     1      27.495   1.357  52.648  1.00  0.00     0.001 C 
BRANCH  23  24
HETATM   24  C13 UNL     1      27.598  -0.041  53.173  1.00  0.00     0.113 C 
HETATM   25 BR1  UNL     1      29.437  -0.308  53.733  1.00  0.00    -0.092 Br
ENDBRANCH  23  24
ENDBRANCH  20  22
ENDBRANCH   4  20
TORSDOF 7
ENDMDL
MODEL 6
REMARK VINA RESULT:      -7.2      3.322      4.597
REMARK  7 active torsions:
REMARK  status: ('A' for Active; 'I' for Inactive)
REMARK    1  A    between atoms: C1_2  and  C2_3 
REMARK       I    between atoms: C1_2  and  N1_9 
REMARK    2  A    between atoms: C3_4  and  C4_5 
REMARK    3  A    between atoms: N1_9  and  C5_10 
REMARK    4  A    between atoms: C6_11  and  C7_12 
REMARK    5  A    between atoms: C10_15  and  N2_16 
REMARK    6  A    between atoms: N2_16  and  C11_17 
REMARK    7  A    between atoms: C12_18  and  C13_19 
ROOT
HETATM    1  C7  UNL     1      22.267   3.000  52.138  1.00  0.00     0.029 C 
HETATM    2  C8  UNL     1      22.488   1.787  52.520  1.00  0.00     0.043 A 
HETATM    3  C9  UNL     1      23.766   1.390  53.135  1.00  0.00     0.137 A 
HETATM    4  C10 UNL     1      23.728  -0.050  53.467  1.00  0.00     0.110 A 
HETATM    5  N3  UNL     1      22.729  -0.817  53.248  1.00  0.00    -0.228 NA
HETATM    6  C14 UNL     1      21.521  -0.359  52.646  1.00  0.00     0.235 A 
HETATM    7  N4  UNL     1      21.433   0.879  52.312  1.00  0.00    -0.246 NA
ENDROOT
BRANCH   1   8
HETATM    8  C6  UNL     1      22.868   4.313  52.064  1.00  0.00     0.019 C 
HETATM    9  C5  UNL     1      23.827   5.052  51.563  1.00  0.00     0.091 C 
BRANCH   9  10
HETATM   10  N1  UNL     1      24.933   4.960  50.720  1.00  0.00    -0.334 N 
HETATM   11  C1  UNL     1      25.865   4.010  50.171  1.00  0.00     0.245 C 
HETATM   12  O1  UNL     1      25.567   2.852  50.616  1.00  0.00    -0.268 OA
HETATM   13  H3  UNL     1      25.253   5.881  50.302  1.00  0.00     0.168 HD
BRANCH  11  14
HETATM   14  C2  UNL     1      26.969   4.265  49.263  1.00  0.00     0.079 C 
HETATM   15  C3  UNL     1      27.527   5.220  48.507  1.00  0.00     0.094 C 
BRANCH  15  16
HETATM   16  C4  UNL     1      27.149   6.633  48.278  1.00  0.00     0.408 C 
HETATM   17  F1  UNL     1      25.841   6.730  47.829  1.00  0.00    -0.167 F 
HETATM   18  F2  UNL     1      28.028   7.187  47.377  1.00  0.00    -0.167 F 
HETATM   19  F3  UNL     1      27.155   7.335  49.492  1.00  0.00    -0.167 F 
ENDBRANCH  15  16
ENDBRANCH  11  14
ENDBRANCH   9  10
ENDBRANCH   1   8
BRANCH   4  20
HETATM   20  N2  UNL     1      24.894  -0.548  54.060  1.00  0.00    -0.354 N 
HETATM   21  H9  UNL     1      24.966  -1.350  54.732  1.00  0.00     0.166 HD
BRANCH  20  22
HETATM   22  C11 UNL     1      26.184  -0.001  53.814  1.00  0.00     0.086 C 
HETATM   23  C12 UNL     1      27.232   0.133  54.612  1.00  0.00     0.001 C 
BRANCH  23  24
HETATM   24  C13 UNL     1      28.603   0.698  54.402  1.00  0.00     0.113 C 
HETATM   25 BR1  UNL     1      29.705  -0.729  53.683  1.00  0.00    -0.092 Br
ENDBRANCH  23  24
ENDBRANCH  20  22
ENDBRANCH   4  20
TORSDOF 7
ENDMDL
MODEL 7
REMARK VINA RESULT:      -7.2      4.512      6.663
REMARK  7 active torsions:
REMARK  status: ('A' for Active; 'I' for Inactive)
REMARK    1  A    between atoms: C1_2  and  C2_3 
REMARK       I    between atoms: C1_2  and  N1_9 
REMARK    2  A    between atoms: C3_4  and  C4_5 
REMARK    3  A    between atoms: N1_9  and  C5_10 
REMARK    4  A    between atoms: C6_11  and  C7_12 
REMARK    5  A    between atoms: C10_15  and  N2_16 
REMARK    6  A    between atoms: N2_16  and  C11_17 
REMARK    7  A    between atoms: C12_18  and  C13_19 
ROOT
HETATM    1  C7  UNL     1      24.236   3.787  49.129  1.00  0.00     0.029 C 
HETATM    2  C8  UNL     1      23.137   3.112  49.078  1.00  0.00     0.043 A 
HETATM    3  C9  UNL     1      22.880   1.981  49.987  1.00  0.00     0.137 A 
HETATM    4  C10 UNL     1      21.549   1.406  49.696  1.00  0.00     0.110 A 
HETATM    5  N3  UNL     1      20.758   1.838  48.791  1.00  0.00    -0.228 NA
HETATM    6  C14 UNL     1      21.077   2.940  47.945  1.00  0.00     0.235 A 
HETATM    7  N4  UNL     1      22.210   3.525  48.103  1.00  0.00    -0.246 NA
ENDROOT
BRANCH   1   8
HETATM    8  C6  UNL     1      25.498   3.884  49.829  1.00  0.00     0.019 C 
HETATM    9  C5  UNL     1      26.408   3.262  50.536  1.00  0.00     0.091 C 
BRANCH   9  10
HETATM   10  N1  UNL     1      26.691   2.005  51.068  1.00  0.00    -0.334 N 
HETATM   11  C1  UNL     1      26.434   1.175  52.216  1.00  0.00     0.245 C 
HETATM   12  O1  UNL     1      25.686   1.824  53.021  1.00  0.00    -0.268 OA
HETATM   13  H3  UNL     1      27.311   1.394  50.462  1.00  0.00     0.168 HD
BRANCH  11  14
HETATM   14  C2  UNL     1      26.913  -0.172  52.468  1.00  0.00     0.079 C 
HETATM   15  C3  UNL     1      27.904  -0.857  53.054  1.00  0.00     0.094 C 
BRANCH  15  16
HETATM   16  C4  UNL     1      29.102  -0.405  53.796  1.00  0.00     0.408 C 
HETATM   17  F1  UNL     1      29.568   0.802  53.299  1.00  0.00    -0.167 F 
HETATM   18  F2  UNL     1      30.068  -1.381  53.720  1.00  0.00    -0.167 F 
HETATM   19  F3  UNL     1      28.764  -0.126  55.128  1.00  0.00    -0.167 F 
ENDBRANCH  15  16
ENDBRANCH  11  14
ENDBRANCH   9  10
ENDBRANCH   1   8
BRANCH   4  20
HETATM   20  N2  UNL     1      21.190   0.319  50.501  1.00  0.00    -0.354 N 
HETATM   21  H9  UNL     1      20.702  -0.557  50.194  1.00  0.00     0.166 HD
BRANCH  20  22
HETATM   22  C11 UNL     1      21.455   0.266  51.898  1.00  0.00     0.086 C 
HETATM   23  C12 UNL     1      20.633   0.301  52.935  1.00  0.00     0.001 C 
BRANCH  23  24
HETATM   24  C13 UNL     1      20.860   0.249  54.414  1.00  0.00     0.113 C 
HETATM   25 BR1  UNL     1      22.103  -1.203  54.750  1.00  0.00    -0.092 Br
ENDBRANCH  23  24
ENDBRANCH  20  22
ENDBRANCH   4  20
TORSDOF 7
ENDMDL
MODEL 8
REMARK VINA RESULT:      -7.1      4.854      7.940
REMARK  7 active torsions:
REMARK  status: ('A' for Active; 'I' for Inactive)
REMARK    1  A    between atoms: C1_2  and  C2_3 
REMARK       I    between atoms: C1_2  and  N1_9 
REMARK    2  A    between atoms: C3_4  and  C4_5 
REMARK    3  A    between atoms: N1_9  and  C5_10 
REMARK    4  A    between atoms: C6_11  and  C7_12 
REMARK    5  A    between atoms: C10_15  and  N2_16 
REMARK    6  A    between atoms: N2_16  and  C11_17 
REMARK    7  A    between atoms: C12_18  and  C13_19 
ROOT
HETATM    1  C7  UNL     1      20.983   0.988  53.672  1.00  0.00     0.029 C 
HETATM    2  C8  UNL     1      21.103   1.781  52.661  1.00  0.00     0.043 A 
HETATM    3  C9  UNL     1      22.215   1.652  51.703  1.00  0.00     0.137 A 
HETATM    4  C10 UNL     1      22.090   2.690  50.658  1.00  0.00     0.110 A 
HETATM    5  N3  UNL     1      21.153   3.558  50.610  1.00  0.00    -0.228 NA
HETATM    6  C14 UNL     1      20.108   3.622  51.576  1.00  0.00     0.235 A 
HETATM    7  N4  UNL     1      20.108   2.768  52.537  1.00  0.00    -0.246 NA
ENDROOT
BRANCH   1   8
HETATM    8  C6  UNL     1      21.601  -0.141  54.331  1.00  0.00     0.019 C 
HETATM    9  C5  UNL     1      22.650  -0.921  54.414  1.00  0.00     0.091 C 
BRANCH   9  10
HETATM   10  N1  UNL     1      23.904  -1.110  53.835  1.00  0.00    -0.334 N 
HETATM   11  C1  UNL     1      25.090  -0.397  53.439  1.00  0.00     0.245 C 
HETATM   12  O1  UNL     1      24.928   0.838  53.720  1.00  0.00    -0.268 OA
HETATM   13  H3  UNL     1      24.125  -2.112  53.567  1.00  0.00     0.168 HD
BRANCH  11  14
HETATM   14  C2  UNL     1      26.292  -0.932  52.825  1.00  0.00     0.079 C 
HETATM   15  C3  UNL     1      27.629  -0.880  52.881  1.00  0.00     0.094 C 
BRANCH  15  16
HETATM   16  C4  UNL     1      28.544  -0.110  53.753  1.00  0.00     0.408 C 
HETATM   17  F1  UNL     1      28.068  -0.066  55.055  1.00  0.00    -0.167 F 
HETATM   18  F2  UNL     1      28.695   1.154  53.234  1.00  0.00    -0.167 F 
HETATM   19  F3  UNL     1      29.778  -0.769  53.856  1.00  0.00    -0.167 F 
ENDBRANCH  15  16
ENDBRANCH  11  14
ENDBRANCH   9  10
ENDBRANCH   1   8
BRANCH   4  20
HETATM   20  N2  UNL     1      23.095   2.668  49.685  1.00  0.00    -0.354 N 
HETATM   21  H9  UNL     1      23.120   2.078  48.818  1.00  0.00     0.166 HD
BRANCH  20  22
HETATM   22  C11 UNL     1      24.261   3.481  49.754  1.00  0.00     0.086 C 
HETATM   23  C12 UNL     1      24.444   4.757  49.453  1.00  0.00     0.001 C 
BRANCH  23  24
HETATM   24  C13 UNL     1      25.643   5.652  49.508  1.00  0.00     0.113 C 
HETATM   25 BR1  UNL     1      27.172   4.594  48.949  1.00  0.00    -0.092 Br
ENDBRANCH  23  24
ENDBRANCH  20  22
ENDBRANCH   4  20
TORSDOF 7
ENDMDL
MODEL 9
REMARK VINA RESULT:      -7.1      5.487      7.677
REMARK  7 active torsions:
REMARK  status: ('A' for Active; 'I' for Inactive)
REMARK    1  A    between atoms: C1_2  and  C2_3 
REMARK       I    between atoms: C1_2  and  N1_9 
REMARK    2  A    between atoms: C3_4  and  C4_5 
REMARK    3  A    between atoms: N1_9  and  C5_10 
REMARK    4  A    between atoms: C6_11  and  C7_12 
REMARK    5  A    between atoms: C10_15  and  N2_16 
REMARK    6  A    between atoms: N2_16  and  C11_17 
REMARK    7  A    between atoms: C12_18  and  C13_19 
ROOT
HETATM    1  C7  UNL     1      25.856  -0.233  54.750  1.00  0.00     0.029 C 
HETATM    2  C8  UNL     1      26.639   0.591  54.139  1.00  0.00     0.043 A 
HETATM    3  C9  UNL     1      26.165   1.426  53.021  1.00  0.00     0.137 A 
HETATM    4  C10 UNL     1      27.277   2.264  52.524  1.00  0.00     0.110 A 
HETATM    5  N3  UNL     1      28.462   2.252  53.003  1.00  0.00    -0.228 NA
HETATM    6  C14 UNL     1      28.848   1.413  54.089  1.00  0.00     0.235 A 
HETATM    7  N4  UNL     1      27.965   0.637  54.608  1.00  0.00    -0.246 NA
ENDROOT
BRANCH   1   8
HETATM    8  C6  UNL     1      24.499  -0.732  54.773  1.00  0.00     0.019 C 
HETATM    9  C5  UNL     1      23.355  -0.822  54.141  1.00  0.00     0.091 C 
BRANCH   9  10
HETATM   10  N1  UNL     1      22.746  -0.436  52.949  1.00  0.00    -0.334 N 
HETATM   11  C1  UNL     1      22.371   0.731  52.192  1.00  0.00     0.245 C 
HETATM   12  O1  UNL     1      22.723   1.766  52.850  1.00  0.00    -0.268 OA
HETATM   13  H3  UNL     1      22.419  -1.236  52.335  1.00  0.00     0.168 HD
BRANCH  11  14
HETATM   14  C2  UNL     1      21.708   0.783  50.901  1.00  0.00     0.079 C 
HETATM   15  C3  UNL     1      20.499   0.767  50.324  1.00  0.00     0.094 C 
BRANCH  15  16
HETATM   16  C4  UNL     1      19.140   0.671  50.901  1.00  0.00     0.408 C 
HETATM   17  F1  UNL     1      18.198   0.422  49.915  1.00  0.00    -0.167 F 
HETATM   18  F2  UNL     1      18.859   1.836  51.575  1.00  0.00    -0.167 F 
HETATM   19  F3  UNL     1      19.056  -0.442  51.751  1.00  0.00    -0.167 F 
ENDBRANCH  15  16
ENDBRANCH  11  14
ENDBRANCH   9  10
ENDBRANCH   1   8
BRANCH   4  20
HETATM   20  N2  UNL     1      26.947   3.106  51.456  1.00  0.00    -0.354 N 
HETATM   21  H9  UNL     1      27.393   4.024  51.216  1.00  0.00     0.166 HD
BRANCH  20  22
HETATM   22  C11 UNL     1      25.917   2.806  50.521  1.00  0.00     0.086 C 
HETATM   23  C12 UNL     1      24.880   3.524  50.118  1.00  0.00     0.001 C 
BRANCH  23  24
HETATM   24  C13 UNL     1      23.775   3.255  49.144  1.00  0.00     0.113 C 
HETATM   25 BR1  UNL     1      22.280   4.385  49.650  1.00  0.00    -0.092 Br
ENDBRANCH  23  24
ENDBRANCH  20  22
ENDBRANCH   4  20
TORSDOF 7
ENDMDL
