MODEL 1
REMARK VINA RESULT:      -8.1      0.000      0.000
REMARK  5 active torsions:
REMARK  status: ('A' for Active; 'I' for Inactive)
REMARK    1  A    between atoms: N1_2  and  C2_4 
REMARK    2  A    between atoms: C2_4  and  C3_5 
REMARK    3  A    between atoms: N2_9  and  C7_10 
REMARK    4  A    between atoms: C12_15  and  C13_16 
REMARK    5  A    between atoms: C13_16  and  N3_17 
ROOT
HETATM    1  C7  UNL     1      23.665   1.262  52.638  1.00  0.00     0.019 A 
HETATM    2  C8  UNL     1      22.953   0.408  53.428  1.00  0.00     0.022 A 
HETATM    3  C9  UNL     1      23.877  -0.630  53.647  1.00  0.00    -0.012 A 
HETATM    4  C10 UNL     1      25.229  -0.717  53.135  1.00  0.00     0.017 A 
HETATM    5  C11 UNL     1      26.083  -0.179  52.470  1.00  0.00     0.026 A 
HETATM    6  C12 UNL     1      24.887   0.856  52.367  1.00  0.00     0.039 A 
HETATM    7  C13 UNL     1      26.128   0.224  52.213  1.00  0.00     0.133 A 
ENDROOT
BRANCH   1   8
HETATM    8  N2  UNL     1      23.407   2.498  52.027  1.00  0.00    -0.377 N 
HETATM    9  C3  UNL     1      22.700   3.365  51.119  1.00  0.00     0.099 C 
HETATM   10  C4  UNL     1      22.163   4.446  52.016  1.00  0.00     0.028 C 
HETATM   11  C5  UNL     1      23.351   4.682  52.922  1.00  0.00     0.022 C 
HETATM   12  C6  UNL     1      24.269   3.547  52.490  1.00  0.00     0.123 C 
BRANCH   9  13
HETATM   13  C2  UNL     1      21.587   2.639  50.389  1.00  0.00     0.150 C 
BRANCH  13  14
HETATM   14  N1  UNL     1      22.127   1.575  49.600  1.00  0.00    -0.157 NA
HETATM   15  C1  UNL     1      22.059   1.764  48.183  1.00  0.00     0.149 C 
HETATM   16  F1  UNL     1      21.736   0.382  50.036  1.00  0.00    -0.134 F 
ENDBRANCH  13  14
ENDBRANCH   9  13
ENDBRANCH   1   8
BRANCH   7  17
HETATM   17  N3  UNL     1      27.211   0.796  52.994  1.00  0.00    -0.305 N 
HETATM   18  C14 UNL     1      27.620   0.035  54.117  1.00  0.00     0.093 A 
HETATM   19  C15 UNL     1      28.611   0.556  54.846  1.00  0.00     0.010 A 
HETATM   20  C16 UNL     1      29.323   1.818  54.620  1.00  0.00     0.153 A 
HETATM   21  N4  UNL     1      28.842   2.519  53.461  1.00  0.00    -0.339 N 
HETATM   22  C17 UNL     1      27.798   2.037  52.638  1.00  0.00     0.322 A 
HETATM   23  H21 UNL     1      29.253   3.433  53.175  1.00  0.00     0.164 HD
HETATM   24  O1  UNL     1      27.302   2.553  51.618  1.00  0.00    -0.247 OA
ENDBRANCH   7  17
TORSDOF 5
ENDMDL
MODEL 2
REMARK VINA RESULT:      -7.9      2.440      4.085
REMARK  5 active torsions:
REMARK  status: ('A' for Active; 'I' for Inactive)
REMARK    1  A    between atoms: N1_2  and  C2_4 
REMARK    2  A    between atoms: C2_4  and  C3_5 
REMARK    3  A    between atoms: N2_9  and  C7_10 
REMARK    4  A    between atoms: C12_15  and  C13_16 
REMARK    5  A    between atoms: C13_16  and  N3_17 
ROOT
HETATM    1  C7  UNL     1      23.287   1.401  52.041  1.00  0.00     0.019 A 
HETATM    2  C8  UNL     1      23.525   2.362  51.102  1.00  0.00     0.022 A 
HETATM    3  C9  UNL     1      24.805   2.819  51.466  1.00  0.00    -0.012 A 
HETATM    4  C10 UNL     1      25.617   2.350  52.570  1.00  0.00     0.017 A 
HETATM    5  C11 UNL     1      25.692   1.584  53.501  1.00  0.00     0.026 A 
HETATM    6  C12 UNL     1      24.264   1.239  52.907  1.00  0.00     0.039 A 
HETATM    7  C13 UNL     1      25.417   1.248  53.704  1.00  0.00     0.133 A 
ENDROOT
BRANCH   1   8
HETATM    8  N2  UNL     1      22.229   0.524  52.318  1.00  0.00    -0.377 N 
HETATM    9  C3  UNL     1      21.392  -0.252  53.199  1.00  0.00     0.099 C 
HETATM   10  C4  UNL     1      20.011   0.272  52.919  1.00  0.00     0.028 C 
HETATM   11  C5  UNL     1      20.052   0.395  51.412  1.00  0.00     0.022 C 
HETATM   12  C6  UNL     1      21.522   0.104  51.142  1.00  0.00     0.123 C 
BRANCH   9  13
HETATM   13  C2  UNL     1      21.776  -0.068  54.654  1.00  0.00     0.150 C 
BRANCH  13  14
HETATM   14  N1  UNL     1      22.199  -1.315  55.215  1.00  0.00    -0.157 NA
HETATM   15  C1  UNL     1      23.578  -1.385  55.588  1.00  0.00     0.149 C 
HETATM   16  F1  UNL     1      21.741  -2.354  54.524  1.00  0.00    -0.134 F 
ENDBRANCH  13  14
ENDBRANCH   9  13
ENDBRANCH   1   8
BRANCH   7  17
HETATM   17  N3  UNL     1      26.327   0.137  53.482  1.00  0.00    -0.305 N 
HETATM   18  C14 UNL     1      25.901  -0.817  52.525  1.00  0.00     0.093 A 
HETATM   19  C15 UNL     1      26.729  -1.846  52.319  1.00  0.00     0.010 A 
HETATM   20  C16 UNL     1      28.021  -2.101  52.963  1.00  0.00     0.153 A 
HETATM   21  N4  UNL     1      28.370  -1.082  53.916  1.00  0.00    -0.339 N 
HETATM   22  C17 UNL     1      27.550   0.037  54.192  1.00  0.00     0.322 A 
HETATM   23  H21 UNL     1      29.261  -1.129  54.452  1.00  0.00     0.164 HD
HETATM   24  O1  UNL     1      27.747   0.975  54.990  1.00  0.00    -0.247 OA
ENDBRANCH   7  17
TORSDOF 5
ENDMDL
MODEL 3
REMARK VINA RESULT:      -7.8      1.915      2.209
REMARK  5 active torsions:
REMARK  status: ('A' for Active; 'I' for Inactive)
REMARK    1  A    between atoms: N1_2  and  C2_4 
REMARK    2  A    between atoms: C2_4  and  C3_5 
REMARK    3  A    between atoms: N2_9  and  C7_10 
REMARK    4  A    between atoms: C12_15  and  C13_16 
REMARK    5  A    between atoms: C13_16  and  N3_17 
ROOT
HETATM    1  C7  UNL     1      24.067   1.853  51.615  1.00  0.00     0.019 A 
HETATM    2  C8  UNL     1      23.044   1.840  52.517  1.00  0.00     0.022 A 
HETATM    3  C9  UNL     1      23.464   0.852  53.426  1.00  0.00    -0.012 A 
HETATM    4  C10 UNL     1      24.685   0.076  53.368  1.00  0.00     0.017 A 
HETATM    5  C11 UNL     1      25.707  -0.136  52.758  1.00  0.00     0.026 A 
HETATM    6  C12 UNL     1      25.032   0.998  51.881  1.00  0.00     0.039 A 
HETATM    7  C13 UNL     1      25.919   0.025  52.358  1.00  0.00     0.133 A 
ENDROOT
BRANCH   1   8
HETATM    8  N2  UNL     1      24.349   2.570  50.444  1.00  0.00    -0.377 N 
HETATM    9  C3  UNL     1      23.983   3.250  49.227  1.00  0.00     0.099 C 
HETATM   10  C4  UNL     1      24.539   4.634  49.419  1.00  0.00     0.028 C 
HETATM   11  C5  UNL     1      25.883   4.318  50.036  1.00  0.00     0.022 C 
HETATM   12  C6  UNL     1      25.750   2.819  50.259  1.00  0.00     0.123 C 
BRANCH   9  13
HETATM   13  C2  UNL     1      22.481   3.274  49.020  1.00  0.00     0.150 C 
BRANCH  13  14
HETATM   14  N1  UNL     1      22.079   2.176  48.195  1.00  0.00    -0.157 NA
HETATM   15  C1  UNL     1      21.458   1.086  48.882  1.00  0.00     0.149 C 
HETATM   16  F1  UNL     1      23.020   1.838  47.320  1.00  0.00    -0.134 F 
ENDBRANCH  13  14
ENDBRANCH   9  13
ENDBRANCH   1   8
BRANCH   7  17
HETATM   17  N3  UNL     1      27.111   0.544  53.007  1.00  0.00    -0.305 N 
HETATM   18  C14 UNL     1      27.192   1.956  53.092  1.00  0.00     0.093 A 
HETATM   19  C15 UNL     1      28.288   2.443  53.681  1.00  0.00     0.010 A 
HETATM   20  C16 UNL     1      29.412   1.691  54.247  1.00  0.00     0.153 A 
HETATM   21  N4  UNL     1      29.242   0.270  54.116  1.00  0.00    -0.339 N 
HETATM   22  C17 UNL     1      28.113  -0.326  53.507  1.00  0.00     0.322 A 
HETATM   23  H21 UNL     1      29.961  -0.394  54.474  1.00  0.00     0.164 HD
HETATM   24  O1  UNL     1      27.860  -1.534  53.338  1.00  0.00    -0.247 OA
ENDBRANCH   7  17
TORSDOF 5
ENDMDL
MODEL 4
REMARK VINA RESULT:      -7.7      2.996      6.342
REMARK  5 active torsions:
REMARK  status: ('A' for Active; 'I' for Inactive)
REMARK    1  A    between atoms: N1_2  and  C2_4 
REMARK    2  A    between atoms: C2_4  and  C3_5 
REMARK    3  A    between atoms: N2_9  and  C7_10 
REMARK    4  A    between atoms: C12_15  and  C13_16 
REMARK    5  A    between atoms: C13_16  and  N3_17 
ROOT
HETATM    1  C7  UNL     1      23.494  -0.002  53.478  1.00  0.00     0.019 A 
HETATM    2  C8  UNL     1      23.050  -1.210  53.930  1.00  0.00     0.022 A 
HETATM    3  C9  UNL     1      21.654  -1.037  53.914  1.00  0.00    -0.012 A 
HETATM    4  C10 UNL     1      20.927   0.149  53.512  1.00  0.00     0.017 A 
HETATM    5  C11 UNL     1      21.011   1.282  53.099  1.00  0.00     0.026 A 
HETATM    6  C12 UNL     1      22.534   0.856  53.201  1.00  0.00     0.039 A 
HETATM    7  C13 UNL     1      21.361   1.589  52.981  1.00  0.00     0.133 A 
ENDROOT
BRANCH   1   8
HETATM    8  N2  UNL     1      24.752   0.566  53.232  1.00  0.00    -0.377 N 
HETATM    9  C3  UNL     1      26.180   0.507  53.046  1.00  0.00     0.099 C 
HETATM   10  C4  UNL     1      26.379   1.103  51.680  1.00  0.00     0.028 C 
HETATM   11  C5  UNL     1      25.413   2.266  51.732  1.00  0.00     0.022 C 
HETATM   12  C6  UNL     1      24.703   1.988  53.050  1.00  0.00     0.123 C 
BRANCH   9  13
HETATM   13  C2  UNL     1      26.704  -0.914  53.119  1.00  0.00     0.150 C 
BRANCH  13  14
HETATM   14  N1  UNL     1      27.926  -0.952  53.861  1.00  0.00    -0.157 NA
HETATM   15  C1  UNL     1      28.142   0.151  54.747  1.00  0.00     0.149 C 
HETATM   16  F1  UNL     1      28.963  -1.284  53.100  1.00  0.00    -0.134 F 
ENDBRANCH  13  14
ENDBRANCH   9  13
ENDBRANCH   1   8
BRANCH   7  17
HETATM   17  N3  UNL     1      20.981   1.739  51.586  1.00  0.00    -0.305 N 
HETATM   18  C14 UNL     1      21.673   0.904  50.674  1.00  0.00     0.093 A 
HETATM   19  C15 UNL     1      21.336   1.039  49.389  1.00  0.00     0.010 A 
HETATM   20  C16 UNL     1      20.336   1.944  48.813  1.00  0.00     0.153 A 
HETATM   21  N4  UNL     1      19.686   2.749  49.812  1.00  0.00    -0.339 N 
HETATM   22  C17 UNL     1      19.985   2.667  51.191  1.00  0.00     0.322 A 
HETATM   23  H21 UNL     1      18.951   3.440  49.552  1.00  0.00     0.164 HD
HETATM   24  O1  UNL     1      19.492   3.308  52.140  1.00  0.00    -0.247 OA
ENDBRANCH   7  17
TORSDOF 5
ENDMDL
MODEL 5
REMARK VINA RESULT:      -7.7      1.890      3.125
REMARK  5 active torsions:
REMARK  status: ('A' for Active; 'I' for Inactive)
REMARK    1  A    between atoms: N1_2  and  C2_4 
REMARK    2  A    between atoms: C2_4  and  C3_5 
REMARK    3  A    between atoms: N2_9  and  C7_10 
REMARK    4  A    between atoms: C12_15  and  C13_16 
REMARK    5  A    between atoms: C13_16  and  N3_17 
ROOT
HETATM    1  C7  UNL     1      24.441   1.747  52.083  1.00  0.00     0.019 A 
HETATM    2  C8  UNL     1      24.546   2.303  50.842  1.00  0.00     0.022 A 
HETATM    3  C9  UNL     1      25.892   2.709  50.813  1.00  0.00    -0.012 A 
HETATM    4  C10 UNL     1      26.873   2.552  51.866  1.00  0.00     0.017 A 
HETATM    5  C11 UNL     1      27.085   2.140  52.982  1.00  0.00     0.026 A 
HETATM    6  C12 UNL     1      25.555   1.777  52.783  1.00  0.00     0.039 A 
HETATM    7  C13 UNL     1      26.836   1.925  53.332  1.00  0.00     0.133 A 
ENDROOT
BRANCH   1   8
HETATM    8  N2  UNL     1      23.412   1.137  52.815  1.00  0.00    -0.377 N 
HETATM    9  C3  UNL     1      22.031   0.829  53.088  1.00  0.00     0.099 C 
HETATM   10  C4  UNL     1      21.995  -0.674  53.050  1.00  0.00     0.028 C 
HETATM   11  C5  UNL     1      23.271  -1.009  53.789  1.00  0.00     0.022 C 
HETATM   12  C6  UNL     1      23.890   0.374  53.932  1.00  0.00     0.123 C 
BRANCH   9  13
HETATM   13  C2  UNL     1      21.099   1.437  52.059  1.00  0.00     0.150 C 
BRANCH  13  14
HETATM   14  N1  UNL     1      20.859   0.507  50.999  1.00  0.00    -0.157 NA
HETATM   15  C1  UNL     1      21.361   0.895  49.716  1.00  0.00     0.149 C 
HETATM   16  F1  UNL     1      19.612   0.048  51.009  1.00  0.00    -0.134 F 
ENDBRANCH  13  14
ENDBRANCH   9  13
ENDBRANCH   1   8
BRANCH   7  17
HETATM   17  N3  UNL     1      27.632   0.710  53.372  1.00  0.00    -0.305 N 
HETATM   18  C14 UNL     1      27.091  -0.396  52.671  1.00  0.00     0.093 A 
HETATM   19  C15 UNL     1      27.812  -1.520  52.708  1.00  0.00     0.010 A 
HETATM   20  C16 UNL     1      29.095  -1.741  53.384  1.00  0.00     0.153 A 
HETATM   21  N4  UNL     1      29.565  -0.566  54.065  1.00  0.00    -0.339 N 
HETATM   22  C17 UNL     1      28.862   0.660  54.076  1.00  0.00     0.322 A 
HETATM   23  H21 UNL     1      30.465  -0.573  54.591  1.00  0.00     0.164 HD
HETATM   24  O1  UNL     1      29.169   1.735  54.627  1.00  0.00    -0.247 OA
ENDBRANCH   7  17
TORSDOF 5
ENDMDL
MODEL 6
REMARK VINA RESULT:      -7.6      2.623      6.580
REMARK  5 active torsions:
REMARK  status: ('A' for Active; 'I' for Inactive)
REMARK    1  A    between atoms: N1_2  and  C2_4 
REMARK    2  A    between atoms: C2_4  and  C3_5 
REMARK    3  A    between atoms: N2_9  and  C7_10 
REMARK    4  A    between atoms: C12_15  and  C13_16 
REMARK    5  A    between atoms: C13_16  and  N3_17 
ROOT
HETATM    1  C7  UNL     1      24.152   1.640  52.860  1.00  0.00     0.019 A 
HETATM    2  C8  UNL     1      24.468   2.912  53.238  1.00  0.00     0.022 A 
HETATM    3  C9  UNL     1      23.960   3.672  52.168  1.00  0.00    -0.012 A 
HETATM    4  C10 UNL     1      23.283   3.174  50.989  1.00  0.00     0.017 A 
HETATM    5  C11 UNL     1      22.882   2.195  50.404  1.00  0.00     0.026 A 
HETATM    6  C12 UNL     1      23.525   1.559  51.706  1.00  0.00     0.039 A 
HETATM    7  C13 UNL     1      22.882   1.720  50.471  1.00  0.00     0.133 A 
ENDROOT
BRANCH   1   8
HETATM    8  N2  UNL     1      24.338   0.365  53.413  1.00  0.00    -0.377 N 
HETATM    9  C3  UNL     1      25.092  -0.634  54.127  1.00  0.00     0.099 C 
HETATM   10  C4  UNL     1      24.195  -0.991  55.280  1.00  0.00     0.028 C 
HETATM   11  C5  UNL     1      22.850  -1.041  54.590  1.00  0.00     0.022 C 
HETATM   12  C6  UNL     1      23.216  -0.506  53.212  1.00  0.00     0.123 C 
BRANCH   9  13
HETATM   13  C2  UNL     1      26.431  -0.103  54.603  1.00  0.00     0.150 C 
BRANCH  13  14
HETATM   14  N1  UNL     1      27.493  -0.919  54.100  1.00  0.00    -0.157 NA
HETATM   15  C1  UNL     1      28.789  -0.315  54.110  1.00  0.00     0.149 C 
HETATM   16  F1  UNL     1      27.158  -1.534  52.970  1.00  0.00    -0.134 F 
ENDBRANCH  13  14
ENDBRANCH   9  13
ENDBRANCH   1   8
BRANCH   7  17
HETATM   17  N3  UNL     1      21.437   1.563  50.506  1.00  0.00    -0.305 N 
HETATM   18  C14 UNL     1      20.828   1.813  51.760  1.00  0.00     0.093 A 
HETATM   19  C15 UNL     1      19.500   1.665  51.804  1.00  0.00     0.010 A 
HETATM   20  C16 UNL     1      18.605   1.277  50.709  1.00  0.00     0.153 A 
HETATM   21  N4  UNL     1      19.311   1.046  49.479  1.00  0.00    -0.339 N 
HETATM   22  C17 UNL     1      20.712   1.181  49.349  1.00  0.00     0.322 A 
HETATM   23  H21 UNL     1      18.805   0.763  48.613  1.00  0.00     0.164 HD
HETATM   24  O1  UNL     1      21.427   1.007  48.342  1.00  0.00    -0.247 OA
ENDBRANCH   7  17
TORSDOF 5
ENDMDL
MODEL 7
REMARK VINA RESULT:      -7.3      2.670      5.974
REMARK  5 active torsions:
REMARK  status: ('A' for Active; 'I' for Inactive)
REMARK    1  A    between atoms: N1_2  and  C2_4 
REMARK    2  A    between atoms: C2_4  and  C3_5 
REMARK    3  A    between atoms: N2_9  and  C7_10 
REMARK    4  A    between atoms: C12_15  and  C13_16 
REMARK    5  A    between atoms: C13_16  and  N3_17 
ROOT
HETATM    1  C7  UNL     1      22.960  -0.116  53.554  1.00  0.00     0.019 A 
HETATM    2  C8  UNL     1      22.431  -1.293  53.997  1.00  0.00     0.022 A 
HETATM    3  C9  UNL     1      21.050  -1.028  53.962  1.00  0.00    -0.012 A 
HETATM    4  C10 UNL     1      20.408   0.203  53.550  1.00  0.00     0.017 A 
HETATM    5  C11 UNL     1      20.573   1.328  53.140  1.00  0.00     0.026 A 
HETATM    6  C12 UNL     1      22.063   0.803  53.265  1.00  0.00     0.039 A 
HETATM    7  C13 UNL     1      20.944   1.612  53.028  1.00  0.00     0.133 A 
ENDROOT
BRANCH   1   8
HETATM    8  N2  UNL     1      24.256   0.368  53.328  1.00  0.00    -0.377 N 
HETATM    9  C3  UNL     1      25.220   1.412  53.088  1.00  0.00     0.099 C 
HETATM   10  C4  UNL     1      26.188   1.262  54.229  1.00  0.00     0.028 C 
HETATM   11  C5  UNL     1      26.323  -0.243  54.293  1.00  0.00     0.022 C 
HETATM   12  C6  UNL     1      25.248  -0.669  53.302  1.00  0.00     0.123 C 
BRANCH   9  13
HETATM   13  C2  UNL     1      24.578   2.785  53.076  1.00  0.00     0.150 C 
BRANCH  13  14
HETATM   14  N1  UNL     1      24.344   3.209  51.729  1.00  0.00    -0.157 NA
HETATM   15  C1  UNL     1      23.299   4.171  51.561  1.00  0.00     0.149 C 
HETATM   16  F1  UNL     1      24.322   2.187  50.880  1.00  0.00    -0.134 F 
ENDBRANCH  13  14
ENDBRANCH   9  13
ENDBRANCH   1   8
BRANCH   7  17
HETATM   17  N3  UNL     1      20.596   1.787  51.628  1.00  0.00    -0.305 N 
HETATM   18  C14 UNL     1      21.251   0.914  50.724  1.00  0.00     0.093 A 
HETATM   19  C15 UNL     1      20.942   1.071  49.434  1.00  0.00     0.010 A 
HETATM   20  C16 UNL     1      20.008   2.036  48.846  1.00  0.00     0.153 A 
HETATM   21  N4  UNL     1      19.392   2.877  49.837  1.00  0.00    -0.339 N 
HETATM   22  C17 UNL     1      19.664   2.774  51.221  1.00  0.00     0.322 A 
HETATM   23  H21 UNL     1      18.704   3.611  49.568  1.00  0.00     0.164 HD
HETATM   24  O1  UNL     1      19.195   3.442  52.163  1.00  0.00    -0.247 OA
ENDBRANCH   7  17
TORSDOF 5
ENDMDL
MODEL 8
REMARK VINA RESULT:      -7.0      3.261      3.932
REMARK  5 active torsions:
REMARK  status: ('A' for Active; 'I' for Inactive)
REMARK    1  A    between atoms: N1_2  and  C2_4 
REMARK    2  A    between atoms: C2_4  and  C3_5 
REMARK    3  A    between atoms: N2_9  and  C7_10 
REMARK    4  A    between atoms: C12_15  and  C13_16 
REMARK    5  A    between atoms: C13_16  and  N3_17 
ROOT
HETATM    1  C7  UNL     1      24.452   3.598  51.243  1.00  0.00     0.019 A 
HETATM    2  C8  UNL     1      23.596   4.067  52.196  1.00  0.00     0.022 A 
HETATM    3  C9  UNL     1      23.554   2.996  53.107  1.00  0.00    -0.012 A 
HETATM    4  C10 UNL     1      24.261   1.737  53.007  1.00  0.00     0.017 A 
HETATM    5  C11 UNL     1      25.027   1.069  52.352  1.00  0.00     0.026 A 
HETATM    6  C12 UNL     1      24.915   2.389  51.482  1.00  0.00     0.039 A 
HETATM    7  C13 UNL     1      25.266   1.112  51.938  1.00  0.00     0.133 A 
ENDROOT
BRANCH   1   8
HETATM    8  N2  UNL     1      24.971   4.098  50.041  1.00  0.00    -0.377 N 
HETATM    9  C3  UNL     1      25.033   5.047  48.958  1.00  0.00     0.099 C 
HETATM   10  C4  UNL     1      26.452   5.543  49.008  1.00  0.00     0.028 C 
HETATM   11  C5  UNL     1      27.196   4.252  49.264  1.00  0.00     0.022 C 
HETATM   12  C6  UNL     1      26.036   3.297  49.509  1.00  0.00     0.123 C 
BRANCH   9  13
HETATM   13  C2  UNL     1      24.038   6.178  49.136  1.00  0.00     0.150 C 
BRANCH  13  14
HETATM   14  N1  UNL     1      24.425   7.306  48.345  1.00  0.00    -0.157 NA
HETATM   15  C1  UNL     1      24.001   8.579  48.840  1.00  0.00     0.149 C 
HETATM   16  F1  UNL     1      24.220   7.100  47.048  1.00  0.00    -0.134 F 
ENDBRANCH  13  14
ENDBRANCH   9  13
ENDBRANCH   1   8
BRANCH   7  17
HETATM   17  N3  UNL     1      26.598   1.008  52.512  1.00  0.00    -0.305 N 
HETATM   18  C14 UNL     1      27.216   2.240  52.841  1.00  0.00     0.093 A 
HETATM   19  C15 UNL     1      28.443   2.155  53.363  1.00  0.00     0.010 A 
HETATM   20  C16 UNL     1      29.221   0.943  53.635  1.00  0.00     0.153 A 
HETATM   21  N4  UNL     1      28.514  -0.255  53.271  1.00  0.00    -0.339 N 
HETATM   22  C17 UNL     1      27.215  -0.252  52.714  1.00  0.00     0.322 A 
HETATM   23  H21 UNL     1      28.942  -1.195  53.407  1.00  0.00     0.164 HD
HETATM   24  O1  UNL     1      26.510  -1.219  52.362  1.00  0.00    -0.247 OA
ENDBRANCH   7  17
TORSDOF 5
ENDMDL
MODEL 9
REMARK VINA RESULT:      -6.7      8.876     10.602
REMARK  5 active torsions:
REMARK  status: ('A' for Active; 'I' for Inactive)
REMARK    1  A    between atoms: N1_2  and  C2_4 
REMARK    2  A    between atoms: C2_4  and  C3_5 
REMARK    3  A    between atoms: N2_9  and  C7_10 
REMARK    4  A    between atoms: C12_15  and  C13_16 
REMARK    5  A    between atoms: C13_16  and  N3_17 
ROOT
HETATM    1  C7  UNL     1      30.949   7.627  46.703  1.00  0.00     0.019 A 
HETATM    2  C8  UNL     1      30.906   7.879  45.363  1.00  0.00     0.022 A 
HETATM    3  C9  UNL     1      32.251   7.707  44.987  1.00  0.00    -0.012 A 
HETATM    4  C10 UNL     1      33.359   7.353  45.850  1.00  0.00     0.017 A 
HETATM    5  C11 UNL     1      33.703   7.085  46.977  1.00  0.00     0.026 A 
HETATM    6  C12 UNL     1      32.148   7.330  47.158  1.00  0.00     0.039 A 
HETATM    7  C13 UNL     1      33.497   7.048  47.409  1.00  0.00     0.133 A 
ENDROOT
BRANCH   1   8
HETATM    8  N2  UNL     1      30.006   7.608  47.740  1.00  0.00    -0.377 N 
HETATM    9  C3  UNL     1      29.077   8.228  48.651  1.00  0.00     0.099 C 
HETATM   10  C4  UNL     1      27.777   7.535  48.348  1.00  0.00     0.028 C 
HETATM   11  C5  UNL     1      28.244   6.104  48.198  1.00  0.00     0.022 C 
HETATM   12  C6  UNL     1      29.754   6.290  48.249  1.00  0.00     0.123 C 
BRANCH   9  13
HETATM   13  C2  UNL     1      28.978   9.724  48.430  1.00  0.00     0.150 C 
BRANCH  13  14
HETATM   14  N1  UNL     1      30.097  10.387  49.027  1.00  0.00    -0.157 NA
HETATM   15  C1  UNL     1      30.944  11.100  48.122  1.00  0.00     0.149 C 
HETATM   16  F1  UNL     1      30.725   9.612  49.906  1.00  0.00    -0.134 F 
ENDBRANCH  13  14
ENDBRANCH   9  13
ENDBRANCH   1   8
BRANCH   7  17
HETATM   17  N3  UNL     1      33.804   5.642  47.614  1.00  0.00    -0.305 N 
HETATM   18  C14 UNL     1      32.968   4.730  46.924  1.00  0.00     0.093 A 
HETATM   19  C15 UNL     1      33.239   3.435  47.111  1.00  0.00     0.010 A 
HETATM   20  C16 UNL     1      34.295   2.850  47.943  1.00  0.00     0.153 A 
HETATM   21  N4  UNL     1      35.091   3.850  48.602  1.00  0.00    -0.339 N 
HETATM   22  C17 UNL     1      34.871   5.239  48.457  1.00  0.00     0.322 A 
HETATM   23  H21 UNL     1      35.881   3.583  49.227  1.00  0.00     0.164 HD
HETATM   24  O1  UNL     1      35.490   6.189  48.974  1.00  0.00    -0.247 OA
ENDBRANCH   7  17
TORSDOF 5
ENDMDL
