MODEL 1
REMARK VINA RESULT:      -8.6      0.000      0.000
REMARK  3 active torsions:
REMARK  status: ('A' for Active; 'I' for Inactive)
REMARK    1  A    between atoms: C5_7  and  O3_8 
REMARK    2  A    between atoms: C9_13  and  C10_14 
REMARK    3  A    between atoms: C11_15  and  C12_16 
ROOT
HETATM    1  O1  UNL     1      22.256   2.342  47.878  1.00  0.00    -0.148 OA
HETATM    2  C1  UNL     1      21.429   1.847  48.689  1.00  0.00     0.373 A 
HETATM    3  C2  UNL     1      20.345   1.053  49.391  1.00  0.00     0.248 C 
HETATM    4  O2  UNL     1      20.372   1.598  50.727  1.00  0.00    -0.377 OA
HETATM    5  C3  UNL     1      20.152   0.790  51.834  1.00  0.00     0.162 C 
HETATM    6  C4  UNL     1      21.276   0.463  52.506  1.00  0.00     0.087 C 
HETATM    7  C5  UNL     1      21.642  -0.339  53.712  1.00  0.00     0.063 C 
HETATM    8  C6  UNL     1      22.988  -0.216  53.797  1.00  0.00     0.051 A 
HETATM    9  C7  UNL     1      23.625  -0.913  54.906  1.00  0.00     0.185 A 
HETATM   10  O4  UNL     1      22.958  -1.562  55.750  1.00  0.00    -0.288 OA
HETATM   11  C8  UNL     1      25.055  -0.948  55.173  1.00  0.00     0.092 A 
HETATM   12  C9  UNL     1      25.863  -0.304  54.357  1.00  0.00     0.073 A 
HETATM   13  O5  UNL     1      25.298   0.361  53.304  1.00  0.00    -0.341 OA
HETATM   14  C13 UNL     1      23.974   0.518  52.952  1.00  0.00     0.168 A 
HETATM   15  C14 UNL     1      23.661   1.978  52.865  1.00  0.00     0.037 C 
HETATM   16  C15 UNL     1      24.097   2.595  51.523  1.00  0.00     0.003 C 
HETATM   17  C16 UNL     1      23.468   3.952  51.492  1.00  0.00     0.002 C 
HETATM   18  C17 UNL     1      23.618   4.699  50.196  1.00  0.00     0.031 C 
HETATM   19  C18 UNL     1      23.290   3.792  49.017  1.00  0.00     0.275 C 
HETATM   20  N1  UNL     1      22.202   2.879  49.307  1.00  0.00     0.088 N 
HETATM   21  H22 UNL     1      21.823   2.998  50.297  1.00  0.00     0.322 HD
ENDROOT
BRANCH  12  22
HETATM   22  C10 UNL     1      27.306  -0.293  54.558  1.00  0.00     0.035 C 
HETATM   23  C11 UNL     1      28.205  -0.522  53.604  1.00  0.00     0.007 C 
BRANCH  23  24
HETATM   24  C12 UNL     1      29.674  -0.515  53.787  1.00  0.00     0.249 C 
HETATM   25  F1  UNL     1      30.107  -1.828  53.794  1.00  0.00    -0.251 F 
ENDBRANCH  23  24
ENDBRANCH  12  22
BRANCH   7  26
HETATM   26  O3  UNL     1      21.040  -1.144  54.736  1.00  0.00    -0.364 OA
HETATM   27  H5  UNL     1      21.655  -1.416  55.498  1.00  0.00     0.217 HD
ENDBRANCH   7  26
TORSDOF 3
ENDMDL
MODEL 2
REMARK VINA RESULT:      -7.9      3.127      4.559
REMARK  3 active torsions:
REMARK  status: ('A' for Active; 'I' for Inactive)
REMARK    1  A    between atoms: C5_7  and  O3_8 
REMARK    2  A    between atoms: C9_13  and  C10_14 
REMARK    3  A    between atoms: C11_15  and  C12_16 
ROOT
HETATM    1  O1  UNL     1      18.097   0.382  50.931  1.00  0.00    -0.148 OA
HETATM    2  C1  UNL     1      18.686  -0.134  51.919  1.00  0.00     0.373 A 
HETATM    3  C2  UNL     1      19.251  -1.052  52.985  1.00  0.00     0.248 C 
HETATM    4  O2  UNL     1      20.015  -0.145  53.806  1.00  0.00    -0.377 OA
HETATM    5  C3  UNL     1      21.214  -0.540  54.385  1.00  0.00     0.162 C 
HETATM    6  C4  UNL     1      22.309  -0.065  53.755  1.00  0.00     0.087 C 
HETATM    7  C5  UNL     1      23.792  -0.152  53.912  1.00  0.00     0.063 C 
HETATM    8  C6  UNL     1      24.279   0.598  52.895  1.00  0.00     0.051 A 
HETATM    9  C7  UNL     1      25.730   0.690  52.805  1.00  0.00     0.185 A 
HETATM   10  O4  UNL     1      26.481   0.131  53.644  1.00  0.00    -0.288 OA
HETATM   11  C8  UNL     1      26.469   1.410  51.781  1.00  0.00     0.092 A 
HETATM   12  C9  UNL     1      25.793   2.040  50.842  1.00  0.00     0.073 A 
HETATM   13  O5  UNL     1      24.428   1.974  50.895  1.00  0.00    -0.341 OA
HETATM   14  C13 UNL     1      23.598   1.374  51.819  1.00  0.00     0.168 A 
HETATM   15  C14 UNL     1      22.661   2.400  52.373  1.00  0.00     0.037 C 
HETATM   16  C15 UNL     1      21.457   2.659  51.448  1.00  0.00     0.003 C 
HETATM   17  C16 UNL     1      20.504   3.474  52.265  1.00  0.00     0.002 C 
HETATM   18  C17 UNL     1      19.165   3.723  51.627  1.00  0.00     0.031 C 
HETATM   19  C18 UNL     1      18.601   2.432  51.047  1.00  0.00     0.275 C 
HETATM   20  N1  UNL     1      18.909   1.277  51.867  1.00  0.00     0.088 N 
HETATM   21  H22 UNL     1      19.479   1.531  52.732  1.00  0.00     0.322 HD
ENDROOT
BRANCH  12  22
HETATM   22  C10 UNL     1      26.462   2.782  49.782  1.00  0.00     0.035 C 
HETATM   23  C11 UNL     1      26.670   4.096  49.793  1.00  0.00     0.007 C 
BRANCH  23  24
HETATM   24  C12 UNL     1      27.347   4.869  48.727  1.00  0.00     0.249 C 
HETATM   25  F1  UNL     1      26.457   5.818  48.259  1.00  0.00    -0.251 F 
ENDBRANCH  23  24
ENDBRANCH  12  22
BRANCH   7  26
HETATM   26  O3  UNL     1      24.788  -0.749  54.756  1.00  0.00    -0.364 OA
HETATM   27  H5  UNL     1      25.128  -0.163  55.513  1.00  0.00     0.217 HD
ENDBRANCH   7  26
TORSDOF 3
ENDMDL
MODEL 3
REMARK VINA RESULT:      -7.9      3.701      6.169
REMARK  3 active torsions:
REMARK  status: ('A' for Active; 'I' for Inactive)
REMARK    1  A    between atoms: C5_7  and  O3_8 
REMARK    2  A    between atoms: C9_13  and  C10_14 
REMARK    3  A    between atoms: C11_15  and  C12_16 
ROOT
HETATM    1  O1  UNL     1      22.649   5.168  49.835  1.00  0.00    -0.148 OA
HETATM    2  C1  UNL     1      23.475   4.499  50.513  1.00  0.00     0.373 A 
HETATM    3  C2  UNL     1      24.530   4.004  51.482  1.00  0.00     0.248 C 
HETATM    4  O2  UNL     1      24.602   2.596  51.174  1.00  0.00    -0.377 OA
HETATM    5  C3  UNL     1      24.814   1.655  52.173  1.00  0.00     0.162 C 
HETATM    6  C4  UNL     1      23.701   0.986  52.540  1.00  0.00     0.087 C 
HETATM    7  C5  UNL     1      23.333  -0.086  53.513  1.00  0.00     0.063 C 
HETATM    8  C6  UNL     1      22.004  -0.266  53.323  1.00  0.00     0.051 A 
HETATM    9  C7  UNL     1      21.370  -1.276  54.160  1.00  0.00     0.185 A 
HETATM   10  O4  UNL     1      22.027  -1.959  54.985  1.00  0.00    -0.288 OA
HETATM   11  C8  UNL     1      19.955  -1.613  54.151  1.00  0.00     0.092 A 
HETATM   12  C9  UNL     1      19.159  -0.965  53.326  1.00  0.00     0.073 A 
HETATM   13  O5  UNL     1      19.721  -0.009  52.526  1.00  0.00    -0.341 OA
HETATM   14  C13 UNL     1      21.036   0.385  52.394  1.00  0.00     0.168 A 
HETATM   15  C14 UNL     1      21.449   0.242  50.963  1.00  0.00     0.037 C 
HETATM   16  C15 UNL     1      20.997   1.434  50.099  1.00  0.00     0.003 C 
HETATM   17  C16 UNL     1      21.719   1.271  48.798  1.00  0.00     0.002 C 
HETATM   18  C17 UNL     1      21.565   2.412  47.832  1.00  0.00     0.031 C 
HETATM   19  C18 UNL     1      21.774   3.744  48.540  1.00  0.00     0.275 C 
HETATM   20  N1  UNL     1      22.806   3.674  49.557  1.00  0.00     0.088 N 
HETATM   21  H22 UNL     1      23.236   2.700  49.633  1.00  0.00     0.322 HD
ENDROOT
BRANCH  12  22
HETATM   22  C10 UNL     1      17.731  -1.246  53.260  1.00  0.00     0.035 C 
HETATM   23  C11 UNL     1      16.920  -0.822  52.294  1.00  0.00     0.007 C 
BRANCH  23  24
HETATM   24  C12 UNL     1      15.467  -1.096  52.208  1.00  0.00     0.249 C 
HETATM   25  F1  UNL     1      15.304  -2.440  51.933  1.00  0.00    -0.251 F 
ENDBRANCH  23  24
ENDBRANCH  12  22
BRANCH   7  26
HETATM   26  O3  UNL     1      23.922  -0.924  54.519  1.00  0.00    -0.364 OA
HETATM   27  H5  UNL     1      23.652  -0.716  55.476  1.00  0.00     0.217 HD
ENDBRANCH   7  26
TORSDOF 3
ENDMDL
MODEL 4
REMARK VINA RESULT:      -7.6      1.900      2.204
REMARK  3 active torsions:
REMARK  status: ('A' for Active; 'I' for Inactive)
REMARK    1  A    between atoms: C5_7  and  O3_8 
REMARK    2  A    between atoms: C9_13  and  C10_14 
REMARK    3  A    between atoms: C11_15  and  C12_16 
ROOT
HETATM    1  O1  UNL     1      19.672   3.216  48.039  1.00  0.00    -0.148 OA
HETATM    2  C1  UNL     1      18.971   2.509  48.810  1.00  0.00     0.373 A 
HETATM    3  C2  UNL     1      18.026   1.505  49.441  1.00  0.00     0.248 C 
HETATM    4  O2  UNL     1      18.143   1.803  50.847  1.00  0.00    -0.377 OA
HETATM    5  C3  UNL     1      18.097   0.793  51.799  1.00  0.00     0.162 C 
HETATM    6  C4  UNL     1      19.305   0.459  52.301  1.00  0.00     0.087 C 
HETATM    7  C5  UNL     1      19.850  -0.507  53.302  1.00  0.00     0.063 C 
HETATM    8  C6  UNL     1      21.184  -0.276  53.296  1.00  0.00     0.051 A 
HETATM    9  C7  UNL     1      21.980  -1.096  54.198  1.00  0.00     0.185 A 
HETATM   10  O4  UNL     1      21.452  -1.946  54.960  1.00  0.00    -0.288 OA
HETATM   11  C8  UNL     1      23.428  -1.044  54.333  1.00  0.00     0.092 A 
HETATM   12  C9  UNL     1      24.099  -0.191  53.587  1.00  0.00     0.073 A 
HETATM   13  O5  UNL     1      23.383   0.595  52.728  1.00  0.00    -0.341 OA
HETATM   14  C13 UNL     1      22.022   0.687  52.523  1.00  0.00     0.168 A 
HETATM   15  C14 UNL     1      21.589   2.103  52.736  1.00  0.00     0.037 C 
HETATM   16  C15 UNL     1      21.841   2.988  51.501  1.00  0.00     0.003 C 
HETATM   17  C16 UNL     1      21.109   4.263  51.776  1.00  0.00     0.002 C 
HETATM   18  C17 UNL     1      21.072   5.240  50.633  1.00  0.00     0.031 C 
HETATM   19  C18 UNL     1      20.699   4.532  49.337  1.00  0.00     0.275 C 
HETATM   20  N1  UNL     1      19.719   3.482  49.543  1.00  0.00     0.088 N 
HETATM   21  H22 UNL     1      19.433   3.387  50.566  1.00  0.00     0.322 HD
ENDROOT
BRANCH  12  22
HETATM   22  C10 UNL     1      25.549  -0.080  53.665  1.00  0.00     0.035 C 
HETATM   23  C11 UNL     1      26.405  -0.912  53.076  1.00  0.00     0.007 C 
BRANCH  23  24
HETATM   24  C12 UNL     1      27.881  -0.818  53.143  1.00  0.00     0.249 C 
HETATM   25  F1  UNL     1      28.239   0.477  52.818  1.00  0.00    -0.251 F 
ENDBRANCH  23  24
ENDBRANCH  12  22
BRANCH   7  26
HETATM   26  O3  UNL     1      19.417  -1.535  54.205  1.00  0.00    -0.364 OA
HETATM   27  H5  UNL     1      20.132  -2.197  54.492  1.00  0.00     0.217 HD
ENDBRANCH   7  26
TORSDOF 3
ENDMDL
MODEL 5
REMARK VINA RESULT:      -7.6      2.979      4.035
REMARK  3 active torsions:
REMARK  status: ('A' for Active; 'I' for Inactive)
REMARK    1  A    between atoms: C5_7  and  O3_8 
REMARK    2  A    between atoms: C9_13  and  C10_14 
REMARK    3  A    between atoms: C11_15  and  C12_16 
ROOT
HETATM    1  O1  UNL     1      16.944   0.927  49.225  1.00  0.00    -0.148 OA
HETATM    2  C1  UNL     1      16.991   0.218  50.265  1.00  0.00     0.373 A 
HETATM    3  C2  UNL     1      16.924  -0.885  51.304  1.00  0.00     0.248 C 
HETATM    4  O2  UNL     1      17.415  -0.228  52.491  1.00  0.00    -0.377 OA
HETATM    5  C3  UNL     1      18.196  -0.909  53.414  1.00  0.00     0.162 C 
HETATM    6  C4  UNL     1      19.512  -0.617  53.340  1.00  0.00     0.087 C 
HETATM    7  C5  UNL     1      20.769  -1.019  54.040  1.00  0.00     0.063 C 
HETATM    8  C6  UNL     1      21.737  -0.300  53.425  1.00  0.00     0.051 A 
HETATM    9  C7  UNL     1      23.094  -0.500  53.917  1.00  0.00     0.185 A 
HETATM   10  O4  UNL     1      23.341  -1.272  54.878  1.00  0.00    -0.288 OA
HETATM   11  C8  UNL     1      24.288   0.138  53.387  1.00  0.00     0.092 A 
HETATM   12  C9  UNL     1      24.160   0.972  52.375  1.00  0.00     0.073 A 
HETATM   13  O5  UNL     1      22.900   1.183  51.888  1.00  0.00    -0.341 OA
HETATM   14  C13 UNL     1      21.683   0.689  52.310  1.00  0.00     0.168 A 
HETATM   15  C14 UNL     1      20.771   1.834  52.618  1.00  0.00     0.037 C 
HETATM   16  C15 UNL     1      20.106   2.413  51.356  1.00  0.00     0.003 C 
HETATM   17  C16 UNL     1      19.039   3.333  51.862  1.00  0.00     0.002 C 
HETATM   18  C17 UNL     1      18.133   3.905  50.808  1.00  0.00     0.031 C 
HETATM   19  C18 UNL     1      17.665   2.812  49.855  1.00  0.00     0.275 C 
HETATM   20  N1  UNL     1      17.430   1.552  50.532  1.00  0.00     0.088 N 
HETATM   21  H22 UNL     1      17.628   1.609  51.579  1.00  0.00     0.322 HD
ENDROOT
BRANCH  12  22
HETATM   22  C10 UNL     1      25.309   1.649  51.790  1.00  0.00     0.035 C 
HETATM   23  C11 UNL     1      25.235   2.711  50.991  1.00  0.00     0.007 C 
BRANCH  23  24
HETATM   24  C12 UNL     1      26.390   3.414  50.386  1.00  0.00     0.249 C 
HETATM   25  F1  UNL     1      26.710   2.767  49.207  1.00  0.00    -0.251 F 
ENDBRANCH  23  24
ENDBRANCH  12  22
BRANCH   7  26
HETATM   26  O3  UNL     1      21.228  -1.878  55.095  1.00  0.00    -0.364 OA
HETATM   27  H5  UNL     1      21.986  -1.509  55.661  1.00  0.00     0.217 HD
ENDBRANCH   7  26
TORSDOF 3
ENDMDL
MODEL 6
REMARK VINA RESULT:      -7.6      3.435      5.671
REMARK  3 active torsions:
REMARK  status: ('A' for Active; 'I' for Inactive)
REMARK    1  A    between atoms: C5_7  and  O3_8 
REMARK    2  A    between atoms: C9_13  and  C10_14 
REMARK    3  A    between atoms: C11_15  and  C12_16 
ROOT
HETATM    1  O1  UNL     1      22.916   6.314  48.767  1.00  0.00    -0.148 OA
HETATM    2  C1  UNL     1      23.961   5.786  49.231  1.00  0.00     0.373 A 
HETATM    3  C2  UNL     1      25.278   5.471  49.914  1.00  0.00     0.248 C 
HETATM    4  O2  UNL     1      25.449   4.067  49.635  1.00  0.00    -0.377 OA
HETATM    5  C3  UNL     1      26.019   3.215  50.571  1.00  0.00     0.162 C 
HETATM    6  C4  UNL     1      25.126   2.443  51.225  1.00  0.00     0.087 C 
HETATM    7  C5  UNL     1      25.149   1.392  52.287  1.00  0.00     0.063 C 
HETATM    8  C6  UNL     1      23.849   1.049  52.443  1.00  0.00     0.051 A 
HETATM    9  C7  UNL     1      23.574   0.021  53.439  1.00  0.00     0.185 A 
HETATM   10  O4  UNL     1      24.496  -0.534  54.089  1.00  0.00    -0.288 OA
HETATM   11  C8  UNL     1      22.256  -0.478  53.797  1.00  0.00     0.092 A 
HETATM   12  C9  UNL     1      21.205   0.026  53.184  1.00  0.00     0.073 A 
HETATM   13  O5  UNL     1      21.426   0.993  52.244  1.00  0.00    -0.341 OA
HETATM   14  C13 UNL     1      22.606   1.529  51.773  1.00  0.00     0.168 A 
HETATM   15  C14 UNL     1      22.666   1.354  50.289  1.00  0.00     0.037 C 
HETATM   16  C15 UNL     1      21.867   2.434  49.536  1.00  0.00     0.003 C 
HETATM   17  C16 UNL     1      22.259   2.283  48.100  1.00  0.00     0.002 C 
HETATM   18  C17 UNL     1      21.727   3.342  47.175  1.00  0.00     0.031 C 
HETATM   19  C18 UNL     1      21.935   4.727  47.773  1.00  0.00     0.275 C 
HETATM   20  N1  UNL     1      23.187   4.835  48.497  1.00  0.00     0.088 N 
HETATM   21  H22 UNL     1      23.742   3.924  48.487  1.00  0.00     0.322 HD
ENDROOT
BRANCH  12  22
HETATM   22  C10 UNL     1      19.852  -0.423  53.488  1.00  0.00     0.035 C 
HETATM   23  C11 UNL     1      18.858  -0.484  52.605  1.00  0.00     0.007 C 
BRANCH  23  24
HETATM   24  C12 UNL     1      17.478  -0.935  52.893  1.00  0.00     0.249 C 
HETATM   25  F1  UNL     1      17.552  -1.976  53.800  1.00  0.00    -0.251 F 
ENDBRANCH  23  24
ENDBRANCH  12  22
BRANCH   7  26
HETATM   26  O3  UNL     1      26.070   0.686  53.132  1.00  0.00    -0.364 OA
HETATM   27  H5  UNL     1      26.278  -0.268  52.853  1.00  0.00     0.217 HD
ENDBRANCH   7  26
TORSDOF 3
ENDMDL
MODEL 7
REMARK VINA RESULT:      -7.5      3.168      5.549
REMARK  3 active torsions:
REMARK  status: ('A' for Active; 'I' for Inactive)
REMARK    1  A    between atoms: C5_7  and  O3_8 
REMARK    2  A    between atoms: C9_13  and  C10_14 
REMARK    3  A    between atoms: C11_15  and  C12_16 
ROOT
HETATM    1  O1  UNL     1      19.939   6.653  49.265  1.00  0.00    -0.148 OA
HETATM    2  C1  UNL     1      21.162   6.807  49.005  1.00  0.00     0.373 A 
HETATM    3  C2  UNL     1      22.582   7.309  48.831  1.00  0.00     0.248 C 
HETATM    4  O2  UNL     1      23.242   6.181  48.220  1.00  0.00    -0.377 OA
HETATM    5  C3  UNL     1      24.558   5.867  48.531  1.00  0.00     0.162 C 
HETATM    6  C4  UNL     1      24.687   4.822  49.375  1.00  0.00     0.087 C 
HETATM    7  C5  UNL     1      25.799   4.069  50.030  1.00  0.00     0.063 C 
HETATM    8  C6  UNL     1      25.171   3.115  50.758  1.00  0.00     0.051 A 
HETATM    9  C7  UNL     1      26.033   2.218  51.516  1.00  0.00     0.185 A 
HETATM   10  O4  UNL     1      27.285   2.307  51.468  1.00  0.00    -0.288 OA
HETATM   11  C8  UNL     1      25.578   1.147  52.389  1.00  0.00     0.092 A 
HETATM   12  C9  UNL     1      24.283   0.952  52.524  1.00  0.00     0.073 A 
HETATM   13  O5  UNL     1      23.444   1.777  51.827  1.00  0.00    -0.341 OA
HETATM   14  C13 UNL     1      23.726   2.794  50.939  1.00  0.00     0.168 A 
HETATM   15  C14 UNL     1      23.048   2.508  49.636  1.00  0.00     0.037 C 
HETATM   16  C15 UNL     1      21.563   2.916  49.644  1.00  0.00     0.003 C 
HETATM   17  C16 UNL     1      21.125   2.829  48.215  1.00  0.00     0.002 C 
HETATM   18  C17 UNL     1      19.738   3.339  47.938  1.00  0.00     0.031 C 
HETATM   19  C18 UNL     1      19.518   4.685  48.615  1.00  0.00     0.275 C 
HETATM   20  N1  UNL     1      20.708   5.514  48.596  1.00  0.00     0.088 N 
HETATM   21  H22 UNL     1      21.530   5.035  48.114  1.00  0.00     0.322 HD
ENDROOT
BRANCH  12  22
HETATM   22  C10 UNL     1      23.751  -0.100  53.380  1.00  0.00     0.035 C 
HETATM   23  C11 UNL     1      22.508  -0.133  53.855  1.00  0.00     0.007 C 
BRANCH  23  24
HETATM   24  C12 UNL     1      21.949  -1.192  54.726  1.00  0.00     0.249 C 
HETATM   25  F1  UNL     1      21.671  -2.291  53.935  1.00  0.00    -0.251 F 
ENDBRANCH  23  24
ENDBRANCH  12  22
BRANCH   7  26
HETATM   26  O3  UNL     1      27.232   4.052  50.114  1.00  0.00    -0.364 OA
HETATM   27  H5  UNL     1      27.624   4.403  50.983  1.00  0.00     0.217 HD
ENDBRANCH   7  26
TORSDOF 3
ENDMDL
MODEL 8
REMARK VINA RESULT:      -7.5      8.894     11.862
REMARK  3 active torsions:
REMARK  status: ('A' for Active; 'I' for Inactive)
REMARK    1  A    between atoms: C5_7  and  O3_8 
REMARK    2  A    between atoms: C9_13  and  C10_14 
REMARK    3  A    between atoms: C11_15  and  C12_16 
ROOT
HETATM    1  O1  UNL     1      34.585   4.397  44.315  1.00  0.00    -0.148 OA
HETATM    2  C1  UNL     1      34.282   5.614  44.437  1.00  0.00     0.373 A 
HETATM    3  C2  UNL     1      33.931   7.075  44.234  1.00  0.00     0.248 C 
HETATM    4  O2  UNL     1      33.750   7.545  45.586  1.00  0.00    -0.377 OA
HETATM    5  C3  UNL     1      32.778   8.489  45.891  1.00  0.00     0.162 C 
HETATM    6  C4  UNL     1      31.677   7.972  46.477  1.00  0.00     0.087 C 
HETATM    7  C5  UNL     1      30.372   8.476  47.002  1.00  0.00     0.063 C 
HETATM    8  C6  UNL     1      29.750   7.366  47.464  1.00  0.00     0.051 A 
HETATM    9  C7  UNL     1      28.428   7.568  48.044  1.00  0.00     0.185 A 
HETATM   10  O4  UNL     1      27.915   8.711  48.136  1.00  0.00    -0.288 OA
HETATM   11  C8  UNL     1      27.567   6.521  48.570  1.00  0.00     0.092 A 
HETATM   12  C9  UNL     1      27.994   5.276  48.531  1.00  0.00     0.073 A 
HETATM   13  O5  UNL     1      29.231   5.049  47.992  1.00  0.00    -0.341 OA
HETATM   14  C13 UNL     1      30.167   5.934  47.500  1.00  0.00     0.168 A 
HETATM   15  C14 UNL     1      31.455   5.743  48.236  1.00  0.00     0.037 C 
HETATM   16  C15 UNL     1      32.276   4.560  47.689  1.00  0.00     0.003 C 
HETATM   17  C16 UNL     1      33.622   4.687  48.330  1.00  0.00     0.002 C 
HETATM   18  C17 UNL     1      34.664   3.728  47.827  1.00  0.00     0.031 C 
HETATM   19  C18 UNL     1      34.660   3.684  46.304  1.00  0.00     0.275 C 
HETATM   20  N1  UNL     1      34.398   4.983  45.714  1.00  0.00     0.088 N 
HETATM   21  H22 UNL     1      34.251   5.742  46.450  1.00  0.00     0.322 HD
ENDROOT
BRANCH  12  22
HETATM   22  C10 UNL     1      27.189   4.172  49.038  1.00  0.00     0.035 C 
HETATM   23  C11 UNL     1      25.990   4.306  49.599  1.00  0.00     0.007 C 
BRANCH  23  24
HETATM   24  C12 UNL     1      25.156   3.199  50.121  1.00  0.00     0.249 C 
HETATM   25  F1  UNL     1      24.164   2.940  49.194  1.00  0.00    -0.251 F 
ENDBRANCH  23  24
ENDBRANCH  12  22
BRANCH   7  26
HETATM   26  O3  UNL     1      29.631   9.696  47.154  1.00  0.00    -0.364 OA
HETATM   27  H5  UNL     1      30.187  10.528  47.324  1.00  0.00     0.217 HD
ENDBRANCH   7  26
TORSDOF 3
ENDMDL
MODEL 9
REMARK VINA RESULT:      -7.2      7.820     10.899
REMARK  3 active torsions:
REMARK  status: ('A' for Active; 'I' for Inactive)
REMARK    1  A    between atoms: C5_7  and  O3_8 
REMARK    2  A    between atoms: C9_13  and  C10_14 
REMARK    3  A    between atoms: C11_15  and  C12_16 
ROOT
HETATM    1  O1  UNL     1      27.988  13.302  49.374  1.00  0.00    -0.148 OA
HETATM    2  C1  UNL     1      29.021  12.688  48.996  1.00  0.00     0.373 A 
HETATM    3  C2  UNL     1      30.410  12.107  48.818  1.00  0.00     0.248 C 
HETATM    4  O2  UNL     1      30.254  11.272  47.652  1.00  0.00    -0.377 OA
HETATM    5  C3  UNL     1      30.927  10.063  47.542  1.00  0.00     0.162 C 
HETATM    6  C4  UNL     1      30.154   8.982  47.777  1.00  0.00     0.087 C 
HETATM    7  C5  UNL     1      30.319   7.497  47.803  1.00  0.00     0.063 C 
HETATM    8  C6  UNL     1      29.086   7.031  48.116  1.00  0.00     0.051 A 
HETATM    9  C7  UNL     1      28.955   5.583  48.211  1.00  0.00     0.185 A 
HETATM   10  O4  UNL     1      29.923   4.815  47.984  1.00  0.00    -0.288 OA
HETATM   11  C8  UNL     1      27.740   4.867  48.565  1.00  0.00     0.092 A 
HETATM   12  C9  UNL     1      26.653   5.562  48.827  1.00  0.00     0.073 A 
HETATM   13  O5  UNL     1      26.741   6.925  48.748  1.00  0.00    -0.341 OA
HETATM   14  C13 UNL     1      27.799   7.733  48.388  1.00  0.00     0.168 A 
HETATM   15  C14 UNL     1      27.382   8.604  47.245  1.00  0.00     0.037 C 
HETATM   16  C15 UNL     1      26.586   9.839  47.705  1.00  0.00     0.003 C 
HETATM   17  C16 UNL     1      26.501  10.722  46.500  1.00  0.00     0.002 C 
HETATM   18  C17 UNL     1      25.900  12.079  46.742  1.00  0.00     0.031 C 
HETATM   19  C18 UNL     1      26.505  12.717  47.986  1.00  0.00     0.275 C 
HETATM   20  N1  UNL     1      27.915  12.414  48.132  1.00  0.00     0.088 N 
HETATM   21  H22 UNL     1      28.283  11.795  47.345  1.00  0.00     0.322 HD
ENDROOT
BRANCH  12  22
HETATM   22  C10 UNL     1      25.398   4.916  49.189  1.00  0.00     0.035 C 
HETATM   23  C11 UNL     1      25.301   3.796  49.900  1.00  0.00     0.007 C 
BRANCH  23  24
HETATM   24  C12 UNL     1      24.037   3.123  50.278  1.00  0.00     0.249 C 
HETATM   25  F1  UNL     1      24.359   1.932  50.901  1.00  0.00    -0.251 F 
ENDBRANCH  23  24
ENDBRANCH  12  22
BRANCH   7  26
HETATM   26  O3  UNL     1      31.319   6.486  47.610  1.00  0.00    -0.364 OA
HETATM   27  H5  UNL     1      31.003   5.528  47.730  1.00  0.00     0.217 HD
ENDBRANCH   7  26
TORSDOF 3
ENDMDL
