MODEL 1
REMARK VINA RESULT:      -8.6      0.000      0.000
REMARK  2 active torsions:
REMARK  status: ('A' for Active; 'I' for Inactive)
REMARK    1  A    between atoms: C5_6  and  N1_7 
REMARK    2  A    between atoms: N1_7  and  C6_8 
ROOT
HETATM    1  C6  UNL     1      23.897   2.677  52.714  1.00  0.00     0.136 C 
HETATM    2  N2  UNL     1      24.113   3.913  52.856  1.00  0.00    -0.224 NA
HETATM    3  C7  UNL     1      23.161   4.911  52.605  1.00  0.00     0.231 C 
HETATM    4  N3  UNL     1      22.078   5.139  51.911  1.00  0.00    -0.253 NA
HETATM    5  C8  UNL     1      21.654   3.988  51.082  1.00  0.00     0.419 C 
HETATM    6  N4  UNL     1      22.893   3.514  50.486  1.00  0.00     0.106 N 
HETATM    7  C9  UNL     1      22.651   2.164  49.980  1.00  0.00     0.311 C 
HETATM    8  C10 UNL     1      22.303   1.280  51.161  1.00  0.00    -0.016 A 
HETATM    9  C11 UNL     1      21.437   0.223  51.128  1.00  0.00     0.013 A 
HETATM   10  C12 UNL     1      21.218  -0.490  52.283  1.00  0.00     0.043 A 
HETATM   11  C13 UNL     1      21.799  -0.238  53.503  1.00  0.00     0.117 A 
HETATM   12  F2  UNL     1      21.546  -0.974  54.609  1.00  0.00    -0.206 F 
HETATM   13  C14 UNL     1      22.682   0.852  53.503  1.00  0.00     0.058 A 
HETATM   14  C15 UNL     1      22.933   1.605  52.345  1.00  0.00     0.021 A 
HETATM   15  H9  UNL     1      23.152   4.076  49.636  1.00  0.00     0.318 HD
ENDROOT
BRANCH   1  16
HETATM   16  N1  UNL     1      25.161   2.034  53.088  1.00  0.00    -0.363 N 
HETATM   17  H5  UNL     1      25.284   1.628  54.080  1.00  0.00     0.162 HD
BRANCH  16  18
HETATM   18  C5  UNL     1      26.290   1.902  52.184  1.00  0.00     0.129 C 
HETATM   19  C4  UNL     1      26.351   0.490  51.738  1.00  0.00     0.002 C 
HETATM   20  C3  UNL     1      26.854  -0.635  52.221  1.00  0.00     0.001 C 
HETATM   21  C2  UNL     1      27.573  -0.731  53.504  1.00  0.00     0.042 C 
HETATM   22  C1  UNL     1      28.229   0.251  54.138  1.00  0.00     0.116 C 
HETATM   23  F1  UNL     1      28.807  -0.074  55.295  1.00  0.00    -0.206 F 
HETATM   24  C17 UNL     1      28.377   1.634  53.698  1.00  0.00     0.040 C 
HETATM   25  C16 UNL     1      27.555   2.287  52.889  1.00  0.00     0.005 C 
ENDBRANCH  16  18
ENDBRANCH   1  16
TORSDOF 2
ENDMDL
MODEL 2
REMARK VINA RESULT:      -7.9      2.588      4.197
REMARK  2 active torsions:
REMARK  status: ('A' for Active; 'I' for Inactive)
REMARK    1  A    between atoms: C5_6  and  N1_7 
REMARK    2  A    between atoms: N1_7  and  C6_8 
ROOT
HETATM    1  C6  UNL     1      24.014   2.163  51.256  1.00  0.00     0.136 C 
HETATM    2  N2  UNL     1      23.080   1.313  51.223  1.00  0.00    -0.224 NA
HETATM    3  C7  UNL     1      21.912   1.459  50.462  1.00  0.00     0.231 C 
HETATM    4  N3  UNL     1      21.154   2.372  49.916  1.00  0.00    -0.253 NA
HETATM    5  C8  UNL     1      21.638   3.754  50.143  1.00  0.00     0.419 C 
HETATM    6  N4  UNL     1      22.009   3.765  51.549  1.00  0.00     0.106 N 
HETATM    7  C9  UNL     1      22.857   4.935  51.771  1.00  0.00     0.311 C 
HETATM    8  C10 UNL     1      24.109   4.768  50.933  1.00  0.00    -0.016 A 
HETATM    9  C11 UNL     1      24.809   5.786  50.348  1.00  0.00     0.013 A 
HETATM   10  C12 UNL     1      25.930   5.482  49.612  1.00  0.00     0.043 A 
HETATM   11  C13 UNL     1      26.432   4.220  49.401  1.00  0.00     0.117 A 
HETATM   12  F2  UNL     1      27.541   3.978  48.667  1.00  0.00    -0.206 F 
HETATM   13  C14 UNL     1      25.691   3.198  50.016  1.00  0.00     0.058 A 
HETATM   14  C15 UNL     1      24.541   3.468  50.774  1.00  0.00     0.021 A 
HETATM   15  H9  UNL     1      21.172   3.919  52.167  1.00  0.00     0.318 HD
ENDROOT
BRANCH   1  16
HETATM   16  N1  UNL     1      25.005   1.588  52.171  1.00  0.00    -0.363 N 
HETATM   17  H5  UNL     1      25.526   2.226  52.869  1.00  0.00     0.162 HD
BRANCH  16  18
HETATM   18  C5  UNL     1      25.342   0.176  52.202  1.00  0.00     0.129 C 
HETATM   19  C4  UNL     1      24.846  -0.380  53.483  1.00  0.00     0.002 C 
HETATM   20  C3  UNL     1      25.297  -0.444  54.726  1.00  0.00     0.001 C 
HETATM   21  C2  UNL     1      26.591   0.111  55.162  1.00  0.00     0.042 C 
HETATM   22  C1  UNL     1      27.674   0.326  54.403  1.00  0.00     0.116 C 
HETATM   23  F1  UNL     1      28.737   0.841  55.021  1.00  0.00    -0.206 F 
HETATM   24  C17 UNL     1      27.814   0.058  52.976  1.00  0.00     0.040 C 
HETATM   25  C16 UNL     1      26.827   0.003  52.092  1.00  0.00     0.005 C 
ENDBRANCH  16  18
ENDBRANCH   1  16
TORSDOF 2
ENDMDL
MODEL 3
REMARK VINA RESULT:      -7.8      2.652      4.345
REMARK  2 active torsions:
REMARK  status: ('A' for Active; 'I' for Inactive)
REMARK    1  A    between atoms: C5_6  and  N1_7 
REMARK    2  A    between atoms: N1_7  and  C6_8 
ROOT
HETATM    1  C6  UNL     1      23.634   2.211  50.837  1.00  0.00     0.136 C 
HETATM    2  N2  UNL     1      22.661   1.425  50.660  1.00  0.00    -0.224 NA
HETATM    3  C7  UNL     1      21.474   1.780  50.005  1.00  0.00     0.231 C 
HETATM    4  N3  UNL     1      20.739   2.820  49.712  1.00  0.00    -0.253 NA
HETATM    5  C8  UNL     1      21.295   4.097  50.217  1.00  0.00     0.419 C 
HETATM    6  N4  UNL     1      21.718   3.780  51.572  1.00  0.00     0.106 N 
HETATM    7  C9  UNL     1      22.627   4.838  52.008  1.00  0.00     0.311 C 
HETATM    8  C10 UNL     1      23.838   4.817  51.097  1.00  0.00    -0.016 A 
HETATM    9  C11 UNL     1      24.561   5.914  50.720  1.00  0.00     0.013 A 
HETATM   10  C12 UNL     1      25.638   5.741  49.884  1.00  0.00     0.043 A 
HETATM   11  C13 UNL     1      26.073   4.541  49.374  1.00  0.00     0.117 A 
HETATM   12  F2  UNL     1      27.142   4.429  48.553  1.00  0.00    -0.206 F 
HETATM   13  C14 UNL     1      25.310   3.436  49.780  1.00  0.00     0.058 A 
HETATM   14  C15 UNL     1      24.203   3.570  50.633  1.00  0.00     0.021 A 
HETATM   15  H9  UNL     1      20.913   3.822  52.247  1.00  0.00     0.318 HD
ENDROOT
BRANCH   1  16
HETATM   16  N1  UNL     1      24.632   1.410  51.554  1.00  0.00    -0.363 N 
HETATM   17  H5  UNL     1      25.372   0.852  51.002  1.00  0.00     0.162 HD
BRANCH  16  18
HETATM   18  C5  UNL     1      24.691   1.316  53.003  1.00  0.00     0.129 C 
HETATM   19  C4  UNL     1      25.775   2.213  53.470  1.00  0.00     0.002 C 
HETATM   20  C3  UNL     1      27.088   2.123  53.603  1.00  0.00     0.001 C 
HETATM   21  C2  UNL     1      27.869   0.920  53.262  1.00  0.00     0.042 C 
HETATM   22  C1  UNL     1      27.428  -0.345  53.224  1.00  0.00     0.116 C 
HETATM   23  F1  UNL     1      28.324  -1.273  52.885  1.00  0.00    -0.206 F 
HETATM   24  C17 UNL     1      26.078  -0.814  53.514  1.00  0.00     0.040 C 
HETATM   25  C16 UNL     1      24.966  -0.099  53.411  1.00  0.00     0.005 C 
ENDBRANCH  16  18
ENDBRANCH   1  16
TORSDOF 2
ENDMDL
MODEL 4
REMARK VINA RESULT:      -7.7      1.833      2.548
REMARK  2 active torsions:
REMARK  status: ('A' for Active; 'I' for Inactive)
REMARK    1  A    between atoms: C5_6  and  N1_7 
REMARK    2  A    between atoms: N1_7  and  C6_8 
ROOT
HETATM    1  C6  UNL     1      23.884   3.135  51.435  1.00  0.00     0.136 C 
HETATM    2  N2  UNL     1      24.168   4.175  52.094  1.00  0.00    -0.224 NA
HETATM    3  C7  UNL     1      23.455   5.378  52.009  1.00  0.00     0.231 C 
HETATM    4  N3  UNL     1      22.682   6.054  51.201  1.00  0.00    -0.253 NA
HETATM    5  C8  UNL     1      22.431   5.368  49.913  1.00  0.00     0.419 C 
HETATM    6  N4  UNL     1      23.741   4.869  49.525  1.00  0.00     0.106 N 
HETATM    7  C9  UNL     1      23.537   3.853  48.493  1.00  0.00     0.311 C 
HETATM    8  C10 UNL     1      22.740   2.720  49.107  1.00  0.00    -0.016 A 
HETATM    9  C11 UNL     1      21.827   1.948  48.444  1.00  0.00     0.013 A 
HETATM   10  C12 UNL     1      21.177   0.952  49.134  1.00  0.00     0.043 A 
HETATM   11  C13 UNL     1      21.357   0.648  50.462  1.00  0.00     0.117 A 
HETATM   12  F2  UNL     1      20.688  -0.345  51.091  1.00  0.00    -0.206 F 
HETATM   13  C14 UNL     1      22.300   1.458  51.113  1.00  0.00     0.058 A 
HETATM   14  C15 UNL     1      22.986   2.484  50.444  1.00  0.00     0.021 A 
HETATM   15  H9  UNL     1      24.316   5.615  49.057  1.00  0.00     0.318 HD
ENDROOT
BRANCH   1  16
HETATM   16  N1  UNL     1      24.888   2.149  51.847  1.00  0.00    -0.363 N 
HETATM   17  H5  UNL     1      25.458   1.618  51.101  1.00  0.00     0.162 HD
BRANCH  16  18
HETATM   18  C5  UNL     1      25.174   1.830  53.235  1.00  0.00     0.129 C 
HETATM   19  C4  UNL     1      26.640   1.929  53.429  1.00  0.00     0.002 C 
HETATM   20  C3  UNL     1      27.677   1.131  53.234  1.00  0.00     0.001 C 
HETATM   21  C2  UNL     1      27.572  -0.239  52.700  1.00  0.00     0.042 C 
HETATM   22  C1  UNL     1      26.507  -1.051  52.761  1.00  0.00     0.116 C 
HETATM   23  F1  UNL     1      26.648  -2.254  52.203  1.00  0.00    -0.206 F 
HETATM   24  C17 UNL     1      25.215  -0.759  53.370  1.00  0.00     0.040 C 
HETATM   25  C16 UNL     1      24.693   0.447  53.551  1.00  0.00     0.005 C 
ENDBRANCH  16  18
ENDBRANCH   1  16
TORSDOF 2
ENDMDL
MODEL 5
REMARK VINA RESULT:      -7.5      2.615      5.467
REMARK  2 active torsions:
REMARK  status: ('A' for Active; 'I' for Inactive)
REMARK    1  A    between atoms: C5_6  and  N1_7 
REMARK    2  A    between atoms: N1_7  and  C6_8 
ROOT
HETATM    1  C6  UNL     1      24.679   1.280  52.698  1.00  0.00     0.136 C 
HETATM    2  N2  UNL     1      25.789   1.436  52.114  1.00  0.00    -0.224 NA
HETATM    3  C7  UNL     1      26.632   0.382  51.738  1.00  0.00     0.231 C 
HETATM    4  N3  UNL     1      26.920  -0.856  52.041  1.00  0.00    -0.253 NA
HETATM    5  C8  UNL     1      26.111  -1.394  53.159  1.00  0.00     0.419 C 
HETATM    6  N4  UNL     1      26.112  -0.317  54.137  1.00  0.00     0.106 N 
HETATM    7  C9  UNL     1      25.031  -0.582  55.085  1.00  0.00     0.311 C 
HETATM    8  C10 UNL     1      23.723  -0.552  54.321  1.00  0.00    -0.016 A 
HETATM    9  C11 UNL     1      22.627  -1.318  54.601  1.00  0.00     0.013 A 
HETATM   10  C12 UNL     1      21.506  -1.183  53.817  1.00  0.00     0.043 A 
HETATM   11  C13 UNL     1      21.374  -0.330  52.748  1.00  0.00     0.117 A 
HETATM   12  F2  UNL     1      20.245  -0.238  52.009  1.00  0.00    -0.206 F 
HETATM   13  C14 UNL     1      22.516   0.443  52.487  1.00  0.00     0.058 A 
HETATM   14  C15 UNL     1      23.680   0.334  53.264  1.00  0.00     0.021 A 
HETATM   15  H9  UNL     1      26.988  -0.325  54.719  1.00  0.00     0.318 HD
ENDROOT
BRANCH   1  16
HETATM   16  N1  UNL     1      24.165   2.641  52.885  1.00  0.00    -0.363 N 
HETATM   17  H5  UNL     1      23.685   2.911  53.813  1.00  0.00     0.162 HD
BRANCH  16  18
HETATM   18  C5  UNL     1      24.264   3.680  51.875  1.00  0.00     0.129 C 
HETATM   19  C4  UNL     1      23.357   4.784  52.270  1.00  0.00     0.002 C 
HETATM   20  C3  UNL     1      22.067   5.044  52.135  1.00  0.00     0.001 C 
HETATM   21  C2  UNL     1      21.113   4.150  51.454  1.00  0.00     0.042 C 
HETATM   22  C1  UNL     1      21.392   3.241  50.509  1.00  0.00     0.116 C 
HETATM   23  F1  UNL     1      20.359   2.542  50.038  1.00  0.00    -0.206 F 
HETATM   24  C17 UNL     1      22.701   2.935  49.945  1.00  0.00     0.040 C 
HETATM   25  C16 UNL     1      23.871   3.129  50.537  1.00  0.00     0.005 C 
ENDBRANCH  16  18
ENDBRANCH   1  16
TORSDOF 2
ENDMDL
MODEL 6
REMARK VINA RESULT:      -7.5      3.385      5.581
REMARK  2 active torsions:
REMARK  status: ('A' for Active; 'I' for Inactive)
REMARK    1  A    between atoms: C5_6  and  N1_7 
REMARK    2  A    between atoms: N1_7  and  C6_8 
ROOT
HETATM    1  C6  UNL     1      24.605   3.352  49.775  1.00  0.00     0.136 C 
HETATM    2  N2  UNL     1      23.613   2.620  49.501  1.00  0.00    -0.224 NA
HETATM    3  C7  UNL     1      22.704   2.882  48.468  1.00  0.00     0.231 C 
HETATM    4  N3  UNL     1      22.226   3.865  47.751  1.00  0.00    -0.253 NA
HETATM    5  C8  UNL     1      22.802   5.184  48.099  1.00  0.00     0.419 C 
HETATM    6  N4  UNL     1      22.803   5.190  49.553  1.00  0.00     0.106 N 
HETATM    7  C9  UNL     1      23.703   6.256  49.989  1.00  0.00     0.311 C 
HETATM    8  C10 UNL     1      25.097   5.918  49.498  1.00  0.00    -0.016 A 
HETATM    9  C11 UNL     1      26.041   6.829  49.115  1.00  0.00     0.013 A 
HETATM   10  C12 UNL     1      27.266   6.374  48.688  1.00  0.00     0.043 A 
HETATM   11  C13 UNL     1      27.647   5.055  48.607  1.00  0.00     0.117 A 
HETATM   12  F2  UNL     1      28.868   4.664  48.178  1.00  0.00    -0.206 F 
HETATM   13  C14 UNL     1      26.656   4.147  49.008  1.00  0.00     0.058 A 
HETATM   14  C15 UNL     1      25.393   4.572  49.449  1.00  0.00     0.021 A 
HETATM   15  H9  UNL     1      21.862   5.459  49.938  1.00  0.00     0.318 HD
ENDROOT
BRANCH   1  16
HETATM   16  N1  UNL     1      25.254   2.689  50.910  1.00  0.00    -0.363 N 
HETATM   17  H5  UNL     1      26.009   1.939  50.735  1.00  0.00     0.162 HD
BRANCH  16  18
HETATM   18  C5  UNL     1      24.938   2.985  52.297  1.00  0.00     0.129 C 
HETATM   19  C4  UNL     1      25.859   2.196  53.149  1.00  0.00     0.002 C 
HETATM   20  C3  UNL     1      25.889   0.960  53.622  1.00  0.00     0.001 C 
HETATM   21  C2  UNL     1      24.845  -0.047  53.357  1.00  0.00     0.042 C 
HETATM   22  C1  UNL     1      23.563   0.182  53.043  1.00  0.00     0.116 C 
HETATM   23  F1  UNL     1      22.801  -0.894  52.846  1.00  0.00    -0.206 F 
HETATM   24  C17 UNL     1      22.914   1.479  52.895  1.00  0.00     0.040 C 
HETATM   25  C16 UNL     1      23.513   2.621  52.584  1.00  0.00     0.005 C 
ENDBRANCH  16  18
ENDBRANCH   1  16
TORSDOF 2
ENDMDL
MODEL 7
REMARK VINA RESULT:      -7.4      3.550      5.023
REMARK  2 active torsions:
REMARK  status: ('A' for Active; 'I' for Inactive)
REMARK    1  A    between atoms: C5_6  and  N1_7 
REMARK    2  A    between atoms: N1_7  and  C6_8 
ROOT
HETATM    1  C6  UNL     1      22.989   3.597  51.681  1.00  0.00     0.136 C 
HETATM    2  N2  UNL     1      21.992   4.371  51.627  1.00  0.00    -0.224 NA
HETATM    3  C7  UNL     1      20.775   4.131  52.279  1.00  0.00     0.231 C 
HETATM    4  N3  UNL     1      20.044   3.158  52.756  1.00  0.00    -0.253 NA
HETATM    5  C8  UNL     1      20.654   1.820  52.578  1.00  0.00     0.419 C 
HETATM    6  N4  UNL     1      21.150   1.844  51.211  1.00  0.00     0.106 N 
HETATM    7  C9  UNL     1      22.105   0.745  51.070  1.00  0.00     0.311 C 
HETATM    8  C10 UNL     1      23.258   1.006  52.018  1.00  0.00    -0.016 A 
HETATM    9  C11 UNL     1      23.979   0.043  52.667  1.00  0.00     0.013 A 
HETATM   10  C12 UNL     1      25.001   0.430  53.500  1.00  0.00     0.043 A 
HETATM   11  C13 UNL     1      25.382   1.727  53.753  1.00  0.00     0.117 A 
HETATM   12  F2  UNL     1      26.397   2.051  54.585  1.00  0.00    -0.206 F 
HETATM   13  C14 UNL     1      24.622   2.690  53.071  1.00  0.00     0.058 A 
HETATM   14  C15 UNL     1      23.571   2.335  52.212  1.00  0.00     0.021 A 
HETATM   15  H9  UNL     1      20.388   1.628  50.520  1.00  0.00     0.318 HD
ENDROOT
BRANCH   1  16
HETATM   16  N1  UNL     1      24.011   4.252  50.858  1.00  0.00    -0.363 N 
HETATM   17  H5  UNL     1      24.619   5.037  51.279  1.00  0.00     0.162 HD
BRANCH  16  18
HETATM   18  C5  UNL     1      24.268   3.900  49.472  1.00  0.00     0.129 C 
HETATM   19  C4  UNL     1      25.730   3.714  49.316  1.00  0.00     0.002 C 
HETATM   20  C3  UNL     1      26.769   4.506  49.106  1.00  0.00     0.001 C 
HETATM   21  C2  UNL     1      26.672   5.970  48.959  1.00  0.00     0.042 C 
HETATM   22  C1  UNL     1      25.604   6.671  48.555  1.00  0.00     0.116 C 
HETATM   23  F1  UNL     1      25.753   7.995  48.501  1.00  0.00    -0.206 F 
HETATM   24  C17 UNL     1      24.300   6.143  48.172  1.00  0.00     0.040 C 
HETATM   25  C16 UNL     1      23.777   4.992  48.570  1.00  0.00     0.005 C 
ENDBRANCH  16  18
ENDBRANCH   1  16
TORSDOF 2
ENDMDL
MODEL 8
REMARK VINA RESULT:      -7.2      8.467     10.954
REMARK  2 active torsions:
REMARK  status: ('A' for Active; 'I' for Inactive)
REMARK    1  A    between atoms: C5_6  and  N1_7 
REMARK    2  A    between atoms: N1_7  and  C6_8 
ROOT
HETATM    1  C6  UNL     1      30.843   6.935  48.777  1.00  0.00     0.136 C 
HETATM    2  N2  UNL     1      31.305   5.859  49.249  1.00  0.00    -0.224 NA
HETATM    3  C7  UNL     1      32.670   5.542  49.293  1.00  0.00     0.231 C 
HETATM    4  N3  UNL     1      33.803   5.817  48.704  1.00  0.00    -0.253 NA
HETATM    5  C8  UNL     1      33.672   6.793  47.597  1.00  0.00     0.419 C 
HETATM    6  N4  UNL     1      32.491   6.345  46.877  1.00  0.00     0.106 N 
HETATM    7  C9  UNL     1      32.049   7.448  46.025  1.00  0.00     0.311 C 
HETATM    8  C10 UNL     1      31.667   8.606  46.925  1.00  0.00    -0.016 A 
HETATM    9  C11 UNL     1      31.820   9.929  46.617  1.00  0.00     0.013 A 
HETATM   10  C12 UNL     1      31.428  10.873  47.536  1.00  0.00     0.043 A 
HETATM   11  C13 UNL     1      30.882  10.612  48.770  1.00  0.00     0.117 A 
HETATM   12  F2  UNL     1      30.514  11.583  49.636  1.00  0.00    -0.206 F 
HETATM   13  C14 UNL     1      30.737   9.246  49.055  1.00  0.00     0.058 A 
HETATM   14  C15 UNL     1      31.125   8.251  48.143  1.00  0.00     0.021 A 
HETATM   15  H9  UNL     1      32.719   5.565  46.210  1.00  0.00     0.318 HD
ENDROOT
BRANCH   1  16
HETATM   16  N1  UNL     1      29.391   6.820  48.944  1.00  0.00    -0.363 N 
HETATM   17  H5  UNL     1      28.926   7.155  49.857  1.00  0.00     0.162 HD
BRANCH  16  18
HETATM   18  C5  UNL     1      28.510   6.269  47.928  1.00  0.00     0.129 C 
HETATM   19  C4  UNL     1      27.607   7.354  47.475  1.00  0.00     0.002 C 
HETATM   20  C3  UNL     1      26.469   7.878  47.901  1.00  0.00     0.001 C 
HETATM   21  C2  UNL     1      25.750   7.419  49.103  1.00  0.00     0.042 C 
HETATM   22  C1  UNL     1      25.814   6.205  49.668  1.00  0.00     0.116 C 
HETATM   23  F1  UNL     1      25.069   6.021  50.759  1.00  0.00    -0.206 F 
HETATM   24  C17 UNL     1      26.609   5.069  49.219  1.00  0.00     0.040 C 
HETATM   25  C16 UNL     1      27.721   5.130  48.500  1.00  0.00     0.005 C 
ENDBRANCH  16  18
ENDBRANCH   1  16
TORSDOF 2
ENDMDL
MODEL 9
REMARK VINA RESULT:      -7.2      3.453      6.132
REMARK  2 active torsions:
REMARK  status: ('A' for Active; 'I' for Inactive)
REMARK    1  A    between atoms: C5_6  and  N1_7 
REMARK    2  A    between atoms: N1_7  and  C6_8 
ROOT
HETATM    1  C6  UNL     1      24.541   3.232  50.764  1.00  0.00     0.136 C 
HETATM    2  N2  UNL     1      25.787   3.403  50.882  1.00  0.00    -0.224 NA
HETATM    3  C7  UNL     1      26.701   2.371  51.137  1.00  0.00     0.231 C 
HETATM    4  N3  UNL     1      26.775   1.177  51.661  1.00  0.00    -0.253 NA
HETATM    5  C8  UNL     1      25.482   0.682  52.188  1.00  0.00     0.419 C 
HETATM    6  N4  UNL     1      24.935   1.828  52.896  1.00  0.00     0.106 N 
HETATM    7  C9  UNL     1      23.509   1.576  53.106  1.00  0.00     0.311 C 
HETATM    8  C10 UNL     1      22.849   1.478  51.745  1.00  0.00    -0.016 A 
HETATM    9  C11 UNL     1      21.785   0.676  51.440  1.00  0.00     0.013 A 
HETATM   10  C12 UNL     1      21.291   0.690  50.158  1.00  0.00     0.043 A 
HETATM   11  C13 UNL     1      21.775   1.453  49.121  1.00  0.00     0.117 A 
HETATM   12  F2  UNL     1      21.249   1.427  47.876  1.00  0.00    -0.206 F 
HETATM   13  C14 UNL     1      22.866   2.264  49.467  1.00  0.00     0.058 A 
HETATM   14  C15 UNL     1      23.399   2.278  50.765  1.00  0.00     0.021 A 
HETATM   15  H9  UNL     1      25.337   1.911  53.864  1.00  0.00     0.318 HD
ENDROOT
BRANCH   1  16
HETATM   16  N1  UNL     1      24.006   4.573  50.507  1.00  0.00    -0.363 N 
HETATM   17  H5  UNL     1      23.893   4.921  49.493  1.00  0.00     0.162 HD
BRANCH  16  18
HETATM   18  C5  UNL     1      23.604   5.489  51.560  1.00  0.00     0.129 C 
HETATM   19  C4  UNL     1      22.130   5.631  51.499  1.00  0.00     0.002 C 
HETATM   20  C3  UNL     1      21.278   6.365  50.801  1.00  0.00     0.001 C 
HETATM   21  C2  UNL     1      21.682   7.349  49.781  1.00  0.00     0.042 C 
HETATM   22  C1  UNL     1      22.853   7.996  49.701  1.00  0.00     0.116 C 
HETATM   23  F1  UNL     1      22.992   8.845  48.683  1.00  0.00    -0.206 F 
HETATM   24  C17 UNL     1      23.989   7.869  50.608  1.00  0.00     0.040 C 
HETATM   25  C16 UNL     1      24.271   6.817  51.363  1.00  0.00     0.005 C 
ENDBRANCH  16  18
ENDBRANCH   1  16
TORSDOF 2
ENDMDL
