MODEL 1
REMARK VINA RESULT:      -7.2      0.000      0.000
REMARK  6 active torsions:
REMARK  status: ('A' for Active; 'I' for Inactive)
REMARK    1  A    between atoms: N1_2  and  C2_3 
REMARK    2  A    between atoms: N1_2  and  C11_15 
REMARK    3  A    between atoms: C2_3  and  N2_4 
REMARK       I    between atoms: N2_4  and  C3_5 
REMARK    4  A    between atoms: C3_5  and  C4_7 
REMARK    5  A    between atoms: C4_7  and  O2_8 
REMARK    6  A    between atoms: O2_8  and  C5_9 
ROOT
HETATM    1  N2  UNL     1      25.710   2.890  52.996  1.00  0.00    -0.343 N 
HETATM    2  C3  UNL     1      24.742   2.385  52.084  1.00  0.00     0.243 C 
HETATM    3  O1  UNL     1      24.267   1.201  52.075  1.00  0.00    -0.271 OA
HETATM    4  H6  UNL     1      25.992   3.886  52.866  1.00  0.00     0.164 HD
ENDROOT
BRANCH   1   5
HETATM    5  C2  UNL     1      26.171   1.940  53.985  1.00  0.00     0.249 C 
BRANCH   5   6
HETATM    6  N1  UNL     1      27.464   1.389  53.656  1.00  0.00    -0.369 N 
HETATM    7  C1  UNL     1      28.530   2.359  53.592  1.00  0.00     0.151 C 
BRANCH   6   8
HETATM    8  C11 UNL     1      27.795   0.033  53.395  1.00  0.00     0.031 A 
HETATM    9  C12 UNL     1      29.073  -0.383  53.698  1.00  0.00     0.029 A 
HETATM   10  C13 UNL     1      29.438  -1.709  53.457  1.00  0.00     0.002 A 
HETATM   11  C14 UNL     1      28.585  -2.645  52.925  1.00  0.00     0.000 A 
HETATM   12  C15 UNL     1      27.317  -2.218  52.629  1.00  0.00     0.002 A 
HETATM   13  C16 UNL     1      26.951  -0.913  52.864  1.00  0.00     0.029 A 
ENDBRANCH   6   8
ENDBRANCH   5   6
ENDBRANCH   1   5
BRANCH   2  14
HETATM   14  C4  UNL     1      24.127   3.149  51.001  1.00  0.00     0.278 C 
BRANCH  14  15
HETATM   15  O2  UNL     1      24.818   3.128  49.784  1.00  0.00    -0.346 OA
BRANCH  15  16
HETATM   16  C5  UNL     1      25.639   4.216  49.498  1.00  0.00     0.046 C 
HETATM   17  C6  UNL     1      26.868   3.944  49.085  1.00  0.00     0.009 C 
HETATM   18  C7  UNL     1      27.836   5.011  48.749  1.00  0.00     0.056 C 
HETATM   19  C8  UNL     1      27.163   6.263  48.308  1.00  0.00    -0.027 C 
HETATM   20  C9  UNL     1      25.929   6.534  48.730  1.00  0.00    -0.024 C 
HETATM   21  C10 UNL     1      25.190   5.621  49.637  1.00  0.00     0.091 C 
ENDBRANCH  15  16
ENDBRANCH  14  15
ENDBRANCH   2  14
TORSDOF 6
ENDMDL
MODEL 2
REMARK VINA RESULT:      -7.1      2.893      6.325
REMARK  6 active torsions:
REMARK  status: ('A' for Active; 'I' for Inactive)
REMARK    1  A    between atoms: N1_2  and  C2_3 
REMARK    2  A    between atoms: N1_2  and  C11_15 
REMARK    3  A    between atoms: C2_3  and  N2_4 
REMARK       I    between atoms: N2_4  and  C3_5 
REMARK    4  A    between atoms: C3_5  and  C4_7 
REMARK    5  A    between atoms: C4_7  and  O2_8 
REMARK    6  A    between atoms: O2_8  and  C5_9 
ROOT
HETATM    1  N2  UNL     1      24.656   3.009  53.286  1.00  0.00    -0.343 N 
HETATM    2  C3  UNL     1      25.921   2.522  52.853  1.00  0.00     0.243 C 
HETATM    3  O1  UNL     1      26.242   2.234  51.653  1.00  0.00    -0.271 OA
HETATM    4  H6  UNL     1      24.558   3.196  54.308  1.00  0.00     0.164 HD
ENDROOT
BRANCH   1   5
HETATM    5  C2  UNL     1      23.675   3.178  52.236  1.00  0.00     0.249 C 
BRANCH   5   6
HETATM    6  N1  UNL     1      22.962   1.955  51.950  1.00  0.00    -0.369 N 
HETATM    7  C1  UNL     1      22.781   1.681  50.545  1.00  0.00     0.151 C 
BRANCH   6   8
HETATM    8  C11 UNL     1      22.433   1.016  52.874  1.00  0.00     0.031 A 
HETATM    9  C12 UNL     1      23.228  -0.053  53.226  1.00  0.00     0.029 A 
HETATM   10  C13 UNL     1      22.745  -0.998  54.132  1.00  0.00     0.002 A 
HETATM   11  C14 UNL     1      21.500  -0.930  54.707  1.00  0.00     0.000 A 
HETATM   12  C15 UNL     1      20.719   0.138  54.348  1.00  0.00     0.002 A 
HETATM   13  C16 UNL     1      21.189   1.073  53.456  1.00  0.00     0.029 A 
ENDBRANCH   6   8
ENDBRANCH   5   6
ENDBRANCH   1   5
BRANCH   2  14
HETATM   14  C4  UNL     1      27.068   2.271  53.723  1.00  0.00     0.278 C 
BRANCH  14  15
HETATM   15  O2  UNL     1      27.056   1.043  54.395  1.00  0.00    -0.346 OA
BRANCH  15  16
HETATM   16  C5  UNL     1      27.722  -0.020  53.791  1.00  0.00     0.046 C 
HETATM   17  C6  UNL     1      29.012  -0.148  54.064  1.00  0.00     0.009 C 
HETATM   18  C7  UNL     1      29.832  -1.236  53.486  1.00  0.00     0.056 C 
HETATM   19  C8  UNL     1      29.018  -2.438  53.155  1.00  0.00    -0.027 C 
HETATM   20  C9  UNL     1      27.723  -2.303  52.877  1.00  0.00    -0.024 C 
HETATM   21  C10 UNL     1      27.051  -0.980  52.884  1.00  0.00     0.091 C 
ENDBRANCH  15  16
ENDBRANCH  14  15
ENDBRANCH   2  14
TORSDOF 6
ENDMDL
MODEL 3
REMARK VINA RESULT:      -7.1      1.339      6.834
REMARK  6 active torsions:
REMARK  status: ('A' for Active; 'I' for Inactive)
REMARK    1  A    between atoms: N1_2  and  C2_3 
REMARK    2  A    between atoms: N1_2  and  C11_15 
REMARK    3  A    between atoms: C2_3  and  N2_4 
REMARK       I    between atoms: N2_4  and  C3_5 
REMARK    4  A    between atoms: C3_5  and  C4_7 
REMARK    5  A    between atoms: C4_7  and  O2_8 
REMARK    6  A    between atoms: O2_8  and  C5_9 
ROOT
HETATM    1  N2  UNL     1      24.730   3.812  52.315  1.00  0.00    -0.343 N 
HETATM    2  C3  UNL     1      24.940   2.453  52.680  1.00  0.00     0.243 C 
HETATM    3  O1  UNL     1      24.315   1.446  52.209  1.00  0.00    -0.271 OA
HETATM    4  H6  UNL     1      25.329   4.518  52.797  1.00  0.00     0.164 HD
ENDROOT
BRANCH   1   5
HETATM    5  C2  UNL     1      23.705   4.025  51.316  1.00  0.00     0.249 C 
BRANCH   5   6
HETATM    6  N1  UNL     1      24.225   3.943  49.971  1.00  0.00    -0.369 N 
HETATM    7  C1  UNL     1      23.481   3.071  49.094  1.00  0.00     0.151 C 
BRANCH   6   8
HETATM    8  C11 UNL     1      25.356   4.608  49.430  1.00  0.00     0.031 A 
HETATM    9  C12 UNL     1      25.194   5.913  49.018  1.00  0.00     0.029 A 
HETATM   10  C13 UNL     1      26.282   6.602  48.480  1.00  0.00     0.002 A 
HETATM   11  C14 UNL     1      27.531   6.050  48.332  1.00  0.00     0.000 A 
HETATM   12  C15 UNL     1      27.678   4.751  48.745  1.00  0.00     0.002 A 
HETATM   13  C16 UNL     1      26.610   4.067  49.276  1.00  0.00     0.029 A 
ENDBRANCH   6   8
ENDBRANCH   5   6
ENDBRANCH   1   5
BRANCH   2  14
HETATM   14  C4  UNL     1      25.915   1.987  53.663  1.00  0.00     0.278 C 
BRANCH  14  15
HETATM   15  O2  UNL     1      27.210   1.781  53.174  1.00  0.00    -0.346 OA
BRANCH  15  16
HETATM   16  C5  UNL     1      27.767   0.517  53.355  1.00  0.00     0.046 C 
HETATM   17  C6  UNL     1      27.131  -0.501  52.795  1.00  0.00     0.009 C 
HETATM   18  C7  UNL     1      27.620  -1.892  52.914  1.00  0.00     0.056 C 
HETATM   19  C8  UNL     1      29.094  -1.955  53.115  1.00  0.00    -0.027 C 
HETATM   20  C9  UNL     1      29.727  -0.931  53.684  1.00  0.00    -0.024 C 
HETATM   21  C10 UNL     1      29.008   0.289  54.130  1.00  0.00     0.091 C 
ENDBRANCH  15  16
ENDBRANCH  14  15
ENDBRANCH   2  14
TORSDOF 6
ENDMDL
MODEL 4
REMARK VINA RESULT:      -7.1      1.520      2.220
REMARK  6 active torsions:
REMARK  status: ('A' for Active; 'I' for Inactive)
REMARK    1  A    between atoms: N1_2  and  C2_3 
REMARK    2  A    between atoms: N1_2  and  C11_15 
REMARK    3  A    between atoms: C2_3  and  N2_4 
REMARK       I    between atoms: N2_4  and  C3_5 
REMARK    4  A    between atoms: C3_5  and  C4_7 
REMARK    5  A    between atoms: C4_7  and  O2_8 
REMARK    6  A    between atoms: O2_8  and  C5_9 
ROOT
HETATM    1  N2  UNL     1      25.190   2.154  51.736  1.00  0.00    -0.343 N 
HETATM    2  C3  UNL     1      26.351   2.617  51.055  1.00  0.00     0.243 C 
HETATM    3  O1  UNL     1      27.517   2.737  51.558  1.00  0.00    -0.271 OA
HETATM    4  H6  UNL     1      24.311   2.116  51.176  1.00  0.00     0.164 HD
ENDROOT
BRANCH   1   5
HETATM    5  C2  UNL     1      25.397   1.800  53.123  1.00  0.00     0.249 C 
BRANCH   5   6
HETATM    6  N1  UNL     1      25.600   0.382  53.304  1.00  0.00    -0.369 N 
HETATM    7  C1  UNL     1      24.388  -0.379  53.483  1.00  0.00     0.151 C 
BRANCH   6   8
HETATM    8  C11 UNL     1      26.829  -0.329  53.322  1.00  0.00     0.031 A 
HETATM    9  C12 UNL     1      26.850  -1.586  52.759  1.00  0.00     0.029 A 
HETATM   10  C13 UNL     1      28.038  -2.318  52.757  1.00  0.00     0.002 A 
HETATM   11  C14 UNL     1      29.215  -1.854  53.293  1.00  0.00     0.000 A 
HETATM   12  C15 UNL     1      29.180  -0.601  53.850  1.00  0.00     0.002 A 
HETATM   13  C16 UNL     1      28.012   0.125  53.855  1.00  0.00     0.029 A 
ENDBRANCH   6   8
ENDBRANCH   5   6
ENDBRANCH   1   5
BRANCH   2  14
HETATM   14  C4  UNL     1      26.395   3.031  49.655  1.00  0.00     0.278 C 
BRANCH  14  15
HETATM   15  O2  UNL     1      25.843   4.288  49.382  1.00  0.00    -0.346 OA
BRANCH  15  16
HETATM   16  C5  UNL     1      26.711   5.285  48.943  1.00  0.00     0.046 C 
HETATM   17  C6  UNL     1      27.930   4.902  48.594  1.00  0.00     0.009 C 
HETATM   18  C7  UNL     1      28.946   5.864  48.110  1.00  0.00     0.056 C 
HETATM   19  C8  UNL     1      28.329   7.059  47.472  1.00  0.00    -0.027 C 
HETATM   20  C9  UNL     1      27.105   7.442  47.830  1.00  0.00    -0.024 C 
HETATM   21  C10 UNL     1      26.322   6.711  48.857  1.00  0.00     0.091 C 
ENDBRANCH  15  16
ENDBRANCH  14  15
ENDBRANCH   2  14
TORSDOF 6
ENDMDL
MODEL 5
REMARK VINA RESULT:      -7.0      1.468      7.244
REMARK  6 active torsions:
REMARK  status: ('A' for Active; 'I' for Inactive)
REMARK    1  A    between atoms: N1_2  and  C2_3 
REMARK    2  A    between atoms: N1_2  and  C11_15 
REMARK    3  A    between atoms: C2_3  and  N2_4 
REMARK       I    between atoms: N2_4  and  C3_5 
REMARK    4  A    between atoms: C3_5  and  C4_7 
REMARK    5  A    between atoms: C4_7  and  O2_8 
REMARK    6  A    between atoms: O2_8  and  C5_9 
ROOT
HETATM    1  N2  UNL     1      26.804   3.055  51.314  1.00  0.00    -0.343 N 
HETATM    2  C3  UNL     1      25.967   2.208  52.092  1.00  0.00     0.243 C 
HETATM    3  O1  UNL     1      24.936   1.583  51.674  1.00  0.00    -0.271 OA
HETATM    4  H6  UNL     1      27.611   3.491  51.811  1.00  0.00     0.164 HD
ENDROOT
BRANCH   1   5
HETATM    5  C2  UNL     1      26.413   3.192  49.928  1.00  0.00     0.249 C 
BRANCH   5   6
HETATM    6  N1  UNL     1      26.093   4.557  49.581  1.00  0.00    -0.369 N 
HETATM    7  C1  UNL     1      24.812   5.014  50.063  1.00  0.00     0.151 C 
BRANCH   6   8
HETATM    8  C11 UNL     1      26.879   5.476  48.838  1.00  0.00     0.031 A 
HETATM    9  C12 UNL     1      28.197   5.148  48.603  1.00  0.00     0.029 A 
HETATM   10  C13 UNL     1      29.004   6.025  47.877  1.00  0.00     0.002 A 
HETATM   11  C14 UNL     1      28.558   7.221  47.369  1.00  0.00     0.000 A 
HETATM   12  C15 UNL     1      27.246   7.535  47.610  1.00  0.00     0.002 A 
HETATM   13  C16 UNL     1      26.445   6.675  48.325  1.00  0.00     0.029 A 
ENDBRANCH   6   8
ENDBRANCH   5   6
ENDBRANCH   1   5
BRANCH   2  14
HETATM   14  C4  UNL     1      26.156   1.912  53.511  1.00  0.00     0.278 C 
BRANCH  14  15
HETATM   15  O2  UNL     1      26.104   0.557  53.855  1.00  0.00    -0.346 OA
BRANCH  15  16
HETATM   16  C5  UNL     1      27.179  -0.241  53.471  1.00  0.00     0.046 C 
HETATM   17  C6  UNL     1      28.378   0.131  53.893  1.00  0.00     0.009 C 
HETATM   18  C7  UNL     1      29.600  -0.631  53.554  1.00  0.00     0.056 C 
HETATM   19  C8  UNL     1      29.313  -2.070  53.300  1.00  0.00    -0.027 C 
HETATM   20  C9  UNL     1      28.107  -2.437  52.870  1.00  0.00    -0.024 C 
HETATM   21  C10 UNL     1      27.023  -1.452  52.632  1.00  0.00     0.091 C 
ENDBRANCH  15  16
ENDBRANCH  14  15
ENDBRANCH   2  14
TORSDOF 6
ENDMDL
MODEL 6
REMARK VINA RESULT:      -7.0      1.234      2.052
REMARK  6 active torsions:
REMARK  status: ('A' for Active; 'I' for Inactive)
REMARK    1  A    between atoms: N1_2  and  C2_3 
REMARK    2  A    between atoms: N1_2  and  C11_15 
REMARK    3  A    between atoms: C2_3  and  N2_4 
REMARK       I    between atoms: N2_4  and  C3_5 
REMARK    4  A    between atoms: C3_5  and  C4_7 
REMARK    5  A    between atoms: C4_7  and  O2_8 
REMARK    6  A    between atoms: O2_8  and  C5_9 
ROOT
HETATM    1  N2  UNL     1      25.789   2.844  52.193  1.00  0.00    -0.343 N 
HETATM    2  C3  UNL     1      24.604   3.307  51.556  1.00  0.00     0.243 C 
HETATM    3  O1  UNL     1      23.417   3.193  52.008  1.00  0.00    -0.271 OA
HETATM    4  H6  UNL     1      26.684   3.018  51.686  1.00  0.00     0.164 HD
ENDROOT
BRANCH   1   5
HETATM    5  C2  UNL     1      25.582   2.190  53.467  1.00  0.00     0.249 C 
BRANCH   5   6
HETATM    6  N1  UNL     1      25.919   0.786  53.424  1.00  0.00    -0.369 N 
HETATM    7  C1  UNL     1      24.784  -0.100  53.338  1.00  0.00     0.151 C 
BRANCH   6   8
HETATM    8  C11 UNL     1      27.210   0.197  53.456  1.00  0.00     0.031 A 
HETATM    9  C12 UNL     1      28.251   0.964  53.934  1.00  0.00     0.029 A 
HETATM   10  C13 UNL     1      29.536   0.421  53.982  1.00  0.00     0.002 A 
HETATM   11  C14 UNL     1      29.836  -0.855  53.574  1.00  0.00     0.000 A 
HETATM   12  C15 UNL     1      28.792  -1.607  53.101  1.00  0.00     0.002 A 
HETATM   13  C16 UNL     1      27.523  -1.078  53.052  1.00  0.00     0.029 A 
ENDBRANCH   6   8
ENDBRANCH   5   6
ENDBRANCH   1   5
BRANCH   2  14
HETATM   14  C4  UNL     1      24.555   3.996  50.268  1.00  0.00     0.278 C 
BRANCH  14  15
HETATM   15  O2  UNL     1      25.083   5.292  50.259  1.00  0.00    -0.346 OA
BRANCH  15  16
HETATM   16  C5  UNL     1      26.098   5.561  49.345  1.00  0.00     0.046 C 
HETATM   17  C6  UNL     1      26.160   6.795  48.868  1.00  0.00     0.009 C 
HETATM   18  C7  UNL     1      27.192   7.207  47.891  1.00  0.00     0.056 C 
HETATM   19  C8  UNL     1      28.431   6.390  48.003  1.00  0.00    -0.027 C 
HETATM   20  C9  UNL     1      28.362   5.148  48.478  1.00  0.00    -0.024 C 
HETATM   21  C10 UNL     1      27.078   4.540  48.907  1.00  0.00     0.091 C 
ENDBRANCH  15  16
ENDBRANCH  14  15
ENDBRANCH   2  14
TORSDOF 6
ENDMDL
MODEL 7
REMARK VINA RESULT:      -6.8      2.717      3.866
REMARK  6 active torsions:
REMARK  status: ('A' for Active; 'I' for Inactive)
REMARK    1  A    between atoms: N1_2  and  C2_3 
REMARK    2  A    between atoms: N1_2  and  C11_15 
REMARK    3  A    between atoms: C2_3  and  N2_4 
REMARK       I    between atoms: N2_4  and  C3_5 
REMARK    4  A    between atoms: C3_5  and  C4_7 
REMARK    5  A    between atoms: C4_7  and  O2_8 
REMARK    6  A    between atoms: O2_8  and  C5_9 
ROOT
HETATM    1  N2  UNL     1      24.965   2.608  52.071  1.00  0.00    -0.343 N 
HETATM    2  C3  UNL     1      26.046   2.841  51.175  1.00  0.00     0.243 C 
HETATM    3  O1  UNL     1      27.261   2.501  51.362  1.00  0.00    -0.271 OA
HETATM    4  H6  UNL     1      24.029   2.951  51.765  1.00  0.00     0.164 HD
ENDROOT
BRANCH   1   5
HETATM    5  C2  UNL     1      25.323   1.920  53.293  1.00  0.00     0.249 C 
BRANCH   5   6
HETATM    6  N1  UNL     1      24.909   0.537  53.285  1.00  0.00    -0.369 N 
HETATM    7  C1  UNL     1      25.979  -0.407  53.073  1.00  0.00     0.151 C 
BRANCH   6   8
HETATM    8  C11 UNL     1      23.600   0.016  53.460  1.00  0.00     0.031 A 
HETATM    9  C12 UNL     1      23.392  -0.854  54.508  1.00  0.00     0.029 A 
HETATM   10  C13 UNL     1      22.119  -1.388  54.714  1.00  0.00     0.002 A 
HETATM   11  C14 UNL     1      21.037  -1.096  53.921  1.00  0.00     0.000 A 
HETATM   12  C15 UNL     1      21.257  -0.229  52.882  1.00  0.00     0.002 A 
HETATM   13  C16 UNL     1      22.510   0.302  52.674  1.00  0.00     0.029 A 
ENDBRANCH   6   8
ENDBRANCH   5   6
ENDBRANCH   1   5
BRANCH   2  14
HETATM   14  C4  UNL     1      25.936   3.514  49.883  1.00  0.00     0.278 C 
BRANCH  14  15
HETATM   15  O2  UNL     1      27.147   3.742  49.219  1.00  0.00    -0.346 OA
BRANCH  15  16
HETATM   16  C5  UNL     1      27.415   5.046  48.810  1.00  0.00     0.046 C 
HETATM   17  C6  UNL     1      28.628   5.286  48.337  1.00  0.00     0.009 C 
HETATM   18  C7  UNL     1      29.036   6.630  47.870  1.00  0.00     0.056 C 
HETATM   19  C8  UNL     1      27.878   7.435  47.392  1.00  0.00    -0.027 C 
HETATM   20  C9  UNL     1      26.661   7.192  47.875  1.00  0.00    -0.024 C 
HETATM   21  C10 UNL     1      26.412   6.134  48.886  1.00  0.00     0.091 C 
ENDBRANCH  15  16
ENDBRANCH  14  15
ENDBRANCH   2  14
TORSDOF 6
ENDMDL
MODEL 8
REMARK VINA RESULT:      -6.8      3.112      5.700
REMARK  6 active torsions:
REMARK  status: ('A' for Active; 'I' for Inactive)
REMARK    1  A    between atoms: N1_2  and  C2_3 
REMARK    2  A    between atoms: N1_2  and  C11_15 
REMARK    3  A    between atoms: C2_3  and  N2_4 
REMARK       I    between atoms: N2_4  and  C3_5 
REMARK    4  A    between atoms: C3_5  and  C4_7 
REMARK    5  A    between atoms: C4_7  and  O2_8 
REMARK    6  A    between atoms: O2_8  and  C5_9 
ROOT
HETATM    1  N2  UNL     1      23.199   2.644  50.896  1.00  0.00    -0.343 N 
HETATM    2  C3  UNL     1      24.305   3.123  51.651  1.00  0.00     0.243 C 
HETATM    3  O1  UNL     1      24.290   3.437  52.887  1.00  0.00    -0.271 OA
HETATM    4  H6  UNL     1      23.382   2.432  49.891  1.00  0.00     0.164 HD
ENDROOT
BRANCH   1   5
HETATM    5  C2  UNL     1      21.963   2.518  51.638  1.00  0.00     0.249 C 
BRANCH   5   6
HETATM    6  N1  UNL     1      21.593   1.139  51.857  1.00  0.00    -0.369 N 
HETATM    7  C1  UNL     1      20.717   0.587  50.851  1.00  0.00     0.151 C 
BRANCH   6   8
HETATM    8  C11 UNL     1      21.985   0.288  52.923  1.00  0.00     0.031 A 
HETATM    9  C12 UNL     1      20.993  -0.385  53.603  1.00  0.00     0.029 A 
HETATM   10  C13 UNL     1      21.337  -1.231  54.658  1.00  0.00     0.002 A 
HETATM   11  C14 UNL     1      22.630  -1.440  55.071  1.00  0.00     0.000 A 
HETATM   12  C15 UNL     1      23.607  -0.765  54.386  1.00  0.00     0.002 A 
HETATM   13  C16 UNL     1      23.274   0.071  53.345  1.00  0.00     0.029 A 
ENDBRANCH   6   8
ENDBRANCH   5   6
ENDBRANCH   1   5
BRANCH   2  14
HETATM   14  C4  UNL     1      25.653   3.334  51.127  1.00  0.00     0.278 C 
BRANCH  14  15
HETATM   15  O2  UNL     1      26.366   2.171  50.817  1.00  0.00    -0.346 OA
BRANCH  15  16
HETATM   16  C5  UNL     1      26.896   1.445  51.881  1.00  0.00     0.046 C 
HETATM   17  C6  UNL     1      26.626   0.149  51.912  1.00  0.00     0.009 C 
HETATM   18  C7  UNL     1      27.130  -0.731  52.989  1.00  0.00     0.056 C 
HETATM   19  C8  UNL     1      28.392  -0.219  53.590  1.00  0.00    -0.027 C 
HETATM   20  C9  UNL     1      28.656   1.086  53.561  1.00  0.00    -0.024 C 
HETATM   21  C10 UNL     1      27.725   2.063  52.942  1.00  0.00     0.091 C 
ENDBRANCH  15  16
ENDBRANCH  14  15
ENDBRANCH   2  14
TORSDOF 6
ENDMDL
MODEL 9
REMARK VINA RESULT:      -6.7      1.663      6.638
REMARK  6 active torsions:
REMARK  status: ('A' for Active; 'I' for Inactive)
REMARK    1  A    between atoms: N1_2  and  C2_3 
REMARK    2  A    between atoms: N1_2  and  C11_15 
REMARK    3  A    between atoms: C2_3  and  N2_4 
REMARK       I    between atoms: N2_4  and  C3_5 
REMARK    4  A    between atoms: C3_5  and  C4_7 
REMARK    5  A    between atoms: C4_7  and  O2_8 
REMARK    6  A    between atoms: O2_8  and  C5_9 
ROOT
HETATM    1  N2  UNL     1      24.173   4.505  52.045  1.00  0.00    -0.343 N 
HETATM    2  C3  UNL     1      24.289   3.087  52.060  1.00  0.00     0.243 C 
HETATM    3  O1  UNL     1      24.060   2.306  51.078  1.00  0.00    -0.271 OA
HETATM    4  H6  UNL     1      24.399   4.997  52.937  1.00  0.00     0.164 HD
ENDROOT
BRANCH   1   5
HETATM    5  C2  UNL     1      23.753   5.070  50.781  1.00  0.00     0.249 C 
BRANCH   5   6
HETATM    6  N1  UNL     1      24.597   6.164  50.361  1.00  0.00    -0.369 N 
HETATM    7  C1  UNL     1      24.109   7.471  50.729  1.00  0.00     0.151 C 
BRANCH   6   8
HETATM    8  C11 UNL     1      25.821   6.098  49.646  1.00  0.00     0.031 A 
HETATM    9  C12 UNL     1      26.338   4.850  49.376  1.00  0.00     0.029 A 
HETATM   10  C13 UNL     1      27.540   4.743  48.675  1.00  0.00     0.002 A 
HETATM   11  C14 UNL     1      28.256   5.826  48.228  1.00  0.00     0.000 A 
HETATM   12  C15 UNL     1      27.731   7.062  48.503  1.00  0.00     0.002 A 
HETATM   13  C16 UNL     1      26.546   7.174  49.193  1.00  0.00     0.029 A 
ENDBRANCH   6   8
ENDBRANCH   5   6
ENDBRANCH   1   5
BRANCH   2  14
HETATM   14  C4  UNL     1      24.695   2.289  53.215  1.00  0.00     0.278 C 
BRANCH  14  15
HETATM   15  O2  UNL     1      25.288   1.057  52.915  1.00  0.00    -0.346 OA
BRANCH  15  16
HETATM   16  C5  UNL     1      26.668   0.959  53.068  1.00  0.00     0.046 C 
HETATM   17  C6  UNL     1      27.299   2.040  53.499  1.00  0.00     0.009 C 
HETATM   18  C7  UNL     1      28.764   2.065  53.703  1.00  0.00     0.056 C 
HETATM   19  C8  UNL     1      29.313   0.714  54.002  1.00  0.00    -0.027 C 
HETATM   20  C9  UNL     1      28.678  -0.370  53.561  1.00  0.00    -0.024 C 
HETATM   21  C10 UNL     1      27.425  -0.280  52.771  1.00  0.00     0.091 C 
ENDBRANCH  15  16
ENDBRANCH  14  15
ENDBRANCH   2  14
TORSDOF 6
ENDMDL
