MODEL 1
REMARK VINA RESULT:      -9.1      0.000      0.000
REMARK  1 active torsions:
REMARK  status: ('A' for Active; 'I' for Inactive)
REMARK    1  A    between atoms: O1_2  and  C2_3 
ROOT
HETATM    1  C2  UNL     1      26.410   2.602  50.706  1.00  0.00     0.185 C 
HETATM    2  C3  UNL     1      27.008   2.081  51.733  1.00  0.00     0.119 C 
HETATM    3  C4  UNL     1      27.760   1.512  52.874  1.00  0.00     0.182 C 
HETATM    4  O2  UNL     1      29.025   1.644  53.008  1.00  0.00    -0.288 OA
HETATM    5  C5  UNL     1      27.063   0.752  53.896  1.00  0.00    -0.012 C 
HETATM    6  C6  UNL     1      27.969   0.352  54.998  1.00  0.00     0.052 C 
HETATM    7  C7  UNL     1      25.798   0.313  54.088  1.00  0.00     0.010 C 
HETATM    8  C8  UNL     1      24.568   0.440  53.270  1.00  0.00    -0.003 C 
HETATM    9  C9  UNL     1      23.420  -0.144  53.758  1.00  0.00    -0.022 C 
HETATM   10  C10 UNL     1      22.352  -0.794  54.400  1.00  0.00     0.007 C 
HETATM   11  C11 UNL     1      22.021  -2.168  53.738  1.00  0.00     0.014 C 
HETATM   12  C12 UNL     1      21.104  -0.132  54.788  1.00  0.00     0.035 C 
HETATM   13  C13 UNL     1      20.153   0.353  53.802  1.00  0.00    -0.030 C 
HETATM   14  C14 UNL     1      19.850   0.534  52.550  1.00  0.00    -0.030 C 
HETATM   15  C15 UNL     1      19.142   0.900  51.331  1.00  0.00     0.031 C 
HETATM   16  C16 UNL     1      19.610   1.923  50.423  1.00  0.00    -0.015 C 
HETATM   17  C17 UNL     1      18.465   2.036  49.349  1.00  0.00     0.010 C 
HETATM   18  C18 UNL     1      20.839   1.883  49.636  1.00  0.00     0.006 C 
HETATM   19  C19 UNL     1      22.129   1.980  50.382  1.00  0.00     0.027 C 
HETATM   20  C20 UNL     1      22.132   3.204  51.284  1.00  0.00     0.170 C 
HETATM   21  O3  UNL     1      23.209   3.401  52.019  1.00  0.00    -0.366 OA
HETATM   22  C21 UNL     1      24.400   3.603  51.478  1.00  0.00     0.347 C 
HETATM   23  O4  UNL     1      24.973   2.569  50.654  1.00  0.00    -0.305 OA
ENDROOT
BRANCH   1  24
HETATM   24  O1  UNL     1      26.205   3.244  49.513  1.00  0.00    -0.335 OA
HETATM   25  C1  UNL     1      27.062   4.277  49.104  1.00  0.00     0.212 C 
ENDBRANCH   1  24
TORSDOF 1
ENDMDL
MODEL 2
REMARK VINA RESULT:      -8.9      2.390      6.323
REMARK  1 active torsions:
REMARK  status: ('A' for Active; 'I' for Inactive)
REMARK    1  A    between atoms: O1_2  and  C2_3 
ROOT
HETATM    1  C2  UNL     1      19.324   1.754  51.483  1.00  0.00     0.185 C 
HETATM    2  C3  UNL     1      19.559   0.749  52.269  1.00  0.00     0.119 C 
HETATM    3  C4  UNL     1      19.749  -0.407  53.174  1.00  0.00     0.182 C 
HETATM    4  O2  UNL     1      18.773  -1.091  53.640  1.00  0.00    -0.288 OA
HETATM    5  C5  UNL     1      21.085  -0.799  53.581  1.00  0.00    -0.012 C 
HETATM    6  C6  UNL     1      21.071  -2.030  54.404  1.00  0.00     0.052 C 
HETATM    7  C7  UNL     1      22.337  -0.315  53.405  1.00  0.00     0.010 C 
HETATM    8  C8  UNL     1      22.847   0.879  52.690  1.00  0.00    -0.003 C 
HETATM    9  C9  UNL     1      24.208   1.093  52.710  1.00  0.00    -0.022 C 
HETATM   10  C10 UNL     1      25.607   1.160  52.831  1.00  0.00     0.007 C 
HETATM   11  C11 UNL     1      26.053   2.237  53.869  1.00  0.00     0.014 C 
HETATM   12  C12 UNL     1      26.529   1.174  51.693  1.00  0.00     0.035 C 
HETATM   13  C13 UNL     1      26.604   2.302  50.781  1.00  0.00    -0.030 C 
HETATM   14  C14 UNL     1      26.153   3.468  50.419  1.00  0.00    -0.030 C 
HETATM   15  C15 UNL     1      25.967   4.727  49.712  1.00  0.00     0.031 C 
HETATM   16  C16 UNL     1      24.768   5.046  48.972  1.00  0.00    -0.015 C 
HETATM   17  C17 UNL     1      25.090   6.431  48.296  1.00  0.00     0.010 C 
HETATM   18  C18 UNL     1      23.429   5.222  49.529  1.00  0.00     0.006 C 
HETATM   19  C19 UNL     1      22.752   4.005  50.067  1.00  0.00     0.027 C 
HETATM   20  C20 UNL     1      22.737   2.898  49.025  1.00  0.00     0.170 C 
HETATM   21  O3  UNL     1      22.183   1.754  49.378  1.00  0.00    -0.366 OA
HETATM   22  C21 UNL     1      20.906   1.668  49.714  1.00  0.00     0.347 C 
HETATM   23  O4  UNL     1      20.437   2.414  50.855  1.00  0.00    -0.305 OA
ENDROOT
BRANCH   1  24
HETATM   24  O1  UNL     1      18.653   2.706  50.761  1.00  0.00    -0.335 OA
HETATM   25  C1  UNL     1      17.708   3.537  51.383  1.00  0.00     0.212 C 
ENDBRANCH   1  24
TORSDOF 1
ENDMDL
MODEL 3
REMARK VINA RESULT:      -8.7      2.171      6.062
REMARK  1 active torsions:
REMARK  status: ('A' for Active; 'I' for Inactive)
REMARK    1  A    between atoms: O1_2  and  C2_3 
ROOT
HETATM    1  C2  UNL     1      24.608  -0.502  53.582  1.00  0.00     0.185 C 
HETATM    2  C3  UNL     1      23.352  -0.786  53.735  1.00  0.00     0.119 C 
HETATM    3  C4  UNL     1      21.939  -1.168  53.956  1.00  0.00     0.182 C 
HETATM    4  O2  UNL     1      21.590  -2.106  54.755  1.00  0.00    -0.288 OA
HETATM    5  C5  UNL     1      20.879  -0.480  53.242  1.00  0.00    -0.012 C 
HETATM    6  C6  UNL     1      19.538  -0.939  53.671  1.00  0.00     0.052 C 
HETATM    7  C7  UNL     1      20.813   0.466  52.278  1.00  0.00     0.010 C 
HETATM    8  C8  UNL     1      21.863   1.199  51.532  1.00  0.00    -0.003 C 
HETATM    9  C9  UNL     1      21.448   2.113  50.588  1.00  0.00    -0.022 C 
HETATM   10  C10 UNL     1      20.853   2.997  49.671  1.00  0.00     0.007 C 
HETATM   11  C11 UNL     1      20.927   2.458  48.208  1.00  0.00     0.014 C 
HETATM   12  C12 UNL     1      21.077   4.444  49.665  1.00  0.00     0.035 C 
HETATM   13  C13 UNL     1      22.363   5.020  49.311  1.00  0.00    -0.030 C 
HETATM   14  C14 UNL     1      23.607   4.835  48.976  1.00  0.00    -0.030 C 
HETATM   15  C15 UNL     1      24.992   5.070  48.591  1.00  0.00     0.031 C 
HETATM   16  C16 UNL     1      26.114   4.721  49.432  1.00  0.00    -0.015 C 
HETATM   17  C17 UNL     1      27.365   5.274  48.652  1.00  0.00     0.010 C 
HETATM   18  C18 UNL     1      26.509   3.373  49.831  1.00  0.00     0.006 C 
HETATM   19  C19 UNL     1      25.602   2.650  50.773  1.00  0.00     0.027 C 
HETATM   20  C20 UNL     1      25.330   3.497  52.006  1.00  0.00     0.170 C 
HETATM   21  O3  UNL     1      24.524   2.984  52.916  1.00  0.00    -0.366 OA
HETATM   22  C21 UNL     1      24.814   1.863  53.557  1.00  0.00     0.347 C 
HETATM   23  O4  UNL     1      24.967   0.648  52.797  1.00  0.00    -0.305 OA
ENDROOT
BRANCH   1  24
HETATM   24  O1  UNL     1      25.973  -0.563  53.689  1.00  0.00    -0.335 OA
HETATM   25  C1  UNL     1      26.731  -1.272  52.744  1.00  0.00     0.212 C 
ENDBRANCH   1  24
TORSDOF 1
ENDMDL
MODEL 4
REMARK VINA RESULT:      -8.3      2.336      5.264
REMARK  1 active torsions:
REMARK  status: ('A' for Active; 'I' for Inactive)
REMARK    1  A    between atoms: O1_2  and  C2_3 
ROOT
HETATM    1  C2  UNL     1      21.903   4.620  48.858  1.00  0.00     0.185 C 
HETATM    2  C3  UNL     1      23.080   5.143  48.701  1.00  0.00     0.119 C 
HETATM    3  C4  UNL     1      24.392   5.786  48.467  1.00  0.00     0.182 C 
HETATM    4  O2  UNL     1      24.554   6.757  47.649  1.00  0.00    -0.288 OA
HETATM    5  C5  UNL     1      25.570   5.310  49.169  1.00  0.00    -0.012 C 
HETATM    6  C6  UNL     1      26.760   6.141  48.874  1.00  0.00     0.052 C 
HETATM    7  C7  UNL     1      25.853   4.293  50.015  1.00  0.00     0.010 C 
HETATM    8  C8  UNL     1      25.015   3.206  50.575  1.00  0.00    -0.003 C 
HETATM    9  C9  UNL     1      25.627   2.308  51.421  1.00  0.00    -0.022 C 
HETATM   10  C10 UNL     1      26.406   1.488  52.256  1.00  0.00     0.007 C 
HETATM   11  C11 UNL     1      26.777   0.137  51.569  1.00  0.00     0.014 C 
HETATM   12  C12 UNL     1      26.113   1.245  53.671  1.00  0.00     0.035 C 
HETATM   13  C13 UNL     1      24.949   0.487  54.095  1.00  0.00    -0.030 C 
HETATM   14  C14 UNL     1      23.861  -0.149  53.769  1.00  0.00    -0.030 C 
HETATM   15  C15 UNL     1      22.630  -0.923  53.843  1.00  0.00     0.031 C 
HETATM   16  C16 UNL     1      21.337  -0.385  53.484  1.00  0.00    -0.015 C 
HETATM   17  C17 UNL     1      20.328  -1.538  53.845  1.00  0.00     0.010 C 
HETATM   18  C18 UNL     1      20.922   0.052  52.154  1.00  0.00     0.006 C 
HETATM   19  C19 UNL     1      21.566   1.286  51.612  1.00  0.00     0.027 C 
HETATM   20  C20 UNL     1      21.433   2.434  52.599  1.00  0.00     0.170 C 
HETATM   21  O3  UNL     1      21.979   3.585  52.253  1.00  0.00    -0.366 OA
HETATM   22  C21 UNL     1      21.583   4.253  51.182  1.00  0.00     0.347 C 
HETATM   23  O4  UNL     1      21.717   3.634  49.887  1.00  0.00    -0.305 OA
ENDROOT
BRANCH   1  24
HETATM   24  O1  UNL     1      20.568   4.357  48.690  1.00  0.00    -0.335 OA
HETATM   25  C1  UNL     1      20.150   3.272  47.903  1.00  0.00     0.212 C 
ENDBRANCH   1  24
TORSDOF 1
ENDMDL
MODEL 5
REMARK VINA RESULT:      -8.0      2.233      4.867
REMARK  1 active torsions:
REMARK  status: ('A' for Active; 'I' for Inactive)
REMARK    1  A    between atoms: O1_2  and  C2_3 
ROOT
HETATM    1  C2  UNL     1      26.088   1.398  53.881  1.00  0.00     0.185 C 
HETATM    2  C3  UNL     1      25.240   0.466  54.189  1.00  0.00     0.119 C 
HETATM    3  C4  UNL     1      24.326  -0.626  54.591  1.00  0.00     0.182 C 
HETATM    4  O2  UNL     1      24.604  -1.458  55.523  1.00  0.00    -0.288 OA
HETATM    5  C5  UNL     1      23.056  -0.799  53.909  1.00  0.00    -0.012 C 
HETATM    6  C6  UNL     1      22.246  -1.879  54.518  1.00  0.00     0.052 C 
HETATM    7  C7  UNL     1      22.434  -0.226  52.852  1.00  0.00     0.010 C 
HETATM    8  C8  UNL     1      22.844   0.857  51.927  1.00  0.00    -0.003 C 
HETATM    9  C9  UNL     1      21.961   1.204  50.929  1.00  0.00    -0.022 C 
HETATM   10  C10 UNL     1      20.950   1.427  49.979  1.00  0.00     0.007 C 
HETATM   11  C11 UNL     1      21.309   0.817  48.587  1.00  0.00     0.014 C 
HETATM   12  C12 UNL     1      20.279   2.715  49.782  1.00  0.00     0.035 C 
HETATM   13  C13 UNL     1      20.976   3.868  49.239  1.00  0.00    -0.030 C 
HETATM   14  C14 UNL     1      22.087   4.390  48.808  1.00  0.00    -0.030 C 
HETATM   15  C15 UNL     1      23.064   5.323  48.264  1.00  0.00     0.031 C 
HETATM   16  C16 UNL     1      24.187   5.822  49.025  1.00  0.00    -0.015 C 
HETATM   17  C17 UNL     1      24.864   6.872  48.067  1.00  0.00     0.010 C 
HETATM   18  C18 UNL     1      25.303   5.033  49.538  1.00  0.00     0.006 C 
HETATM   19  C19 UNL     1      25.006   4.072  50.641  1.00  0.00     0.027 C 
HETATM   20  C20 UNL     1      24.302   4.779  51.789  1.00  0.00     0.170 C 
HETATM   21  O3  UNL     1      23.961   4.038  52.826  1.00  0.00    -0.366 OA
HETATM   22  C21 UNL     1      24.862   3.407  53.562  1.00  0.00     0.347 C 
HETATM   23  O4  UNL     1      25.693   2.408  52.937  1.00  0.00    -0.305 OA
ENDROOT
BRANCH   1  24
HETATM   24  O1  UNL     1      27.229   2.158  53.860  1.00  0.00    -0.335 OA
HETATM   25  C1  UNL     1      28.492   1.545  53.837  1.00  0.00     0.212 C 
ENDBRANCH   1  24
TORSDOF 1
ENDMDL
MODEL 6
REMARK VINA RESULT:      -7.8      2.044      2.771
REMARK  1 active torsions:
REMARK  status: ('A' for Active; 'I' for Inactive)
REMARK    1  A    between atoms: O1_2  and  C2_3 
ROOT
HETATM    1  C2  UNL     1      26.563   3.699  49.911  1.00  0.00     0.185 C 
HETATM    2  C3  UNL     1      26.747   3.000  50.989  1.00  0.00     0.119 C 
HETATM    3  C4  UNL     1      27.035   2.209  52.205  1.00  0.00     0.182 C 
HETATM    4  O2  UNL     1      28.224   1.984  52.622  1.00  0.00    -0.288 OA
HETATM    5  C5  UNL     1      25.946   1.636  52.974  1.00  0.00    -0.012 C 
HETATM    6  C6  UNL     1      26.431   0.966  54.203  1.00  0.00     0.052 C 
HETATM    7  C7  UNL     1      24.601   1.554  52.844  1.00  0.00     0.010 C 
HETATM    8  C8  UNL     1      23.675   2.041  51.794  1.00  0.00    -0.003 C 
HETATM    9  C9  UNL     1      22.333   1.779  51.964  1.00  0.00    -0.022 C 
HETATM   10  C10 UNL     1      21.013   1.426  52.293  1.00  0.00     0.007 C 
HETATM   11  C11 UNL     1      20.502   0.218  51.446  1.00  0.00     0.014 C 
HETATM   12  C12 UNL     1      19.924   2.391  52.462  1.00  0.00     0.035 C 
HETATM   13  C13 UNL     1      19.391   3.151  51.345  1.00  0.00    -0.030 C 
HETATM   14  C14 UNL     1      19.448   3.450  50.080  1.00  0.00    -0.030 C 
HETATM   15  C15 UNL     1      19.167   4.037  48.777  1.00  0.00     0.031 C 
HETATM   16  C16 UNL     1      20.083   4.922  48.095  1.00  0.00    -0.015 C 
HETATM   17  C17 UNL     1      19.293   5.380  46.813  1.00  0.00     0.010 C 
HETATM   18  C18 UNL     1      21.409   4.572  47.593  1.00  0.00     0.006 C 
HETATM   19  C19 UNL     1      22.467   4.287  48.607  1.00  0.00     0.027 C 
HETATM   20  C20 UNL     1      22.576   5.433  49.601  1.00  0.00     0.170 C 
HETATM   21  O3  UNL     1      23.463   5.301  50.568  1.00  0.00    -0.366 OA
HETATM   22  C21 UNL     1      24.758   5.187  50.320  1.00  0.00     0.347 C 
HETATM   23  O4  UNL     1      25.221   4.063  49.545  1.00  0.00    -0.305 OA
ENDROOT
BRANCH   1  24
HETATM   24  O1  UNL     1      26.818   4.412  48.769  1.00  0.00    -0.335 OA
HETATM   25  C1  UNL     1      28.044   5.074  48.602  1.00  0.00     0.212 C 
ENDBRANCH   1  24
TORSDOF 1
ENDMDL
MODEL 7
REMARK VINA RESULT:      -7.7      2.409      5.106
REMARK  1 active torsions:
REMARK  status: ('A' for Active; 'I' for Inactive)
REMARK    1  A    between atoms: O1_2  and  C2_3 
ROOT
HETATM    1  C2  UNL     1      22.823  -0.426  53.909  1.00  0.00     0.185 C 
HETATM    2  C3  UNL     1      24.103  -0.401  53.696  1.00  0.00     0.119 C 
HETATM    3  C4  UNL     1      25.570  -0.428  53.508  1.00  0.00     0.182 C 
HETATM    4  O2  UNL     1      26.335  -1.250  54.124  1.00  0.00    -0.288 OA
HETATM    5  C5  UNL     1      26.205   0.514  52.605  1.00  0.00    -0.012 C 
HETATM    6  C6  UNL     1      27.660   0.264  52.481  1.00  0.00     0.052 C 
HETATM    7  C7  UNL     1      25.801   1.567  51.857  1.00  0.00     0.010 C 
HETATM    8  C8  UNL     1      24.474   2.202  51.673  1.00  0.00    -0.003 C 
HETATM    9  C9  UNL     1      24.405   3.288  50.828  1.00  0.00    -0.022 C 
HETATM   10  C10 UNL     1      24.516   4.373  49.942  1.00  0.00     0.007 C 
HETATM   11  C11 UNL     1      24.486   5.744  50.688  1.00  0.00     0.014 C 
HETATM   12  C12 UNL     1      23.763   4.489  48.690  1.00  0.00     0.035 C 
HETATM   13  C13 UNL     1      22.324   4.687  48.675  1.00  0.00    -0.030 C 
HETATM   14  C14 UNL     1      21.213   4.795  49.342  1.00  0.00    -0.030 C 
HETATM   15  C15 UNL     1      19.808   4.972  49.682  1.00  0.00     0.031 C 
HETATM   16  C16 UNL     1      19.002   3.931  50.277  1.00  0.00    -0.015 C 
HETATM   17  C17 UNL     1      17.556   4.549  50.335  1.00  0.00     0.010 C 
HETATM   18  C18 UNL     1      19.193   3.339  51.598  1.00  0.00     0.006 C 
HETATM   19  C19 UNL     1      20.405   2.488  51.793  1.00  0.00     0.027 C 
HETATM   20  C20 UNL     1      20.475   1.407  50.727  1.00  0.00     0.170 C 
HETATM   21  O3  UNL     1      21.512   0.593  50.771  1.00  0.00    -0.366 OA
HETATM   22  C21 UNL     1      21.741  -0.196  51.808  1.00  0.00     0.347 C 
HETATM   23  O4  UNL     1      21.972   0.402  53.099  1.00  0.00    -0.305 OA
ENDROOT
BRANCH   1  24
HETATM   24  O1  UNL     1      21.603  -0.758  54.438  1.00  0.00    -0.335 OA
HETATM   25  C1  UNL     1      20.762   0.234  54.966  1.00  0.00     0.212 C 
ENDBRANCH   1  24
TORSDOF 1
ENDMDL
MODEL 8
REMARK VINA RESULT:      -7.6      2.579      5.490
REMARK  1 active torsions:
REMARK  status: ('A' for Active; 'I' for Inactive)
REMARK    1  A    between atoms: O1_2  and  C2_3 
ROOT
HETATM    1  C2  UNL     1      22.492   5.938  48.245  1.00  0.00     0.185 C 
HETATM    2  C3  UNL     1      23.730   6.309  48.132  1.00  0.00     0.119 C 
HETATM    3  C4  UNL     1      25.120   6.783  47.946  1.00  0.00     0.182 C 
HETATM    4  O2  UNL     1      25.430   7.729  47.142  1.00  0.00    -0.288 OA
HETATM    5  C5  UNL     1      26.204   6.159  48.683  1.00  0.00    -0.012 C 
HETATM    6  C6  UNL     1      27.498   6.835  48.434  1.00  0.00     0.052 C 
HETATM    7  C7  UNL     1      26.328   5.112  49.530  1.00  0.00     0.010 C 
HETATM    8  C8  UNL     1      25.341   4.137  50.053  1.00  0.00    -0.003 C 
HETATM    9  C9  UNL     1      25.807   3.165  50.912  1.00  0.00    -0.022 C 
HETATM   10  C10 UNL     1      26.447   2.251  51.765  1.00  0.00     0.007 C 
HETATM   11  C11 UNL     1      26.668   0.866  51.079  1.00  0.00     0.014 C 
HETATM   12  C12 UNL     1      26.078   2.041  53.168  1.00  0.00     0.035 C 
HETATM   13  C13 UNL     1      24.814   1.434  53.546  1.00  0.00    -0.030 C 
HETATM   14  C14 UNL     1      23.667   0.941  53.179  1.00  0.00    -0.030 C 
HETATM   15  C15 UNL     1      22.346   0.328  53.206  1.00  0.00     0.031 C 
HETATM   16  C16 UNL     1      21.145   1.026  52.809  1.00  0.00    -0.015 C 
HETATM   17  C17 UNL     1      19.987   0.008  53.127  1.00  0.00     0.010 C 
HETATM   18  C18 UNL     1      20.833   1.517  51.469  1.00  0.00     0.006 C 
HETATM   19  C19 UNL     1      21.645   2.662  50.959  1.00  0.00     0.027 C 
HETATM   20  C20 UNL     1      21.624   3.814  51.951  1.00  0.00     0.170 C 
HETATM   21  O3  UNL     1      22.321   4.888  51.632  1.00  0.00    -0.366 OA
HETATM   22  C21 UNL     1      22.049   5.606  50.554  1.00  0.00     0.347 C 
HETATM   23  O4  UNL     1      22.148   4.979  49.259  1.00  0.00    -0.305 OA
ENDROOT
BRANCH   1  24
HETATM   24  O1  UNL     1      21.141   5.846  48.031  1.00  0.00    -0.335 OA
HETATM   25  C1  UNL     1      20.627   4.910  47.120  1.00  0.00     0.212 C 
ENDBRANCH   1  24
TORSDOF 1
ENDMDL
MODEL 9
REMARK VINA RESULT:      -7.4      2.383      4.144
REMARK  1 active torsions:
REMARK  status: ('A' for Active; 'I' for Inactive)
REMARK    1  A    between atoms: O1_2  and  C2_3 
ROOT
HETATM    1  C2  UNL     1      25.180   1.867  52.326  1.00  0.00     0.185 C 
HETATM    2  C3  UNL     1      24.629   0.914  53.013  1.00  0.00     0.119 C 
HETATM    3  C4  UNL     1      24.073  -0.199  53.815  1.00  0.00     0.182 C 
HETATM    4  O2  UNL     1      24.805  -0.999  54.495  1.00  0.00    -0.288 OA
HETATM    5  C5  UNL     1      22.640  -0.429  53.843  1.00  0.00    -0.012 C 
HETATM    6  C6  UNL     1      22.276  -1.522  54.774  1.00  0.00     0.052 C 
HETATM    7  C7  UNL     1      21.558   0.098  53.224  1.00  0.00     0.010 C 
HETATM    8  C8  UNL     1      21.420   1.173  52.212  1.00  0.00    -0.003 C 
HETATM    9  C9  UNL     1      20.148   1.467  51.773  1.00  0.00    -0.022 C 
HETATM   10  C10 UNL     1      18.793   1.634  51.438  1.00  0.00     0.007 C 
HETATM   11  C11 UNL     1      18.450   1.004  50.052  1.00  0.00     0.014 C 
HETATM   12  C12 UNL     1      18.060   2.894  51.590  1.00  0.00     0.035 C 
HETATM   13  C13 UNL     1      18.355   4.057  50.771  1.00  0.00    -0.030 C 
HETATM   14  C14 UNL     1      19.092   4.606  49.850  1.00  0.00    -0.030 C 
HETATM   15  C15 UNL     1      19.640   5.558  48.894  1.00  0.00     0.031 C 
HETATM   16  C16 UNL     1      20.970   6.112  49.005  1.00  0.00    -0.015 C 
HETATM   17  C17 UNL     1      21.048   7.161  47.835  1.00  0.00     0.010 C 
HETATM   18  C18 UNL     1      22.225   5.372  48.909  1.00  0.00     0.006 C 
HETATM   19  C19 UNL     1      22.544   4.427  50.021  1.00  0.00     0.027 C 
HETATM   20  C20 UNL     1      22.463   5.136  51.363  1.00  0.00     0.170 C 
HETATM   21  O3  UNL     1      22.704   4.409  52.437  1.00  0.00    -0.366 OA
HETATM   22  C21 UNL     1      23.874   3.825  52.640  1.00  0.00     0.347 C 
HETATM   23  O4  UNL     1      24.333   2.840  51.693  1.00  0.00    -0.305 OA
ENDROOT
BRANCH   1  24
HETATM   24  O1  UNL     1      26.133   2.663  51.747  1.00  0.00    -0.335 OA
HETATM   25  C1  UNL     1      26.288   2.687  50.352  1.00  0.00     0.212 C 
ENDBRANCH   1  24
TORSDOF 1
ENDMDL
