MODEL 1
REMARK VINA RESULT:      -9.6      0.000      0.000
REMARK  4 active torsions:
REMARK  status: ('A' for Active; 'I' for Inactive)
REMARK    1  A    between atoms: C2_2  and  N1_3 
REMARK    2  A    between atoms: C2_2  and  C15_20 
REMARK    3  A    between atoms: N1_3  and  C3_4 
REMARK    4  A    between atoms: C6_10  and  C7_11 
ROOT
HETATM    1  C3  UNL     1      25.915   2.859  51.516  1.00  0.00     0.102 A 
HETATM    2  N2  UNL     1      27.133   2.490  51.719  1.00  0.00    -0.229 NA
HETATM    3  C4  UNL     1      27.483   1.303  52.378  1.00  0.00     0.236 A 
HETATM    4  N3  UNL     1      27.598   0.197  53.006  1.00  0.00    -0.235 NA
HETATM    5  C5  UNL     1      26.521  -0.566  53.520  1.00  0.00     0.234 A 
HETATM    6  N4  UNL     1      25.260  -0.865  53.740  1.00  0.00    -0.245 NA
HETATM    7  C6  UNL     1      24.283   0.080  53.157  1.00  0.00     0.051 A 
HETATM    8  C13 UNL     1      24.257   1.232  52.468  1.00  0.00     0.056 A 
HETATM    9  C14 UNL     1      24.489   2.450  51.746  1.00  0.00     0.090 A 
ENDROOT
BRANCH   1  10
HETATM   10  N1  UNL     1      25.978   4.120  50.815  1.00  0.00    -0.370 N 
HETATM   11  H5  UNL     1      26.100   5.019  51.390  1.00  0.00     0.161 HD
BRANCH  10  12
HETATM   12  C2  UNL     1      25.887   4.225  49.369  1.00  0.00     0.112 C 
HETATM   13  C1  UNL     1      24.483   4.676  49.036  1.00  0.00     0.037 C 
BRANCH  12  14
HETATM   14  C15 UNL     1      26.811   5.246  48.823  1.00  0.00    -0.036 A 
HETATM   15  C16 UNL     1      26.427   6.551  48.572  1.00  0.00     0.012 A 
HETATM   16  C17 UNL     1      27.407   7.386  48.062  1.00  0.00     0.043 A 
HETATM   17  C18 UNL     1      28.686   6.932  47.821  1.00  0.00     0.116 A 
HETATM   18  F2  UNL     1      29.621   7.795  47.315  1.00  0.00    -0.206 F 
HETATM   19  C19 UNL     1      29.055   5.645  48.071  1.00  0.00     0.043 A 
HETATM   20  C20 UNL     1      28.093   4.782  48.585  1.00  0.00     0.012 A 
ENDBRANCH  12  14
ENDBRANCH  10  12
ENDBRANCH   1  10
BRANCH   7  21
HETATM   21  C7  UNL     1      22.888  -0.286  53.351  1.00  0.00    -0.011 A 
HETATM   22  C8  UNL     1      21.889   0.232  52.520  1.00  0.00     0.016 A 
HETATM   23  C9  UNL     1      20.546  -0.017  52.578  1.00  0.00     0.043 A 
HETATM   24  C10 UNL     1      20.145  -0.870  53.566  1.00  0.00     0.116 A 
HETATM   25  F1  UNL     1      18.830  -1.163  53.684  1.00  0.00    -0.206 F 
HETATM   26  C11 UNL     1      21.007  -1.457  54.459  1.00  0.00     0.043 A 
HETATM   27  C12 UNL     1      22.330  -1.126  54.295  1.00  0.00     0.016 A 
ENDBRANCH   7  21
TORSDOF 4
ENDMDL
MODEL 2
REMARK VINA RESULT:      -9.5      2.879      4.727
REMARK  4 active torsions:
REMARK  status: ('A' for Active; 'I' for Inactive)
REMARK    1  A    between atoms: C2_2  and  N1_3 
REMARK    2  A    between atoms: C2_2  and  C15_20 
REMARK    3  A    between atoms: N1_3  and  C3_4 
REMARK    4  A    between atoms: C6_10  and  C7_11 
ROOT
HETATM    1  C3  UNL     1      24.426   3.157  51.456  1.00  0.00     0.102 A 
HETATM    2  N2  UNL     1      23.168   2.940  51.632  1.00  0.00    -0.229 NA
HETATM    3  C4  UNL     1      22.662   1.806  52.284  1.00  0.00     0.236 A 
HETATM    4  N3  UNL     1      22.398   0.713  52.889  1.00  0.00    -0.235 NA
HETATM    5  C5  UNL     1      23.357  -0.249  53.291  1.00  0.00     0.234 A 
HETATM    6  N4  UNL     1      24.563  -0.743  53.459  1.00  0.00    -0.245 NA
HETATM    7  C6  UNL     1      25.664   0.124  52.988  1.00  0.00     0.051 A 
HETATM    8  C13 UNL     1      25.849   1.304  52.374  1.00  0.00     0.056 A 
HETATM    9  C14 UNL     1      25.786   2.578  51.717  1.00  0.00     0.090 A 
ENDROOT
BRANCH   1  10
HETATM   10  N1  UNL     1      24.532   4.414  50.754  1.00  0.00    -0.370 N 
HETATM   11  H5  UNL     1      24.510   5.323  51.327  1.00  0.00     0.161 HD
BRANCH  10  12
HETATM   12  C2  UNL     1      24.668   4.504  49.311  1.00  0.00     0.112 C 
HETATM   13  C1  UNL     1      23.541   5.375  48.803  1.00  0.00     0.037 C 
BRANCH  12  14
HETATM   14  C15 UNL     1      25.935   5.157  48.908  1.00  0.00    -0.036 A 
HETATM   15  C16 UNL     1      27.153   4.501  48.903  1.00  0.00     0.012 A 
HETATM   16  C17 UNL     1      28.246   5.249  48.501  1.00  0.00     0.043 A 
HETATM   17  C18 UNL     1      28.117   6.571  48.131  1.00  0.00     0.116 A 
HETATM   18  F2  UNL     1      29.228   7.271  47.741  1.00  0.00    -0.206 F 
HETATM   19  C19 UNL     1      26.914   7.209  48.140  1.00  0.00     0.043 A 
HETATM   20  C20 UNL     1      25.797   6.484  48.538  1.00  0.00     0.012 A 
ENDBRANCH  12  14
ENDBRANCH  10  12
ENDBRANCH   1  10
BRANCH   7  21
HETATM   21  C7  UNL     1      27.001  -0.399  53.230  1.00  0.00    -0.011 A 
HETATM   22  C8  UNL     1      27.957   0.364  53.909  1.00  0.00     0.016 A 
HETATM   23  C9  UNL     1      29.243   0.012  54.209  1.00  0.00     0.043 A 
HETATM   24  C10 UNL     1      29.628  -1.230  53.792  1.00  0.00     0.116 A 
HETATM   25  F1  UNL     1      30.888  -1.648  54.054  1.00  0.00    -0.206 F 
HETATM   26  C11 UNL     1      28.804  -2.094  53.114  1.00  0.00     0.043 A 
HETATM   27  C12 UNL     1      27.536  -1.621  52.875  1.00  0.00     0.016 A 
ENDBRANCH   7  21
TORSDOF 4
ENDMDL
MODEL 3
REMARK VINA RESULT:      -9.5      3.096      8.114
REMARK  4 active torsions:
REMARK  status: ('A' for Active; 'I' for Inactive)
REMARK    1  A    between atoms: C2_2  and  N1_3 
REMARK    2  A    between atoms: C2_2  and  C15_20 
REMARK    3  A    between atoms: N1_3  and  C3_4 
REMARK    4  A    between atoms: C6_10  and  C7_11 
ROOT
HETATM    1  C3  UNL     1      23.971   1.354  52.284  1.00  0.00     0.102 A 
HETATM    2  N2  UNL     1      22.741   1.564  52.605  1.00  0.00    -0.229 NA
HETATM    3  C4  UNL     1      22.016   2.692  52.197  1.00  0.00     0.236 A 
HETATM    4  N3  UNL     1      21.533   3.782  51.739  1.00  0.00    -0.235 NA
HETATM    5  C5  UNL     1      22.257   4.748  50.997  1.00  0.00     0.234 A 
HETATM    6  N4  UNL     1      23.302   5.247  50.377  1.00  0.00    -0.245 NA
HETATM    7  C6  UNL     1      24.505   4.387  50.389  1.00  0.00     0.051 A 
HETATM    8  C13 UNL     1      24.919   3.211  50.886  1.00  0.00     0.056 A 
HETATM    9  C14 UNL     1      25.123   1.940  51.518  1.00  0.00     0.090 A 
ENDROOT
BRANCH   1  10
HETATM   10  N1  UNL     1      24.347   0.100  52.893  1.00  0.00    -0.370 N 
HETATM   11  H5  UNL     1      24.088  -0.812  52.387  1.00  0.00     0.161 HD
BRANCH  10  12
HETATM   12  C2  UNL     1      25.061   0.018  54.155  1.00  0.00     0.112 C 
HETATM   13  C1  UNL     1      24.446  -1.112  54.950  1.00  0.00     0.037 C 
BRANCH  12  14
HETATM   14  C15 UNL     1      26.492  -0.315  53.968  1.00  0.00    -0.036 A 
HETATM   15  C16 UNL     1      26.941  -1.196  53.000  1.00  0.00     0.012 A 
HETATM   16  C17 UNL     1      28.309  -1.402  52.952  1.00  0.00     0.043 A 
HETATM   17  C18 UNL     1      29.165  -0.761  53.822  1.00  0.00     0.116 A 
HETATM   18  F2  UNL     1      30.511  -0.997  53.736  1.00  0.00    -0.206 F 
HETATM   19  C19 UNL     1      28.714   0.105  54.771  1.00  0.00     0.043 A 
HETATM   20  C20 UNL     1      27.345   0.334  54.845  1.00  0.00     0.012 A 
ENDBRANCH  12  14
ENDBRANCH  10  12
ENDBRANCH   1  10
BRANCH   7  21
HETATM   21  C7  UNL     1      25.642   4.917  49.650  1.00  0.00    -0.011 A 
HETATM   22  C8  UNL     1      25.654   6.245  49.210  1.00  0.00     0.016 A 
HETATM   23  C9  UNL     1      26.641   6.881  48.510  1.00  0.00     0.043 A 
HETATM   24  C10 UNL     1      27.737   6.122  48.212  1.00  0.00     0.116 A 
HETATM   25  F1  UNL     1      28.755   6.685  47.521  1.00  0.00    -0.206 F 
HETATM   26  C11 UNL     1      27.871   4.805  48.575  1.00  0.00     0.043 A 
HETATM   27  C12 UNL     1      26.810   4.283  49.275  1.00  0.00     0.016 A 
ENDBRANCH   7  21
TORSDOF 4
ENDMDL
MODEL 4
REMARK VINA RESULT:      -9.3      3.460      8.603
REMARK  4 active torsions:
REMARK  status: ('A' for Active; 'I' for Inactive)
REMARK    1  A    between atoms: C2_2  and  N1_3 
REMARK    2  A    between atoms: C2_2  and  C15_20 
REMARK    3  A    between atoms: N1_3  and  C3_4 
REMARK    4  A    between atoms: C6_10  and  C7_11 
ROOT
HETATM    1  C3  UNL     1      22.819   1.745  52.474  1.00  0.00     0.102 A 
HETATM    2  N2  UNL     1      22.552   2.680  51.629  1.00  0.00    -0.229 NA
HETATM    3  C4  UNL     1      23.527   3.332  50.861  1.00  0.00     0.236 A 
HETATM    4  N3  UNL     1      24.552   3.810  50.268  1.00  0.00    -0.235 NA
HETATM    5  C5  UNL     1      25.894   3.435  50.525  1.00  0.00     0.234 A 
HETATM    6  N4  UNL     1      26.859   2.747  51.092  1.00  0.00    -0.245 NA
HETATM    7  C6  UNL     1      26.411   1.723  52.060  1.00  0.00     0.051 A 
HETATM    8  C13 UNL     1      25.278   1.260  52.612  1.00  0.00     0.056 A 
HETATM    9  C14 UNL     1      23.950   0.947  53.056  1.00  0.00     0.090 A 
ENDROOT
BRANCH   1  10
HETATM   10  N1  UNL     1      21.559   1.339  53.051  1.00  0.00    -0.370 N 
HETATM   11  H5  UNL     1      20.927   2.094  53.480  1.00  0.00     0.161 HD
BRANCH  10  12
HETATM   12  C2  UNL     1      21.108  -0.042  53.073  1.00  0.00     0.112 C 
HETATM   13  C1  UNL     1      21.036  -0.471  54.521  1.00  0.00     0.037 C 
BRANCH  12  14
HETATM   14  C15 UNL     1      19.748  -0.195  52.507  1.00  0.00    -0.036 A 
HETATM   15  C16 UNL     1      19.366   0.363  51.300  1.00  0.00     0.012 A 
HETATM   16  C17 UNL     1      18.059   0.129  50.908  1.00  0.00     0.043 A 
HETATM   17  C18 UNL     1      17.197  -0.617  51.682  1.00  0.00     0.116 A 
HETATM   18  F2  UNL     1      15.913  -0.821  51.253  1.00  0.00    -0.206 F 
HETATM   19  C19 UNL     1      17.582  -1.163  52.870  1.00  0.00     0.043 A 
HETATM   20  C20 UNL     1      18.889  -0.946  53.291  1.00  0.00     0.012 A 
ENDBRANCH  12  14
ENDBRANCH  10  12
ENDBRANCH   1  10
BRANCH   7  21
HETATM   21  C7  UNL     1      27.479   0.922  52.641  1.00  0.00    -0.011 A 
HETATM   22  C8  UNL     1      27.420  -0.475  52.618  1.00  0.00     0.016 A 
HETATM   23  C9  UNL     1      28.338  -1.356  53.119  1.00  0.00     0.043 A 
HETATM   24  C10 UNL     1      29.435  -0.794  53.708  1.00  0.00     0.116 A 
HETATM   25  F1  UNL     1      30.387  -1.603  54.226  1.00  0.00    -0.206 F 
HETATM   26  C11 UNL     1      29.634   0.561  53.807  1.00  0.00     0.043 A 
HETATM   27  C12 UNL     1      28.639   1.337  53.265  1.00  0.00     0.016 A 
ENDBRANCH   7  21
TORSDOF 4
ENDMDL
MODEL 5
REMARK VINA RESULT:      -9.2      2.871      8.448
REMARK  4 active torsions:
REMARK  status: ('A' for Active; 'I' for Inactive)
REMARK    1  A    between atoms: C2_2  and  N1_3 
REMARK    2  A    between atoms: C2_2  and  C15_20 
REMARK    3  A    between atoms: N1_3  and  C3_4 
REMARK    4  A    between atoms: C6_10  and  C7_11 
ROOT
HETATM    1  C3  UNL     1      24.099   2.353  51.526  1.00  0.00     0.102 A 
HETATM    2  N2  UNL     1      22.952   2.745  51.966  1.00  0.00    -0.229 NA
HETATM    3  C4  UNL     1      22.444   4.035  51.757  1.00  0.00     0.236 A 
HETATM    4  N3  UNL     1      22.163   5.249  51.475  1.00  0.00    -0.235 NA
HETATM    5  C5  UNL     1      23.024   6.152  50.804  1.00  0.00     0.234 A 
HETATM    6  N4  UNL     1      24.113   6.524  50.170  1.00  0.00    -0.245 NA
HETATM    7  C6  UNL     1      25.121   5.458  49.983  1.00  0.00     0.051 A 
HETATM    8  C13 UNL     1      25.320   4.168  50.297  1.00  0.00     0.056 A 
HETATM    9  C14 UNL     1      25.301   2.808  50.751  1.00  0.00     0.090 A 
ENDROOT
BRANCH   1  10
HETATM   10  N1  UNL     1      24.250   0.979  51.945  1.00  0.00    -0.370 N 
HETATM   11  H5  UNL     1      24.197   0.208  51.199  1.00  0.00     0.161 HD
BRANCH  10  12
HETATM   12  C2  UNL     1      24.474   0.595  53.328  1.00  0.00     0.112 C 
HETATM   13  C1  UNL     1      23.623  -0.624  53.602  1.00  0.00     0.037 C 
BRANCH  12  14
HETATM   14  C15 UNL     1      25.881   0.207  53.580  1.00  0.00    -0.036 A 
HETATM   15  C16 UNL     1      26.621   0.703  54.638  1.00  0.00     0.012 A 
HETATM   16  C17 UNL     1      27.923   0.244  54.738  1.00  0.00     0.043 A 
HETATM   17  C18 UNL     1      28.441  -0.656  53.831  1.00  0.00     0.116 A 
HETATM   18  F2  UNL     1      29.735  -1.082  53.971  1.00  0.00    -0.206 F 
HETATM   19  C19 UNL     1      27.704  -1.140  52.793  1.00  0.00     0.043 A 
HETATM   20  C20 UNL     1      26.393  -0.697  52.665  1.00  0.00     0.012 A 
ENDBRANCH  12  14
ENDBRANCH  10  12
ENDBRANCH   1  10
BRANCH   7  21
HETATM   21  C7  UNL     1      26.300   5.859  49.228  1.00  0.00    -0.011 A 
HETATM   22  C8  UNL     1      27.337   4.951  48.985  1.00  0.00     0.016 A 
HETATM   23  C9  UNL     1      28.497   5.178  48.298  1.00  0.00     0.043 A 
HETATM   24  C10 UNL     1      28.651   6.439  47.798  1.00  0.00     0.116 A 
HETATM   25  F1  UNL     1      29.775   6.737  47.106  1.00  0.00    -0.206 F 
HETATM   26  C11 UNL     1      27.722   7.438  47.955  1.00  0.00     0.043 A 
HETATM   27  C12 UNL     1      26.600   7.083  48.664  1.00  0.00     0.016 A 
ENDBRANCH   7  21
TORSDOF 4
ENDMDL
MODEL 6
REMARK VINA RESULT:      -9.2      3.169      5.066
REMARK  4 active torsions:
REMARK  status: ('A' for Active; 'I' for Inactive)
REMARK    1  A    between atoms: C2_2  and  N1_3 
REMARK    2  A    between atoms: C2_2  and  C15_20 
REMARK    3  A    between atoms: N1_3  and  C3_4 
REMARK    4  A    between atoms: C6_10  and  C7_11 
ROOT
HETATM    1  C3  UNL     1      22.978   1.940  51.527  1.00  0.00     0.102 A 
HETATM    2  N2  UNL     1      21.829   1.604  52.004  1.00  0.00    -0.229 NA
HETATM    3  C4  UNL     1      21.665   0.700  53.063  1.00  0.00     0.236 A 
HETATM    4  N3  UNL     1      21.722  -0.146  54.018  1.00  0.00    -0.235 NA
HETATM    5  C5  UNL     1      22.908  -0.749  54.505  1.00  0.00     0.234 A 
HETATM    6  N4  UNL     1      24.203  -0.960  54.580  1.00  0.00    -0.245 NA
HETATM    7  C6  UNL     1      25.022  -0.148  53.656  1.00  0.00     0.051 A 
HETATM    8  C13 UNL     1      24.870   0.763  52.681  1.00  0.00     0.056 A 
HETATM    9  C14 UNL     1      24.452   1.706  51.684  1.00  0.00     0.090 A 
ENDROOT
BRANCH   1  10
HETATM   10  N1  UNL     1      22.720   2.880  50.460  1.00  0.00    -0.370 N 
HETATM   11  H5  UNL     1      21.939   3.604  50.594  1.00  0.00     0.161 HD
BRANCH  10  12
HETATM   12  C2  UNL     1      23.473   2.889  49.218  1.00  0.00     0.112 C 
HETATM   13  C1  UNL     1      22.478   2.770  48.085  1.00  0.00     0.037 C 
BRANCH  12  14
HETATM   14  C15 UNL     1      24.206   4.161  49.018  1.00  0.00    -0.036 A 
HETATM   15  C16 UNL     1      25.532   4.331  49.376  1.00  0.00     0.012 A 
HETATM   16  C17 UNL     1      26.074   5.580  49.125  1.00  0.00     0.043 A 
HETATM   17  C18 UNL     1      25.328   6.587  48.552  1.00  0.00     0.116 A 
HETATM   18  F2  UNL     1      25.909   7.806  48.323  1.00  0.00    -0.206 F 
HETATM   19  C19 UNL     1      24.023   6.411  48.203  1.00  0.00     0.043 A 
HETATM   20  C20 UNL     1      23.449   5.167  48.442  1.00  0.00     0.012 A 
ENDBRANCH  12  14
ENDBRANCH  10  12
ENDBRANCH   1  10
BRANCH   7  21
HETATM   21  C7  UNL     1      26.460  -0.341  53.783  1.00  0.00    -0.011 A 
HETATM   22  C8  UNL     1      27.135  -1.254  52.966  1.00  0.00     0.016 A 
HETATM   23  C9  UNL     1      28.471  -1.543  52.967  1.00  0.00     0.043 A 
HETATM   24  C10 UNL     1      29.223  -0.856  53.877  1.00  0.00     0.116 A 
HETATM   25  F1  UNL     1      30.554  -1.089  53.937  1.00  0.00    -0.206 F 
HETATM   26  C11 UNL     1      28.704   0.071  54.747  1.00  0.00     0.043 A 
HETATM   27  C12 UNL     1      27.348   0.271  54.645  1.00  0.00     0.016 A 
ENDBRANCH   7  21
TORSDOF 4
ENDMDL
MODEL 7
REMARK VINA RESULT:      -8.8      3.640      5.772
REMARK  4 active torsions:
REMARK  status: ('A' for Active; 'I' for Inactive)
REMARK    1  A    between atoms: C2_2  and  N1_3 
REMARK    2  A    between atoms: C2_2  and  C15_20 
REMARK    3  A    between atoms: N1_3  and  C3_4 
REMARK    4  A    between atoms: C6_10  and  C7_11 
ROOT
HETATM    1  C3  UNL     1      22.271   0.630  52.207  1.00  0.00     0.102 A 
HETATM    2  N2  UNL     1      21.326   0.203  52.973  1.00  0.00    -0.229 NA
HETATM    3  C4  UNL     1      21.555  -0.484  54.174  1.00  0.00     0.236 A 
HETATM    4  N3  UNL     1      21.963  -1.096  55.218  1.00  0.00    -0.235 NA
HETATM    5  C5  UNL     1      23.318  -1.374  55.523  1.00  0.00     0.234 A 
HETATM    6  N4  UNL     1      24.620  -1.338  55.345  1.00  0.00    -0.245 NA
HETATM    7  C6  UNL     1      25.066  -0.599  54.144  1.00  0.00     0.051 A 
HETATM    8  C13 UNL     1      24.548   0.055  53.093  1.00  0.00     0.056 A 
HETATM    9  C14 UNL     1      23.765   0.691  52.073  1.00  0.00     0.090 A 
ENDROOT
BRANCH   1  10
HETATM   10  N1  UNL     1      21.630   1.276  51.086  1.00  0.00    -0.370 N 
HETATM   11  H5  UNL     1      21.343   0.674  50.244  1.00  0.00     0.161 HD
BRANCH  10  12
HETATM   12  C2  UNL     1      21.356   2.702  51.048  1.00  0.00     0.112 C 
HETATM   13  C1  UNL     1      20.938   3.120  52.440  1.00  0.00     0.037 C 
BRANCH  12  14
HETATM   14  C15 UNL     1      22.559   3.493  50.701  1.00  0.00    -0.036 A 
HETATM   15  C16 UNL     1      23.303   3.272  49.555  1.00  0.00     0.012 A 
HETATM   16  C17 UNL     1      24.400   4.095  49.373  1.00  0.00     0.043 A 
HETATM   17  C18 UNL     1      24.724   5.076  50.287  1.00  0.00     0.116 A 
HETATM   18  F2  UNL     1      25.820   5.867  50.064  1.00  0.00    -0.206 F 
HETATM   19  C19 UNL     1      23.986   5.287  51.412  1.00  0.00     0.043 A 
HETATM   20  C20 UNL     1      22.877   4.476  51.623  1.00  0.00     0.012 A 
ENDBRANCH  12  14
ENDBRANCH  10  12
ENDBRANCH   1  10
BRANCH   7  21
HETATM   21  C7  UNL     1      26.510  -0.511  53.983  1.00  0.00    -0.011 A 
HETATM   22  C8  UNL     1      27.254   0.430  54.703  1.00  0.00     0.016 A 
HETATM   23  C9  UNL     1      28.606   0.632  54.658  1.00  0.00     0.043 A 
HETATM   24  C10 UNL     1      29.298  -0.184  53.809  1.00  0.00     0.116 A 
HETATM   25  F1  UNL     1      30.639  -0.042  53.712  1.00  0.00    -0.206 F 
HETATM   26  C11 UNL     1      28.707  -1.153  53.036  1.00  0.00     0.043 A 
HETATM   27  C12 UNL     1      27.343  -1.256  53.173  1.00  0.00     0.016 A 
ENDBRANCH   7  21
TORSDOF 4
ENDMDL
MODEL 8
REMARK VINA RESULT:      -8.8      3.271      5.101
REMARK  4 active torsions:
REMARK  status: ('A' for Active; 'I' for Inactive)
REMARK    1  A    between atoms: C2_2  and  N1_3 
REMARK    2  A    between atoms: C2_2  and  C15_20 
REMARK    3  A    between atoms: N1_3  and  C3_4 
REMARK    4  A    between atoms: C6_10  and  C7_11 
ROOT
HETATM    1  C3  UNL     1      25.197   3.145  50.326  1.00  0.00     0.102 A 
HETATM    2  N2  UNL     1      23.921   3.130  50.506  1.00  0.00    -0.229 NA
HETATM    3  C4  UNL     1      23.273   2.244  51.379  1.00  0.00     0.236 A 
HETATM    4  N3  UNL     1      22.872   1.357  52.206  1.00  0.00    -0.235 NA
HETATM    5  C5  UNL     1      23.700   0.401  52.843  1.00  0.00     0.234 A 
HETATM    6  N4  UNL     1      24.834  -0.186  53.156  1.00  0.00    -0.245 NA
HETATM    7  C6  UNL     1      26.037   0.410  52.537  1.00  0.00     0.051 A 
HETATM    8  C13 UNL     1      26.372   1.389  51.681  1.00  0.00     0.056 A 
HETATM    9  C14 UNL     1      26.472   2.478  50.753  1.00  0.00     0.090 A 
ENDROOT
BRANCH   1  10
HETATM   10  N1  UNL     1      25.463   4.188  49.363  1.00  0.00    -0.370 N 
HETATM   11  H5  UNL     1      24.896   4.200  48.451  1.00  0.00     0.161 HD
BRANCH  10  12
HETATM   12  C2  UNL     1      26.461   5.222  49.575  1.00  0.00     0.112 C 
HETATM   13  C1  UNL     1      27.563   5.002  48.563  1.00  0.00     0.037 C 
BRANCH  12  14
HETATM   14  C15 UNL     1      25.919   6.580  49.337  1.00  0.00    -0.036 A 
HETATM   15  C16 UNL     1      25.292   7.324  50.320  1.00  0.00     0.012 A 
HETATM   16  C17 UNL     1      24.839   8.576  49.940  1.00  0.00     0.043 A 
HETATM   17  C18 UNL     1      25.009   9.043  48.654  1.00  0.00     0.116 A 
HETATM   18  F2  UNL     1      24.544  10.289  48.325  1.00  0.00    -0.206 F 
HETATM   19  C19 UNL     1      25.628   8.304  47.693  1.00  0.00     0.043 A 
HETATM   20  C20 UNL     1      26.094   7.041  48.043  1.00  0.00     0.012 A 
ENDBRANCH  12  14
ENDBRANCH  10  12
ENDBRANCH   1  10
BRANCH   7  21
HETATM   21  C7  UNL     1      27.296  -0.204  52.933  1.00  0.00    -0.011 A 
HETATM   22  C8  UNL     1      28.335   0.569  53.463  1.00  0.00     0.016 A 
HETATM   23  C9  UNL     1      29.565   0.138  53.876  1.00  0.00     0.043 A 
HETATM   24  C10 UNL     1      29.795  -1.202  53.751  1.00  0.00     0.116 A 
HETATM   25  F1  UNL     1      30.991  -1.700  54.141  1.00  0.00    -0.206 F 
HETATM   26  C11 UNL     1      28.874  -2.088  53.249  1.00  0.00     0.043 A 
HETATM   27  C12 UNL     1      27.677  -1.530  52.869  1.00  0.00     0.016 A 
ENDBRANCH   7  21
TORSDOF 4
ENDMDL
MODEL 9
REMARK VINA RESULT:      -8.7      5.388      8.260
REMARK  4 active torsions:
REMARK  status: ('A' for Active; 'I' for Inactive)
REMARK    1  A    between atoms: C2_2  and  N1_3 
REMARK    2  A    between atoms: C2_2  and  C15_20 
REMARK    3  A    between atoms: N1_3  and  C3_4 
REMARK    4  A    between atoms: C6_10  and  C7_11 
ROOT
HETATM    1  C3  UNL     1      31.355   6.064  47.415  1.00  0.00     0.102 A 
HETATM    2  N2  UNL     1      31.619   7.317  47.271  1.00  0.00    -0.229 NA
HETATM    3  C4  UNL     1      30.688   8.336  47.517  1.00  0.00     0.236 A 
HETATM    4  N3  UNL     1      29.707   9.111  47.778  1.00  0.00    -0.235 NA
HETATM    5  C5  UNL     1      28.403   8.687  48.130  1.00  0.00     0.234 A 
HETATM    6  N4  UNL     1      27.462   7.816  48.422  1.00  0.00    -0.245 NA
HETATM    7  C6  UNL     1      27.895   6.402  48.408  1.00  0.00     0.051 A 
HETATM    8  C13 UNL     1      28.986   5.666  48.143  1.00  0.00     0.056 A 
HETATM    9  C14 UNL     1      30.264   5.109  47.807  1.00  0.00     0.090 A 
ENDROOT
BRANCH   1  10
HETATM   10  N1  UNL     1      32.560   5.348  47.069  1.00  0.00    -0.370 N 
HETATM   11  H5  UNL     1      33.484   5.651  47.523  1.00  0.00     0.161 HD
BRANCH  10  12
HETATM   12  C2  UNL     1      32.577   4.235  46.134  1.00  0.00     0.112 C 
HETATM   13  C1  UNL     1      33.829   4.366  45.297  1.00  0.00     0.037 C 
BRANCH  12  14
HETATM   14  C15 UNL     1      32.652   2.927  46.825  1.00  0.00    -0.036 A 
HETATM   15  C16 UNL     1      33.412   2.718  47.962  1.00  0.00     0.012 A 
HETATM   16  C17 UNL     1      33.379   1.438  48.489  1.00  0.00     0.043 A 
HETATM   17  C18 UNL     1      32.630   0.438  47.906  1.00  0.00     0.116 A 
HETATM   18  F2  UNL     1      32.629  -0.813  48.464  1.00  0.00    -0.206 F 
HETATM   19  C19 UNL     1      31.885   0.653  46.786  1.00  0.00     0.043 A 
HETATM   20  C20 UNL     1      31.897   1.929  46.233  1.00  0.00     0.012 A 
ENDBRANCH  12  14
ENDBRANCH  10  12
ENDBRANCH   1  10
BRANCH   7  21
HETATM   21  C7  UNL     1      26.866   5.445  48.790  1.00  0.00    -0.011 A 
HETATM   22  C8  UNL     1      25.512   5.794  48.748  1.00  0.00     0.016 A 
HETATM   23  C9  UNL     1      24.440   5.010  49.074  1.00  0.00     0.043 A 
HETATM   24  C10 UNL     1      24.738   3.744  49.488  1.00  0.00     0.116 A 
HETATM   25  F1  UNL     1      23.728   2.911  49.827  1.00  0.00    -0.206 F 
HETATM   26  C11 UNL     1      26.018   3.256  49.582  1.00  0.00     0.043 A 
HETATM   27  C12 UNL     1      27.006   4.142  49.225  1.00  0.00     0.016 A 
ENDBRANCH   7  21
TORSDOF 4
ENDMDL
