MODEL 1
REMARK VINA RESULT:      -8.6      0.000      0.000
REMARK  4 active torsions:
REMARK  status: ('A' for Active; 'I' for Inactive)
REMARK    1  A    between atoms: C4_5  and  O1_6 
REMARK    2  A    between atoms: O1_6  and  C5_7 
REMARK    3  A    between atoms: C10_14  and  N4_15 
REMARK    4  A    between atoms: N4_15  and  C11_16 
ROOT
HETATM    1  C5  UNL     1      25.716   2.822  50.687  1.00  0.00     0.100 A 
HETATM    2  C6  UNL     1      26.547   3.273  49.685  1.00  0.00     0.040 A 
HETATM    3  C7  UNL     1      26.508   4.547  49.169  1.00  0.00     0.020 A 
HETATM    4  C8  UNL     1      25.587   5.439  49.674  1.00  0.00     0.098 A 
HETATM    5  N2  UNL     1      24.768   5.015  50.653  1.00  0.00    -0.311 N 
HETATM    6  C9  UNL     1      23.826   5.778  51.235  1.00  0.00     0.217 A 
HETATM    7  N3  UNL     1      23.234   4.989  52.152  1.00  0.00    -0.223 NA
HETATM    8  C10 UNL     1      23.792   3.765  52.142  1.00  0.00     0.159 A 
HETATM    9  C17 UNL     1      24.797   3.767  51.167  1.00  0.00     0.119 A 
ENDROOT
BRANCH   8  10
HETATM   10  N4  UNL     1      23.458   2.650  52.953  1.00  0.00    -0.339 N 
HETATM   11  H13 UNL     1      24.212   2.559  53.666  1.00  0.00     0.167 HD
BRANCH  10  12
HETATM   12  C11 UNL     1      22.329   1.796  52.850  1.00  0.00     0.035 A 
HETATM   13  C12 UNL     1      21.228   2.241  52.151  1.00  0.00     0.032 A 
HETATM   14  C13 UNL     1      20.139   1.369  52.076  1.00  0.00     0.046 A 
HETATM   15  C14 UNL     1      20.214   0.125  52.693  1.00  0.00     0.138 A 
HETATM   16  F1  UNL     1      19.195  -0.782  52.665  1.00  0.00    -0.204 F 
HETATM   17  C15 UNL     1      21.344  -0.279  53.386  1.00  0.00     0.074 A 
HETATM   18 CL1  UNL     1      21.447  -1.851  54.170  1.00  0.00    -0.081 Cl
HETATM   19  C16 UNL     1      22.442   0.573  53.475  1.00  0.00     0.056 A 
ENDBRANCH  10  12
ENDBRANCH   8  10
BRANCH   1  20
HETATM   20  O1  UNL     1      25.610   1.623  51.312  1.00  0.00    -0.343 OA
BRANCH  20  21
HETATM   21  C4  UNL     1      26.671   0.988  51.921  1.00  0.00     0.132 C 
HETATM   22  C3  UNL     1      27.298   1.839  53.036  1.00  0.00     0.062 C 
HETATM   23  C2  UNL     1      28.567   1.117  53.412  1.00  0.00     0.274 C 
HETATM   24  N1  UNL     1      28.403  -0.253  53.770  1.00  0.00     0.084 N 
HETATM   25  C1  UNL     1      29.752  -0.840  53.782  1.00  0.00     0.309 C 
HETATM   26  C19 UNL     1      27.557  -1.032  52.923  1.00  0.00     0.274 C 
HETATM   27  C18 UNL     1      26.258  -0.296  52.656  1.00  0.00     0.062 C 
ENDBRANCH  20  21
ENDBRANCH   1  20
TORSDOF 4
ENDMDL
MODEL 2
REMARK VINA RESULT:      -8.5      3.277      6.975
REMARK  4 active torsions:
REMARK  status: ('A' for Active; 'I' for Inactive)
REMARK    1  A    between atoms: C4_5  and  O1_6 
REMARK    2  A    between atoms: O1_6  and  C5_7 
REMARK    3  A    between atoms: C10_14  and  N4_15 
REMARK    4  A    between atoms: N4_15  and  C11_16 
ROOT
HETATM    1  C5  UNL     1      21.919   0.626  51.915  1.00  0.00     0.100 A 
HETATM    2  C6  UNL     1      20.545   0.534  51.860  1.00  0.00     0.040 A 
HETATM    3  C7  UNL     1      19.782  -0.136  52.787  1.00  0.00     0.020 A 
HETATM    4  C8  UNL     1      20.414  -0.761  53.840  1.00  0.00     0.098 A 
HETATM    5  N2  UNL     1      21.755  -0.682  53.908  1.00  0.00    -0.311 N 
HETATM    6  C9  UNL     1      22.498  -1.242  54.879  1.00  0.00     0.217 A 
HETATM    7  N3  UNL     1      23.776  -0.933  54.585  1.00  0.00    -0.223 NA
HETATM    8  C10 UNL     1      23.828  -0.199  53.459  1.00  0.00     0.159 A 
HETATM    9  C17 UNL     1      22.514  -0.026  53.005  1.00  0.00     0.119 A 
ENDROOT
BRANCH   8  10
HETATM   10  N4  UNL     1      24.978   0.327  52.815  1.00  0.00    -0.339 N 
HETATM   11  H13 UNL     1      24.641   1.010  52.106  1.00  0.00     0.167 HD
BRANCH  10  12
HETATM   12  C11 UNL     1      26.341   0.011  53.058  1.00  0.00     0.035 A 
HETATM   13  C12 UNL     1      26.787  -1.257  52.755  1.00  0.00     0.032 A 
HETATM   14  C13 UNL     1      28.135  -1.525  53.011  1.00  0.00     0.046 A 
HETATM   15  C14 UNL     1      28.942  -0.526  53.544  1.00  0.00     0.138 A 
HETATM   16  F1  UNL     1      30.265  -0.709  53.822  1.00  0.00    -0.204 F 
HETATM   17  C15 UNL     1      28.447   0.735  53.833  1.00  0.00     0.074 A 
HETATM   18 CL1  UNL     1      29.462   2.005  54.509  1.00  0.00    -0.081 Cl
HETATM   19  C16 UNL     1      27.108   1.026  53.588  1.00  0.00     0.056 A 
ENDBRANCH  10  12
ENDBRANCH   8  10
BRANCH   1  20
HETATM   20  O1  UNL     1      22.824   1.233  51.107  1.00  0.00    -0.343 OA
BRANCH  20  21
HETATM   21  C4  UNL     1      22.913   2.601  50.962  1.00  0.00     0.132 C 
HETATM   22  C3  UNL     1      23.042   3.325  52.310  1.00  0.00     0.062 C 
HETATM   23  C2  UNL     1      22.877   4.788  51.986  1.00  0.00     0.274 C 
HETATM   24  N1  UNL     1      23.761   5.291  50.987  1.00  0.00     0.084 N 
HETATM   25  C1  UNL     1      23.234   6.608  50.596  1.00  0.00     0.309 C 
HETATM   26  C19 UNL     1      23.924   4.484  49.820  1.00  0.00     0.274 C 
HETATM   27  C18 UNL     1      24.179   3.041  50.211  1.00  0.00     0.062 C 
ENDBRANCH  20  21
ENDBRANCH   1  20
TORSDOF 4
ENDMDL
MODEL 3
REMARK VINA RESULT:      -8.4      3.196      5.444
REMARK  4 active torsions:
REMARK  status: ('A' for Active; 'I' for Inactive)
REMARK    1  A    between atoms: C4_5  and  O1_6 
REMARK    2  A    between atoms: O1_6  and  C5_7 
REMARK    3  A    between atoms: C10_14  and  N4_15 
REMARK    4  A    between atoms: N4_15  and  C11_16 
ROOT
HETATM    1  C5  UNL     1      23.279   0.080  52.906  1.00  0.00     0.100 A 
HETATM    2  C6  UNL     1      23.163  -0.691  54.043  1.00  0.00     0.040 A 
HETATM    3  C7  UNL     1      21.967  -1.143  54.547  1.00  0.00     0.020 A 
HETATM    4  C8  UNL     1      20.802  -0.813  53.887  1.00  0.00     0.098 A 
HETATM    5  N2  UNL     1      20.897  -0.060  52.777  1.00  0.00    -0.311 N 
HETATM    6  C9  UNL     1      19.845   0.334  52.038  1.00  0.00     0.217 A 
HETATM    7  N3  UNL     1      20.361   1.059  51.027  1.00  0.00    -0.223 NA
HETATM    8  C10 UNL     1      21.701   1.116  51.134  1.00  0.00     0.159 A 
HETATM    9  C17 UNL     1      22.066   0.389  52.273  1.00  0.00     0.119 A 
ENDROOT
BRANCH   8  10
HETATM   10  N4  UNL     1      22.615   1.778  50.273  1.00  0.00    -0.339 N 
HETATM   11  H13 UNL     1      22.758   1.156  49.450  1.00  0.00     0.167 HD
BRANCH  10  12
HETATM   12  C11 UNL     1      23.238   3.040  50.457  1.00  0.00     0.035 A 
HETATM   13  C12 UNL     1      22.667   3.934  51.335  1.00  0.00     0.032 A 
HETATM   14  C13 UNL     1      23.312   5.165  51.484  1.00  0.00     0.046 A 
HETATM   15  C14 UNL     1      24.470   5.423  50.759  1.00  0.00     0.138 A 
HETATM   16  F1  UNL     1      25.157   6.599  50.849  1.00  0.00    -0.204 F 
HETATM   17  C15 UNL     1      25.006   4.491  49.885  1.00  0.00     0.074 A 
HETATM   18 CL1  UNL     1      26.471   4.811  48.963  1.00  0.00    -0.081 Cl
HETATM   19  C16 UNL     1      24.382   3.258  49.719  1.00  0.00     0.056 A 
ENDBRANCH  10  12
ENDBRANCH   8  10
BRANCH   1  20
HETATM   20  O1  UNL     1      24.353   0.609  52.270  1.00  0.00    -0.343 OA
BRANCH  20  21
HETATM   21  C4  UNL     1      25.607   0.688  52.837  1.00  0.00     0.132 C 
HETATM   22  C3  UNL     1      26.545  -0.422  52.340  1.00  0.00     0.062 C 
HETATM   23  C2  UNL     1      27.759  -0.336  53.230  1.00  0.00     0.274 C 
HETATM   24  N1  UNL     1      28.380   0.946  53.286  1.00  0.00     0.084 N 
HETATM   25  C1  UNL     1      29.314   0.901  54.423  1.00  0.00     0.309 C 
HETATM   26  C19 UNL     1      27.508   2.066  53.436  1.00  0.00     0.274 C 
HETATM   27  C18 UNL     1      26.357   1.972  52.453  1.00  0.00     0.062 C 
ENDBRANCH  20  21
ENDBRANCH   1  20
TORSDOF 4
ENDMDL
MODEL 4
REMARK VINA RESULT:      -8.3      3.413      5.628
REMARK  4 active torsions:
REMARK  status: ('A' for Active; 'I' for Inactive)
REMARK    1  A    between atoms: C4_5  and  O1_6 
REMARK    2  A    between atoms: O1_6  and  C5_7 
REMARK    3  A    between atoms: C10_14  and  N4_15 
REMARK    4  A    between atoms: N4_15  and  C11_16 
ROOT
HETATM    1  C5  UNL     1      23.866   1.143  53.023  1.00  0.00     0.100 A 
HETATM    2  C6  UNL     1      23.414  -0.114  53.362  1.00  0.00     0.040 A 
HETATM    3  C7  UNL     1      22.152  -0.580  53.076  1.00  0.00     0.020 A 
HETATM    4  C8  UNL     1      21.274   0.248  52.410  1.00  0.00     0.098 A 
HETATM    5  N2  UNL     1      21.700   1.478  52.072  1.00  0.00    -0.311 N 
HETATM    6  C9  UNL     1      20.950   2.386  51.422  1.00  0.00     0.217 A 
HETATM    7  N3  UNL     1      21.735   3.471  51.277  1.00  0.00    -0.223 NA
HETATM    8  C10 UNL     1      22.944   3.245  51.824  1.00  0.00     0.159 A 
HETATM    9  C17 UNL     1      22.935   1.946  52.347  1.00  0.00     0.119 A 
ENDROOT
BRANCH   8  10
HETATM   10  N4  UNL     1      24.052   4.129  51.880  1.00  0.00    -0.339 N 
HETATM   11  H13 UNL     1      24.052   4.553  52.831  1.00  0.00     0.167 HD
BRANCH  10  12
HETATM   12  C11 UNL     1      25.001   4.414  50.864  1.00  0.00     0.035 A 
HETATM   13  C12 UNL     1      25.895   3.430  50.504  1.00  0.00     0.032 A 
HETATM   14  C13 UNL     1      26.813   3.753  49.500  1.00  0.00     0.046 A 
HETATM   15  C14 UNL     1      26.781   5.019  48.926  1.00  0.00     0.138 A 
HETATM   16  F1  UNL     1      27.641   5.411  47.942  1.00  0.00    -0.204 F 
HETATM   17  C15 UNL     1      25.862   5.977  49.322  1.00  0.00     0.074 A 
HETATM   18 CL1  UNL     1      25.815   7.582  48.600  1.00  0.00    -0.081 Cl
HETATM   19  C16 UNL     1      24.938   5.679  50.320  1.00  0.00     0.056 A 
ENDBRANCH  10  12
ENDBRANCH   8  10
BRANCH   1  20
HETATM   20  O1  UNL     1      25.054   1.766  53.218  1.00  0.00    -0.343 OA
BRANCH  20  21
HETATM   21  C4  UNL     1      26.236   1.092  53.441  1.00  0.00     0.132 C 
HETATM   22  C3  UNL     1      26.645   0.217  52.246  1.00  0.00     0.062 C 
HETATM   23  C2  UNL     1      27.794  -0.619  52.749  1.00  0.00     0.274 C 
HETATM   24  N1  UNL     1      28.880   0.116  53.310  1.00  0.00     0.084 N 
HETATM   25  C1  UNL     1      29.721  -0.864  54.015  1.00  0.00     0.309 C 
HETATM   26  C19 UNL     1      28.534   1.172  54.207  1.00  0.00     0.274 C 
HETATM   27  C18 UNL     1      27.439   2.033  53.607  1.00  0.00     0.062 C 
ENDBRANCH  20  21
ENDBRANCH   1  20
TORSDOF 4
ENDMDL
MODEL 5
REMARK VINA RESULT:      -8.0      2.867      5.857
REMARK  4 active torsions:
REMARK  status: ('A' for Active; 'I' for Inactive)
REMARK    1  A    between atoms: C4_5  and  O1_6 
REMARK    2  A    between atoms: O1_6  and  C5_7 
REMARK    3  A    between atoms: C10_14  and  N4_15 
REMARK    4  A    between atoms: N4_15  and  C11_16 
ROOT
HETATM    1  C5  UNL     1      23.862   4.213  51.735  1.00  0.00     0.100 A 
HETATM    2  C6  UNL     1      23.256   5.442  51.583  1.00  0.00     0.040 A 
HETATM    3  C7  UNL     1      23.691   6.410  50.708  1.00  0.00     0.020 A 
HETATM    4  C8  UNL     1      24.798   6.151  49.929  1.00  0.00     0.098 A 
HETATM    5  N2  UNL     1      25.401   4.956  50.066  1.00  0.00    -0.311 N 
HETATM    6  C9  UNL     1      26.486   4.572  49.371  1.00  0.00     0.217 A 
HETATM    7  N3  UNL     1      26.770   3.327  49.797  1.00  0.00    -0.223 NA
HETATM    8  C10 UNL     1      25.885   2.944  50.735  1.00  0.00     0.159 A 
HETATM    9  C17 UNL     1      24.983   3.999  50.921  1.00  0.00     0.119 A 
ENDROOT
BRANCH   8  10
HETATM   10  N4  UNL     1      25.834   1.709  51.431  1.00  0.00    -0.339 N 
HETATM   11  H13 UNL     1      24.892   1.302  51.257  1.00  0.00     0.167 HD
BRANCH  10  12
HETATM   12  C11 UNL     1      26.846   1.105  52.223  1.00  0.00     0.035 A 
HETATM   13  C12 UNL     1      27.672   1.918  52.968  1.00  0.00     0.032 A 
HETATM   14  C13 UNL     1      28.655   1.282  53.731  1.00  0.00     0.046 A 
HETATM   15  C14 UNL     1      28.751  -0.105  53.706  1.00  0.00     0.138 A 
HETATM   16  F1  UNL     1      29.682  -0.798  54.422  1.00  0.00    -0.204 F 
HETATM   17  C15 UNL     1      27.897  -0.881  52.940  1.00  0.00     0.074 A 
HETATM   18 CL1  UNL     1      28.013  -2.637  52.902  1.00  0.00    -0.081 Cl
HETATM   19  C16 UNL     1      26.910  -0.271  52.170  1.00  0.00     0.056 A 
ENDBRANCH  10  12
ENDBRANCH   8  10
BRANCH   1  20
HETATM   20  O1  UNL     1      23.580   3.153  52.532  1.00  0.00    -0.343 OA
BRANCH  20  21
HETATM   21  C4  UNL     1      22.450   2.376  52.391  1.00  0.00     0.132 C 
HETATM   22  C3  UNL     1      22.155   2.035  50.923  1.00  0.00     0.062 C 
HETATM   23  C2  UNL     1      20.782   1.412  50.934  1.00  0.00     0.274 C 
HETATM   24  N1  UNL     1      20.627   0.302  51.815  1.00  0.00     0.084 N 
HETATM   25  C1  UNL     1      19.180   0.056  51.918  1.00  0.00     0.309 C 
HETATM   26  C19 UNL     1      21.174   0.452  53.125  1.00  0.00     0.274 C 
HETATM   27  C18 UNL     1      22.588   0.994  53.046  1.00  0.00     0.062 C 
ENDBRANCH  20  21
ENDBRANCH   1  20
TORSDOF 4
ENDMDL
MODEL 6
REMARK VINA RESULT:      -7.7      3.492      5.363
REMARK  4 active torsions:
REMARK  status: ('A' for Active; 'I' for Inactive)
REMARK    1  A    between atoms: C4_5  and  O1_6 
REMARK    2  A    between atoms: O1_6  and  C5_7 
REMARK    3  A    between atoms: C10_14  and  N4_15 
REMARK    4  A    between atoms: N4_15  and  C11_16 
ROOT
HETATM    1  C5  UNL     1      23.327   0.247  53.061  1.00  0.00     0.100 A 
HETATM    2  C6  UNL     1      23.139  -0.719  54.025  1.00  0.00     0.040 A 
HETATM    3  C7  UNL     1      21.956  -0.912  54.699  1.00  0.00     0.020 A 
HETATM    4  C8  UNL     1      20.884  -0.098  54.403  1.00  0.00     0.098 A 
HETATM    5  N2  UNL     1      21.051   0.850  53.464  1.00  0.00    -0.311 N 
HETATM    6  C9  UNL     1      20.092   1.710  53.078  1.00  0.00     0.217 A 
HETATM    7  N3  UNL     1      20.656   2.484  52.131  1.00  0.00    -0.223 NA
HETATM    8  C10 UNL     1      21.935   2.116  51.932  1.00  0.00     0.159 A 
HETATM    9  C17 UNL     1      22.207   1.049  52.796  1.00  0.00     0.119 A 
ENDROOT
BRANCH   8  10
HETATM   10  N4  UNL     1      22.870   2.675  51.023  1.00  0.00    -0.339 N 
HETATM   11  H13 UNL     1      23.750   2.834  51.555  1.00  0.00     0.167 HD
BRANCH  10  12
HETATM   12  C11 UNL     1      22.685   2.978  49.648  1.00  0.00     0.035 A 
HETATM   13  C12 UNL     1      22.286   1.969  48.799  1.00  0.00     0.032 A 
HETATM   14  C13 UNL     1      22.118   2.312  47.455  1.00  0.00     0.046 A 
HETATM   15  C14 UNL     1      22.353   3.620  47.047  1.00  0.00     0.138 A 
HETATM   16  F1  UNL     1      22.211   4.032  45.754  1.00  0.00    -0.204 F 
HETATM   17  C15 UNL     1      22.754   4.601  47.939  1.00  0.00     0.074 A 
HETATM   18 CL1  UNL     1      23.054   6.259  47.430  1.00  0.00    -0.081 Cl
HETATM   19  C16 UNL     1      22.929   4.285  49.283  1.00  0.00     0.056 A 
ENDBRANCH  10  12
ENDBRANCH   8  10
BRANCH   1  20
HETATM   20  O1  UNL     1      24.402   0.580  52.304  1.00  0.00    -0.343 OA
BRANCH  20  21
HETATM   21  C4  UNL     1      25.679   0.697  52.809  1.00  0.00     0.132 C 
HETATM   22  C3  UNL     1      26.525  -0.560  52.557  1.00  0.00     0.062 C 
HETATM   23  C2  UNL     1      27.775  -0.361  53.376  1.00  0.00     0.274 C 
HETATM   24  N1  UNL     1      28.478   0.854  53.125  1.00  0.00     0.084 N 
HETATM   25  C1  UNL     1      29.450   1.001  54.221  1.00  0.00     0.309 C 
HETATM   26  C19 UNL     1      27.685   2.038  53.036  1.00  0.00     0.274 C 
HETATM   27  C18 UNL     1      26.494   1.805  52.126  1.00  0.00     0.062 C 
ENDBRANCH  20  21
ENDBRANCH   1  20
TORSDOF 4
ENDMDL
MODEL 7
REMARK VINA RESULT:      -7.4      4.219      7.605
REMARK  4 active torsions:
REMARK  status: ('A' for Active; 'I' for Inactive)
REMARK    1  A    between atoms: C4_5  and  O1_6 
REMARK    2  A    between atoms: O1_6  and  C5_7 
REMARK    3  A    between atoms: C10_14  and  N4_15 
REMARK    4  A    between atoms: N4_15  and  C11_16 
ROOT
HETATM    1  C5  UNL     1      23.976   1.309  51.673  1.00  0.00     0.100 A 
HETATM    2  C6  UNL     1      23.481   0.492  52.667  1.00  0.00     0.040 A 
HETATM    3  C7  UNL     1      24.223   0.041  53.733  1.00  0.00     0.020 A 
HETATM    4  C8  UNL     1      25.545   0.421  53.828  1.00  0.00     0.098 A 
HETATM    5  N2  UNL     1      26.044   1.218  52.866  1.00  0.00    -0.311 N 
HETATM    6  C9  UNL     1      27.312   1.663  52.835  1.00  0.00     0.217 A 
HETATM    7  N3  UNL     1      27.405   2.421  51.726  1.00  0.00    -0.223 NA
HETATM    8  C10 UNL     1      26.225   2.449  51.082  1.00  0.00     0.159 A 
HETATM    9  C17 UNL     1      25.324   1.666  51.816  1.00  0.00     0.119 A 
ENDROOT
BRANCH   8  10
HETATM   10  N4  UNL     1      25.905   3.132  49.880  1.00  0.00    -0.339 N 
HETATM   11  H13 UNL     1      25.394   2.455  49.275  1.00  0.00     0.167 HD
BRANCH  10  12
HETATM   12  C11 UNL     1      26.203   4.474  49.527  1.00  0.00     0.035 A 
HETATM   13  C12 UNL     1      25.311   5.462  49.881  1.00  0.00     0.032 A 
HETATM   14  C13 UNL     1      25.644   6.768  49.512  1.00  0.00     0.046 A 
HETATM   15  C14 UNL     1      26.829   7.005  48.824  1.00  0.00     0.138 A 
HETATM   16  F1  UNL     1      27.224   8.250  48.429  1.00  0.00    -0.204 F 
HETATM   17  C15 UNL     1      27.695   5.977  48.489  1.00  0.00     0.074 A 
HETATM   18 CL1  UNL     1      29.196   6.267  47.617  1.00  0.00    -0.081 Cl
HETATM   19  C16 UNL     1      27.385   4.667  48.845  1.00  0.00     0.056 A 
ENDBRANCH  10  12
ENDBRANCH   8  10
BRANCH   1  20
HETATM   20  O1  UNL     1      23.405   1.844  50.566  1.00  0.00    -0.343 OA
BRANCH  20  21
HETATM   21  C4  UNL     1      22.045   2.020  50.423  1.00  0.00     0.132 C 
HETATM   22  C3  UNL     1      21.699   3.303  49.653  1.00  0.00     0.062 C 
HETATM   23  C2  UNL     1      20.208   3.463  49.807  1.00  0.00     0.274 C 
HETATM   24  N1  UNL     1      19.433   2.336  49.406  1.00  0.00     0.084 N 
HETATM   25  C1  UNL     1      18.075   2.563  49.927  1.00  0.00     0.309 C 
HETATM   26  C19 UNL     1      19.898   1.058  49.844  1.00  0.00     0.274 C 
HETATM   27  C18 UNL     1      21.384   0.921  49.578  1.00  0.00     0.062 C 
ENDBRANCH  20  21
ENDBRANCH   1  20
TORSDOF 4
ENDMDL
MODEL 8
REMARK VINA RESULT:      -7.3      3.758      7.717
REMARK  4 active torsions:
REMARK  status: ('A' for Active; 'I' for Inactive)
REMARK    1  A    between atoms: C4_5  and  O1_6 
REMARK    2  A    between atoms: O1_6  and  C5_7 
REMARK    3  A    between atoms: C10_14  and  N4_15 
REMARK    4  A    between atoms: N4_15  and  C11_16 
ROOT
HETATM    1  C5  UNL     1      21.790   0.760  53.112  1.00  0.00     0.100 A 
HETATM    2  C6  UNL     1      21.292   0.032  54.171  1.00  0.00     0.040 A 
HETATM    3  C7  UNL     1      22.051  -0.810  54.950  1.00  0.00     0.020 A 
HETATM    4  C8  UNL     1      23.394  -0.944  54.667  1.00  0.00     0.098 A 
HETATM    5  N2  UNL     1      23.895  -0.241  53.636  1.00  0.00    -0.311 N 
HETATM    6  C9  UNL     1      25.183  -0.277  53.252  1.00  0.00     0.217 A 
HETATM    7  N3  UNL     1      25.273   0.558  52.198  1.00  0.00    -0.223 NA
HETATM    8  C10 UNL     1      24.071   1.101  51.933  1.00  0.00     0.159 A 
HETATM    9  C17 UNL     1      23.160   0.588  52.865  1.00  0.00     0.119 A 
ENDROOT
BRANCH   8  10
HETATM   10  N4  UNL     1      23.742   2.027  50.910  1.00  0.00    -0.339 N 
HETATM   11  H13 UNL     1      23.020   1.573  50.313  1.00  0.00     0.167 HD
BRANCH  10  12
HETATM   12  C11 UNL     1      24.267   3.329  50.702  1.00  0.00     0.035 A 
HETATM   13  C12 UNL     1      23.640   4.397  51.305  1.00  0.00     0.032 A 
HETATM   14  C13 UNL     1      24.190   5.660  51.072  1.00  0.00     0.046 A 
HETATM   15  C14 UNL     1      25.316   5.779  50.265  1.00  0.00     0.138 A 
HETATM   16  F1  UNL     1      25.911   6.975  49.990  1.00  0.00    -0.204 F 
HETATM   17  C15 UNL     1      25.912   4.674  49.679  1.00  0.00     0.074 A 
HETATM   18 CL1  UNL     1      27.337   4.816  48.655  1.00  0.00    -0.081 Cl
HETATM   19  C16 UNL     1      25.382   3.405  49.895  1.00  0.00     0.056 A 
ENDBRANCH  10  12
ENDBRANCH   8  10
BRANCH   1  20
HETATM   20  O1  UNL     1      21.205   1.625  52.246  1.00  0.00    -0.343 OA
BRANCH  20  21
HETATM   21  C4  UNL     1      19.846   1.673  52.025  1.00  0.00     0.132 C 
HETATM   22  C3  UNL     1      19.388   3.040  51.496  1.00  0.00     0.062 C 
HETATM   23  C2  UNL     1      17.881   2.995  51.549  1.00  0.00     0.274 C 
HETATM   24  N1  UNL     1      17.283   1.896  50.867  1.00  0.00     0.084 N 
HETATM   25  C1  UNL     1      15.878   1.856  51.304  1.00  0.00     0.309 C 
HETATM   26  C19 UNL     1      17.879   0.616  51.083  1.00  0.00     0.274 C 
HETATM   27  C18 UNL     1      19.385   0.705  50.925  1.00  0.00     0.062 C 
ENDBRANCH  20  21
ENDBRANCH   1  20
TORSDOF 4
ENDMDL
MODEL 9
REMARK VINA RESULT:      -7.3      2.298      3.161
REMARK  4 active torsions:
REMARK  status: ('A' for Active; 'I' for Inactive)
REMARK    1  A    between atoms: C4_5  and  O1_6 
REMARK    2  A    between atoms: O1_6  and  C5_7 
REMARK    3  A    between atoms: C10_14  and  N4_15 
REMARK    4  A    between atoms: N4_15  and  C11_16 
ROOT
HETATM    1  C5  UNL     1      23.226   3.302  52.223  1.00  0.00     0.100 A 
HETATM    2  C6  UNL     1      23.786   4.534  52.482  1.00  0.00     0.040 A 
HETATM    3  C7  UNL     1      23.532   5.665  51.742  1.00  0.00     0.020 A 
HETATM    4  C8  UNL     1      22.666   5.577  50.673  1.00  0.00     0.098 A 
HETATM    5  N2  UNL     1      22.112   4.381  50.406  1.00  0.00    -0.311 N 
HETATM    6  C9  UNL     1      21.253   4.154  49.397  1.00  0.00     0.217 A 
HETATM    7  N3  UNL     1      20.936   2.847  49.475  1.00  0.00    -0.223 NA
HETATM    8  C10 UNL     1      21.581   2.274  50.507  1.00  0.00     0.159 A 
HETATM    9  C17 UNL     1      22.354   3.265  51.125  1.00  0.00     0.119 A 
ENDROOT
BRANCH   8  10
HETATM   10  N4  UNL     1      21.518   0.921  50.929  1.00  0.00    -0.339 N 
HETATM   11  H13 UNL     1      22.369   0.449  50.557  1.00  0.00     0.167 HD
BRANCH  10  12
HETATM   12  C11 UNL     1      20.512   0.289  51.705  1.00  0.00     0.035 A 
HETATM   13  C12 UNL     1      20.853  -0.219  52.939  1.00  0.00     0.032 A 
HETATM   14  C13 UNL     1      19.832  -0.834  53.668  1.00  0.00     0.046 A 
HETATM   15  C14 UNL     1      18.552  -0.902  53.130  1.00  0.00     0.138 A 
HETATM   16  F1  UNL     1      17.503  -1.485  53.779  1.00  0.00    -0.204 F 
HETATM   17  C15 UNL     1      18.256  -0.377  51.883  1.00  0.00     0.074 A 
HETATM   18 CL1  UNL     1      16.639  -0.460  51.194  1.00  0.00    -0.081 Cl
HETATM   19  C16 UNL     1      19.257   0.240  51.136  1.00  0.00     0.056 A 
ENDBRANCH  10  12
ENDBRANCH   8  10
BRANCH   1  20
HETATM   20  O1  UNL     1      23.355   2.097  52.832  1.00  0.00    -0.343 OA
BRANCH  20  21
HETATM   21  C4  UNL     1      24.564   1.452  52.988  1.00  0.00     0.132 C 
HETATM   22  C3  UNL     1      24.393  -0.013  53.419  1.00  0.00     0.062 C 
HETATM   23  C2  UNL     1      25.781  -0.479  53.779  1.00  0.00     0.274 C 
HETATM   24  N1  UNL     1      26.764  -0.299  52.762  1.00  0.00     0.084 N 
HETATM   25  C1  UNL     1      28.069  -0.506  53.410  1.00  0.00     0.309 C 
HETATM   26  C19 UNL     1      26.763   0.965  52.097  1.00  0.00     0.274 C 
HETATM   27  C18 UNL     1      25.355   1.337  51.677  1.00  0.00     0.062 C 
ENDBRANCH  20  21
ENDBRANCH   1  20
TORSDOF 4
ENDMDL
