MODEL 1
REMARK VINA RESULT:      -8.8      0.000      0.000
REMARK  7 active torsions:
REMARK  status: ('A' for Active; 'I' for Inactive)
REMARK    1  A    between atoms: O1_2  and  C2_3 
REMARK    2  A    between atoms: C5_6  and  O2_7 
REMARK    3  A    between atoms: C7_9  and  C8_10 
REMARK    4  A    between atoms: C8_10  and  C9_11 
REMARK    5  A    between atoms: C12_14  and  N1_15 
REMARK    6  A    between atoms: N1_15  and  C13_16 
REMARK    7  A    between atoms: C19_24  and  N3_25 
ROOT
HETATM    1  C9  UNL     1      25.595   2.868  50.766  1.00  0.00     0.012 C 
HETATM    2  C10 UNL     1      25.274   1.563  50.949  1.00  0.00     0.040 C 
HETATM    3  C11 UNL     1      25.981   1.047  52.132  1.00  0.00     0.038 C 
HETATM    4  C12 UNL     1      25.708   0.070  52.980  1.00  0.00     0.143 C 
HETATM    5  N2  UNL     1      26.654  -0.030  54.033  1.00  0.00    -0.191 NA
HETATM    6  C19 UNL     1      27.662   0.773  54.127  1.00  0.00     0.243 C 
HETATM    7  O3  UNL     1      27.911   1.812  53.212  1.00  0.00    -0.290 OA
HETATM    8  C20 UNL     1      27.178   1.952  52.054  1.00  0.00     0.269 C 
HETATM    9  N4  UNL     1      26.520   3.216  51.832  1.00  0.00    -0.362 N 
HETATM   10  H20 UNL     1      26.542   4.202  52.202  1.00  0.00     0.162 HD
ENDROOT
BRANCH   1  11
HETATM   11  C8  UNL     1      25.065   3.719  49.666  1.00  0.00     0.098 C 
BRANCH  11  12
HETATM   12  C7  UNL     1      26.046   4.744  49.230  1.00  0.00    -0.017 A 
HETATM   13  C5  UNL     1      25.719   6.084  49.196  1.00  0.00     0.075 A 
HETATM   14  C4  UNL     1      26.585   7.110  48.797  1.00  0.00     0.040 A 
HETATM   15  C3  UNL     1      27.850   6.706  48.417  1.00  0.00     0.039 A 
HETATM   16  C2  UNL     1      28.245   5.385  48.428  1.00  0.00     0.068 A 
HETATM   17  C21 UNL     1      27.350   4.423  48.829  1.00  0.00     0.047 A 
BRANCH  13  18
HETATM   18  O2  UNL     1      24.425   6.387  49.595  1.00  0.00    -0.355 OA
HETATM   19  C6  UNL     1      24.224   7.116  50.784  1.00  0.00     0.210 C 
ENDBRANCH  13  18
BRANCH  16  20
HETATM   20  O1  UNL     1      29.498   4.937  48.057  1.00  0.00    -0.356 OA
HETATM   21  C1  UNL     1      30.524   5.887  47.841  1.00  0.00     0.210 C 
ENDBRANCH  16  20
ENDBRANCH  11  12
ENDBRANCH   1  11
BRANCH   4  22
HETATM   22  N1  UNL     1      24.535  -0.691  52.799  1.00  0.00    -0.340 N 
HETATM   23  H12 UNL     1      24.664  -1.529  52.194  1.00  0.00     0.167 HD
BRANCH  22  24
HETATM   24  C13 UNL     1      23.272  -0.376  53.371  1.00  0.00     0.035 A 
HETATM   25  C14 UNL     1      22.857  -1.012  54.521  1.00  0.00     0.029 A 
HETATM   26  C15 UNL     1      21.642  -0.688  55.041  1.00  0.00     0.004 A 
HETATM   27  C16 UNL     1      20.859   0.269  54.404  1.00  0.00     0.019 A 
HETATM   28  C17 UNL     1      21.246   0.933  53.241  1.00  0.00     0.013 A 
HETATM   29 BR1  UNL     1      20.157   2.227  52.399  1.00  0.00    -0.051 Br
HETATM   30  C18 UNL     1      22.483   0.570  52.752  1.00  0.00     0.048 A 
ENDBRANCH  22  24
ENDBRANCH   4  22
BRANCH   6  31
HETATM   31  N3  UNL     1      28.410   0.399  55.285  1.00  0.00    -0.364 N 
HETATM   32  H17 UNL     1      28.854  -0.468  55.685  1.00  0.00     0.159 HD
HETATM   33  H18 UNL     1      28.635   1.108  56.000  1.00  0.00     0.159 HD
ENDBRANCH   6  31
TORSDOF 7
ENDMDL
MODEL 2
REMARK VINA RESULT:      -8.7      3.362      8.565
REMARK  7 active torsions:
REMARK  status: ('A' for Active; 'I' for Inactive)
REMARK    1  A    between atoms: O1_2  and  C2_3 
REMARK    2  A    between atoms: C5_6  and  O2_7 
REMARK    3  A    between atoms: C7_9  and  C8_10 
REMARK    4  A    between atoms: C8_10  and  C9_11 
REMARK    5  A    between atoms: C12_14  and  N1_15 
REMARK    6  A    between atoms: N1_15  and  C13_16 
REMARK    7  A    between atoms: C19_24  and  N3_25 
ROOT
HETATM    1  C9  UNL     1      26.133   2.573  50.896  1.00  0.00     0.012 C 
HETATM    2  C10 UNL     1      26.192   3.265  49.731  1.00  0.00     0.040 C 
HETATM    3  C11 UNL     1      25.622   4.607  49.929  1.00  0.00     0.038 C 
HETATM    4  C12 UNL     1      25.829   5.764  49.324  1.00  0.00     0.143 C 
HETATM    5  N2  UNL     1      25.097   6.832  49.903  1.00  0.00    -0.191 NA
HETATM    6  C19 UNL     1      24.322   6.657  50.922  1.00  0.00     0.243 C 
HETATM    7  O3  UNL     1      24.139   5.413  51.550  1.00  0.00    -0.290 OA
HETATM    8  C20 UNL     1      24.657   4.250  51.023  1.00  0.00     0.269 C 
HETATM    9  N4  UNL     1      25.520   3.463  51.870  1.00  0.00    -0.362 N 
HETATM   10  H20 UNL     1      25.781   3.382  52.887  1.00  0.00     0.162 HD
ENDROOT
BRANCH   1  11
HETATM   11  C8  UNL     1      26.621   1.179  51.074  1.00  0.00     0.098 C 
BRANCH  11  12
HETATM   12  C7  UNL     1      26.252   0.622  52.399  1.00  0.00    -0.017 A 
HETATM   13  C5  UNL     1      27.148   0.607  53.448  1.00  0.00     0.075 A 
HETATM   14  C4  UNL     1      26.878   0.100  54.725  1.00  0.00     0.040 A 
HETATM   15  C3  UNL     1      25.609  -0.415  54.904  1.00  0.00     0.039 A 
HETATM   16  C2  UNL     1      24.663  -0.432  53.900  1.00  0.00     0.068 A 
HETATM   17  C21 UNL     1      24.988   0.080  52.668  1.00  0.00     0.047 A 
BRANCH  13  18
HETATM   18  O2  UNL     1      28.395   1.147  53.168  1.00  0.00    -0.355 OA
HETATM   19  C6  UNL     1      28.720   2.425  53.663  1.00  0.00     0.210 C 
ENDBRANCH  13  18
BRANCH  16  20
HETATM   20  O1  UNL     1      23.384  -0.937  54.035  1.00  0.00    -0.356 OA
HETATM   21  C1  UNL     1      22.929  -1.303  55.324  1.00  0.00     0.210 C 
ENDBRANCH  16  20
ENDBRANCH  11  12
ENDBRANCH   1  11
BRANCH   4  22
HETATM   22  N1  UNL     1      26.756   5.829  48.262  1.00  0.00    -0.340 N 
HETATM   23  H12 UNL     1      26.379   5.493  47.351  1.00  0.00     0.167 HD
BRANCH  22  24
HETATM   24  C13 UNL     1      28.092   6.301  48.383  1.00  0.00     0.035 A 
HETATM   25  C14 UNL     1      29.146   5.416  48.293  1.00  0.00     0.029 A 
HETATM   26  C15 UNL     1      30.412   5.900  48.415  1.00  0.00     0.004 A 
HETATM   27  C16 UNL     1      30.606   7.262  48.625  1.00  0.00     0.019 A 
HETATM   28  C17 UNL     1      29.565   8.184  48.720  1.00  0.00     0.013 A 
HETATM   29 BR1  UNL     1      29.863  10.027  49.006  1.00  0.00    -0.051 Br
HETATM   30  C18 UNL     1      28.302   7.647  48.590  1.00  0.00     0.048 A 
ENDBRANCH  22  24
ENDBRANCH   4  22
BRANCH   6  31
HETATM   31  N3  UNL     1      23.739   7.921  51.247  1.00  0.00    -0.364 N 
HETATM   32  H17 UNL     1      24.002   8.792  51.776  1.00  0.00     0.159 HD
HETATM   33  H18 UNL     1      22.787   8.145  50.917  1.00  0.00     0.159 HD
ENDBRANCH   6  31
TORSDOF 7
ENDMDL
MODEL 3
REMARK VINA RESULT:      -8.4      3.432      8.731
REMARK  7 active torsions:
REMARK  status: ('A' for Active; 'I' for Inactive)
REMARK    1  A    between atoms: O1_2  and  C2_3 
REMARK    2  A    between atoms: C5_6  and  O2_7 
REMARK    3  A    between atoms: C7_9  and  C8_10 
REMARK    4  A    between atoms: C8_10  and  C9_11 
REMARK    5  A    between atoms: C12_14  and  N1_15 
REMARK    6  A    between atoms: N1_15  and  C13_16 
REMARK    7  A    between atoms: C19_24  and  N3_25 
ROOT
HETATM    1  C9  UNL     1      24.977   2.048  52.206  1.00  0.00     0.012 C 
HETATM    2  C10 UNL     1      25.247   2.489  50.952  1.00  0.00     0.040 C 
HETATM    3  C11 UNL     1      24.981   3.934  50.873  1.00  0.00     0.038 C 
HETATM    4  C12 UNL     1      25.472   4.893  50.106  1.00  0.00     0.143 C 
HETATM    5  N2  UNL     1      24.967   6.178  50.433  1.00  0.00    -0.191 NA
HETATM    6  C19 UNL     1      24.122   6.357  51.394  1.00  0.00     0.243 C 
HETATM    7  O3  UNL     1      23.634   5.314  52.200  1.00  0.00    -0.290 OA
HETATM    8  C20 UNL     1      23.906   3.992  51.921  1.00  0.00     0.269 C 
HETATM    9  N4  UNL     1      24.528   3.208  52.959  1.00  0.00    -0.362 N 
HETATM   10  H20 UNL     1      24.712   3.259  53.995  1.00  0.00     0.162 HD
ENDROOT
BRANCH   1  11
HETATM   11  C8  UNL     1      25.132   0.638  52.654  1.00  0.00     0.098 C 
BRANCH  11  12
HETATM   12  C7  UNL     1      23.864   0.077  53.183  1.00  0.00    -0.017 A 
HETATM   13  C5  UNL     1      23.846  -0.735  54.298  1.00  0.00     0.075 A 
HETATM   14  C4  UNL     1      22.695  -1.303  54.857  1.00  0.00     0.040 A 
HETATM   15  C3  UNL     1      21.511  -1.004  54.213  1.00  0.00     0.039 A 
HETATM   16  C2  UNL     1      21.455  -0.198  53.094  1.00  0.00     0.068 A 
HETATM   17  C21 UNL     1      22.618   0.330  52.592  1.00  0.00     0.047 A 
BRANCH  13  18
HETATM   18  O2  UNL     1      25.086  -0.977  54.873  1.00  0.00    -0.355 OA
HETATM   19  C6  UNL     1      25.221  -0.912  56.273  1.00  0.00     0.210 C 
ENDBRANCH  13  18
BRANCH  16  20
HETATM   20  O1  UNL     1      20.294   0.127  52.420  1.00  0.00    -0.356 OA
HETATM   21  C1  UNL     1      20.389   0.614  51.095  1.00  0.00     0.210 C 
ENDBRANCH  16  20
ENDBRANCH  11  12
ENDBRANCH   1  11
BRANCH   4  22
HETATM   22  N1  UNL     1      26.442   4.568  49.135  1.00  0.00    -0.340 N 
HETATM   23  H12 UNL     1      26.463   3.559  48.879  1.00  0.00     0.167 HD
BRANCH  22  24
HETATM   24  C13 UNL     1      27.332   5.503  48.538  1.00  0.00     0.035 A 
HETATM   25  C14 UNL     1      26.853   6.712  48.076  1.00  0.00     0.029 A 
HETATM   26  C15 UNL     1      27.730   7.583  47.509  1.00  0.00     0.004 A 
HETATM   27  C16 UNL     1      29.074   7.235  47.411  1.00  0.00     0.019 A 
HETATM   28  C17 UNL     1      29.592   6.024  47.867  1.00  0.00     0.013 A 
HETATM   29 BR1  UNL     1      31.423   5.582  47.719  1.00  0.00    -0.051 Br
HETATM   30  C18 UNL     1      28.666   5.175  48.434  1.00  0.00     0.048 A 
ENDBRANCH  22  24
ENDBRANCH   4  22
BRANCH   6  31
HETATM   31  N3  UNL     1      23.819   7.752  51.451  1.00  0.00    -0.364 N 
HETATM   32  H17 UNL     1      24.336   8.669  51.412  1.00  0.00     0.159 HD
HETATM   33  H18 UNL     1      22.840   8.059  51.564  1.00  0.00     0.159 HD
ENDBRANCH   6  31
TORSDOF 7
ENDMDL
MODEL 4
REMARK VINA RESULT:      -8.4      1.825      3.251
REMARK  7 active torsions:
REMARK  status: ('A' for Active; 'I' for Inactive)
REMARK    1  A    between atoms: O1_2  and  C2_3 
REMARK    2  A    between atoms: C5_6  and  O2_7 
REMARK    3  A    between atoms: C7_9  and  C8_10 
REMARK    4  A    between atoms: C8_10  and  C9_11 
REMARK    5  A    between atoms: C12_14  and  N1_15 
REMARK    6  A    between atoms: N1_15  and  C13_16 
REMARK    7  A    between atoms: C19_24  and  N3_25 
ROOT
HETATM    1  C9  UNL     1      26.241   2.621  50.856  1.00  0.00     0.012 C 
HETATM    2  C10 UNL     1      25.757   1.365  51.024  1.00  0.00     0.040 C 
HETATM    3  C11 UNL     1      26.244   0.820  52.301  1.00  0.00     0.038 C 
HETATM    4  C12 UNL     1      25.758  -0.090  53.128  1.00  0.00     0.143 C 
HETATM    5  N2  UNL     1      26.544  -0.252  54.298  1.00  0.00    -0.191 NA
HETATM    6  C19 UNL     1      27.613   0.442  54.506  1.00  0.00     0.243 C 
HETATM    7  O3  UNL     1      28.092   1.414  53.610  1.00  0.00    -0.290 OA
HETATM    8  C20 UNL     1      27.533   1.589  52.362  1.00  0.00     0.269 C 
HETATM    9  N4  UNL     1      27.054   2.907  52.027  1.00  0.00    -0.362 N 
HETATM   10  H20 UNL     1      27.136   3.898  52.374  1.00  0.00     0.162 HD
ENDROOT
BRANCH   1  11
HETATM   11  C8  UNL     1      25.955   3.482  49.677  1.00  0.00     0.098 C 
BRANCH  11  12
HETATM   12  C7  UNL     1      24.534   3.910  49.629  1.00  0.00    -0.017 A 
HETATM   13  C5  UNL     1      24.140   5.148  50.093  1.00  0.00     0.075 A 
HETATM   14  C4  UNL     1      22.823   5.625  50.084  1.00  0.00     0.040 A 
HETATM   15  C3  UNL     1      21.881   4.759  49.565  1.00  0.00     0.039 A 
HETATM   16  C2  UNL     1      22.205   3.508  49.083  1.00  0.00     0.068 A 
HETATM   17  C21 UNL     1      23.514   3.096  49.119  1.00  0.00     0.047 A 
BRANCH  13  18
HETATM   18  O2  UNL     1      25.159   5.944  50.596  1.00  0.00    -0.355 OA
HETATM   19  C6  UNL     1      25.184   7.316  50.278  1.00  0.00     0.210 C 
ENDBRANCH  13  18
BRANCH  16  20
HETATM   20  O1  UNL     1      21.296   2.612  48.555  1.00  0.00    -0.356 OA
HETATM   21  C1  UNL     1      21.517   1.227  48.742  1.00  0.00     0.210 C 
ENDBRANCH  16  20
ENDBRANCH  11  12
ENDBRANCH   1  11
BRANCH   4  22
HETATM   22  N1  UNL     1      24.541  -0.728  52.811  1.00  0.00    -0.340 N 
HETATM   23  H12 UNL     1      24.640  -1.519  52.140  1.00  0.00     0.167 HD
BRANCH  22  24
HETATM   24  C13 UNL     1      23.273  -0.354  53.334  1.00  0.00     0.035 A 
HETATM   25  C14 UNL     1      22.767  -1.000  54.443  1.00  0.00     0.029 A 
HETATM   26  C15 UNL     1      21.551  -0.619  54.918  1.00  0.00     0.004 A 
HETATM   27  C16 UNL     1      20.856   0.403  54.278  1.00  0.00     0.019 A 
HETATM   28  C17 UNL     1      21.336   1.077  53.156  1.00  0.00     0.013 A 
HETATM   29 BR1  UNL     1      20.367   2.460  52.310  1.00  0.00    -0.051 Br
HETATM   30  C18 UNL     1      22.572   0.656  52.713  1.00  0.00     0.048 A 
ENDBRANCH  22  24
ENDBRANCH   4  22
BRANCH   6  31
HETATM   31  N3  UNL     1      28.160   0.033  55.761  1.00  0.00    -0.364 N 
HETATM   32  H17 UNL     1      27.866   0.001  56.772  1.00  0.00     0.159 HD
HETATM   33  H18 UNL     1      29.114  -0.358  55.800  1.00  0.00     0.159 HD
ENDBRANCH   6  31
TORSDOF 7
ENDMDL
MODEL 5
REMARK VINA RESULT:      -8.2      2.920      6.649
REMARK  7 active torsions:
REMARK  status: ('A' for Active; 'I' for Inactive)
REMARK    1  A    between atoms: O1_2  and  C2_3 
REMARK    2  A    between atoms: C5_6  and  O2_7 
REMARK    3  A    between atoms: C7_9  and  C8_10 
REMARK    4  A    between atoms: C8_10  and  C9_11 
REMARK    5  A    between atoms: C12_14  and  N1_15 
REMARK    6  A    between atoms: N1_15  and  C13_16 
REMARK    7  A    between atoms: C19_24  and  N3_25 
ROOT
HETATM    1  C9  UNL     1      23.744   0.572  52.779  1.00  0.00     0.012 C 
HETATM    2  C10 UNL     1      24.207   1.567  51.981  1.00  0.00     0.040 C 
HETATM    3  C11 UNL     1      25.600   1.874  52.340  1.00  0.00     0.038 C 
HETATM    4  C12 UNL     1      26.611   2.378  51.652  1.00  0.00     0.143 C 
HETATM    5  N2  UNL     1      27.816   2.435  52.397  1.00  0.00    -0.191 NA
HETATM    6  C19 UNL     1      27.886   2.021  53.619  1.00  0.00     0.243 C 
HETATM    7  O3  UNL     1      26.793   1.475  54.315  1.00  0.00    -0.290 OA
HETATM    8  C20 UNL     1      25.519   1.486  53.789  1.00  0.00     0.269 C 
HETATM    9  N4  UNL     1      24.837   0.221  53.671  1.00  0.00    -0.362 N 
HETATM   10  H20 UNL     1      24.923  -0.768  54.025  1.00  0.00     0.162 HD
ENDROOT
BRANCH   1  11
HETATM   11  C8  UNL     1      22.373  -0.000  52.701  1.00  0.00     0.098 C 
BRANCH  11  12
HETATM   12  C7  UNL     1      21.624   0.501  51.522  1.00  0.00    -0.017 A 
HETATM   13  C5  UNL     1      20.245   0.553  51.514  1.00  0.00     0.075 A 
HETATM   14  C4  UNL     1      19.467   1.011  50.444  1.00  0.00     0.040 A 
HETATM   15  C3  UNL     1      20.172   1.431  49.333  1.00  0.00     0.039 A 
HETATM   16  C2  UNL     1      21.549   1.408  49.272  1.00  0.00     0.068 A 
HETATM   17  C21 UNL     1      22.259   0.947  50.355  1.00  0.00     0.047 A 
BRANCH  13  18
HETATM   18  O2  UNL     1      19.630   0.108  52.676  1.00  0.00    -0.355 OA
HETATM   19  C6  UNL     1      18.417  -0.602  52.585  1.00  0.00     0.210 C 
ENDBRANCH  13  18
BRANCH  16  20
HETATM   20  O1  UNL     1      22.294   1.819  48.183  1.00  0.00    -0.356 OA
HETATM   21  C1  UNL     1      22.395   3.204  47.910  1.00  0.00     0.210 C 
ENDBRANCH  16  20
ENDBRANCH  11  12
ENDBRANCH   1  11
BRANCH   4  22
HETATM   22  N1  UNL     1      26.414   2.729  50.300  1.00  0.00    -0.340 N 
HETATM   23  H12 UNL     1      26.297   1.913  49.664  1.00  0.00     0.167 HD
BRANCH  22  24
HETATM   24  C13 UNL     1      26.376   4.063  49.809  1.00  0.00     0.035 A 
HETATM   25  C14 UNL     1      27.328   4.494  48.909  1.00  0.00     0.029 A 
HETATM   26  C15 UNL     1      27.263   5.777  48.460  1.00  0.00     0.004 A 
HETATM   27  C16 UNL     1      26.248   6.611  48.918  1.00  0.00     0.019 A 
HETATM   28  C17 UNL     1      25.270   6.210  49.826  1.00  0.00     0.013 A 
HETATM   29 BR1  UNL     1      23.905   7.368  50.428  1.00  0.00    -0.051 Br
HETATM   30  C18 UNL     1      25.377   4.903  50.251  1.00  0.00     0.048 A 
ENDBRANCH  22  24
ENDBRANCH   4  22
BRANCH   6  31
HETATM   31  N3  UNL     1      29.226   2.223  54.071  1.00  0.00    -0.364 N 
HETATM   32  H17 UNL     1      30.144   2.556  53.677  1.00  0.00     0.159 HD
HETATM   33  H18 UNL     1      29.474   2.010  55.050  1.00  0.00     0.159 HD
ENDBRANCH   6  31
TORSDOF 7
ENDMDL
MODEL 6
REMARK VINA RESULT:      -8.2      4.532      9.247
REMARK  7 active torsions:
REMARK  status: ('A' for Active; 'I' for Inactive)
REMARK    1  A    between atoms: O1_2  and  C2_3 
REMARK    2  A    between atoms: C5_6  and  O2_7 
REMARK    3  A    between atoms: C7_9  and  C8_10 
REMARK    4  A    between atoms: C8_10  and  C9_11 
REMARK    5  A    between atoms: C12_14  and  N1_15 
REMARK    6  A    between atoms: N1_15  and  C13_16 
REMARK    7  A    between atoms: C19_24  and  N3_25 
ROOT
HETATM    1  C9  UNL     1      26.449   4.800  49.336  1.00  0.00     0.012 C 
HETATM    2  C10 UNL     1      27.484   4.886  48.465  1.00  0.00     0.040 C 
HETATM    3  C11 UNL     1      28.091   6.224  48.557  1.00  0.00     0.038 C 
HETATM    4  C12 UNL     1      29.310   6.672  48.309  1.00  0.00     0.143 C 
HETATM    5  N2  UNL     1      29.467   8.049  48.610  1.00  0.00    -0.191 NA
HETATM    6  C19 UNL     1      28.498   8.761  49.084  1.00  0.00     0.243 C 
HETATM    7  O3  UNL     1      27.218   8.246  49.350  1.00  0.00    -0.290 OA
HETATM    8  C20 UNL     1      26.856   6.970  48.976  1.00  0.00     0.269 C 
HETATM    9  N4  UNL     1      26.369   6.087  50.007  1.00  0.00    -0.362 N 
HETATM   10  H20 UNL     1      26.015   6.137  50.998  1.00  0.00     0.162 HD
ENDROOT
BRANCH   1  11
HETATM   11  C8  UNL     1      25.601   3.591  49.519  1.00  0.00     0.098 C 
BRANCH  11  12
HETATM   12  C7  UNL     1      25.668   3.066  50.906  1.00  0.00    -0.017 A 
HETATM   13  C5  UNL     1      24.600   3.182  51.772  1.00  0.00     0.075 A 
HETATM   14  C4  UNL     1      24.584   2.716  53.092  1.00  0.00     0.040 A 
HETATM   15  C3  UNL     1      25.744   2.100  53.519  1.00  0.00     0.039 A 
HETATM   16  C2  UNL     1      26.849   1.948  52.707  1.00  0.00     0.068 A 
HETATM   17  C21 UNL     1      26.804   2.428  51.421  1.00  0.00     0.047 A 
BRANCH  13  18
HETATM   18  O2  UNL     1      23.482   3.816  51.249  1.00  0.00    -0.355 OA
HETATM   19  C6  UNL     1      23.034   5.017  51.834  1.00  0.00     0.210 C 
ENDBRANCH  13  18
BRANCH  16  20
HETATM   20  O1  UNL     1      28.028   1.340  53.093  1.00  0.00    -0.356 OA
HETATM   21  C1  UNL     1      28.940   2.066  53.894  1.00  0.00     0.210 C 
ENDBRANCH  16  20
ENDBRANCH  11  12
ENDBRANCH   1  11
BRANCH   4  22
HETATM   22  N1  UNL     1      30.295   5.769  47.857  1.00  0.00    -0.340 N 
HETATM   23  H12 UNL     1      29.980   4.777  47.833  1.00  0.00     0.167 HD
BRANCH  22  24
HETATM   24  C13 UNL     1      31.610   6.140  47.462  1.00  0.00     0.035 A 
HETATM   25  C14 UNL     1      31.806   6.842  46.291  1.00  0.00     0.029 A 
HETATM   26  C15 UNL     1      33.077   7.180  45.942  1.00  0.00     0.004 A 
HETATM   27  C16 UNL     1      34.134   6.813  46.768  1.00  0.00     0.019 A 
HETATM   28  C17 UNL     1      33.973   6.104  47.958  1.00  0.00     0.013 A 
HETATM   29 BR1  UNL     1      35.430   5.620  49.057  1.00  0.00    -0.051 Br
HETATM   30  C18 UNL     1      32.668   5.785  48.269  1.00  0.00     0.048 A 
ENDBRANCH  22  24
ENDBRANCH   4  22
BRANCH   6  31
HETATM   31  N3  UNL     1      28.986  10.091  49.267  1.00  0.00    -0.364 N 
HETATM   32  H17 UNL     1      28.701  10.967  49.777  1.00  0.00     0.159 HD
HETATM   33  H18 UNL     1      29.864  10.382  48.810  1.00  0.00     0.159 HD
ENDBRANCH   6  31
TORSDOF 7
ENDMDL
MODEL 7
REMARK VINA RESULT:      -8.2      2.903      7.788
REMARK  7 active torsions:
REMARK  status: ('A' for Active; 'I' for Inactive)
REMARK    1  A    between atoms: O1_2  and  C2_3 
REMARK    2  A    between atoms: C5_6  and  O2_7 
REMARK    3  A    between atoms: C7_9  and  C8_10 
REMARK    4  A    between atoms: C8_10  and  C9_11 
REMARK    5  A    between atoms: C12_14  and  N1_15 
REMARK    6  A    between atoms: N1_15  and  C13_16 
REMARK    7  A    between atoms: C19_24  and  N3_25 
ROOT
HETATM    1  C9  UNL     1      23.124   2.277  52.343  1.00  0.00     0.012 C 
HETATM    2  C10 UNL     1      23.907   3.017  51.519  1.00  0.00     0.040 C 
HETATM    3  C11 UNL     1      25.323   2.759  51.827  1.00  0.00     0.038 C 
HETATM    4  C12 UNL     1      26.424   2.834  51.099  1.00  0.00     0.143 C 
HETATM    5  N2  UNL     1      27.583   2.418  51.803  1.00  0.00    -0.191 NA
HETATM    6  C19 UNL     1      27.530   2.007  53.027  1.00  0.00     0.243 C 
HETATM    7  O3  UNL     1      26.337   1.926  53.765  1.00  0.00    -0.290 OA
HETATM    8  C20 UNL     1      25.148   2.431  53.283  1.00  0.00     0.269 C 
HETATM    9  N4  UNL     1      24.027   1.528  53.202  1.00  0.00    -0.362 N 
HETATM   10  H20 UNL     1      23.736   0.583  53.565  1.00  0.00     0.162 HD
ENDROOT
BRANCH   1  11
HETATM   11  C8  UNL     1      21.637   2.280  52.317  1.00  0.00     0.098 C 
BRANCH  11  12
HETATM   12  C7  UNL     1      21.066   1.010  52.832  1.00  0.00    -0.017 A 
HETATM   13  C5  UNL     1      19.885   0.498  52.336  1.00  0.00     0.075 A 
HETATM   14  C4  UNL     1      19.282  -0.690  52.767  1.00  0.00     0.040 A 
HETATM   15  C3  UNL     1      19.953  -1.368  53.766  1.00  0.00     0.039 A 
HETATM   16  C2  UNL     1      21.138  -0.916  54.307  1.00  0.00     0.068 A 
HETATM   17  C21 UNL     1      21.680   0.258  53.842  1.00  0.00     0.047 A 
BRANCH  13  18
HETATM   18  O2  UNL     1      19.287   1.253  51.336  1.00  0.00    -0.355 OA
HETATM   19  C6  UNL     1      17.987   1.755  51.536  1.00  0.00     0.210 C 
ENDBRANCH  13  18
BRANCH  16  20
HETATM   20  O1  UNL     1      21.842  -1.561  55.305  1.00  0.00    -0.356 OA
HETATM   21  C1  UNL     1      23.236  -1.340  55.410  1.00  0.00     0.210 C 
ENDBRANCH  16  20
ENDBRANCH  11  12
ENDBRANCH   1  11
BRANCH   4  22
HETATM   22  N1  UNL     1      26.331   3.236  49.750  1.00  0.00    -0.340 N 
HETATM   23  H12 UNL     1      26.000   2.487  49.107  1.00  0.00     0.167 HD
BRANCH  22  24
HETATM   24  C13 UNL     1      26.653   4.536  49.271  1.00  0.00     0.035 A 
HETATM   25  C14 UNL     1      27.852   4.756  48.627  1.00  0.00     0.029 A 
HETATM   26  C15 UNL     1      28.129   6.011  48.182  1.00  0.00     0.004 A 
HETATM   27  C16 UNL     1      27.203   7.030  48.387  1.00  0.00     0.019 A 
HETATM   28  C17 UNL     1      25.982   6.843  49.033  1.00  0.00     0.013 A 
HETATM   29 BR1  UNL     1      24.747   8.248  49.295  1.00  0.00    -0.051 Br
HETATM   30  C18 UNL     1      25.746   5.556  49.465  1.00  0.00     0.048 A 
ENDBRANCH  22  24
ENDBRANCH   4  22
BRANCH   6  31
HETATM   31  N3  UNL     1      28.859   1.673  53.431  1.00  0.00    -0.364 N 
HETATM   32  H17 UNL     1      29.351   1.317  54.292  1.00  0.00     0.159 HD
HETATM   33  H18 UNL     1      29.639   1.776  52.763  1.00  0.00     0.159 HD
ENDBRANCH   6  31
TORSDOF 7
ENDMDL
MODEL 8
REMARK VINA RESULT:      -8.0      3.022      5.532
REMARK  7 active torsions:
REMARK  status: ('A' for Active; 'I' for Inactive)
REMARK    1  A    between atoms: O1_2  and  C2_3 
REMARK    2  A    between atoms: C5_6  and  O2_7 
REMARK    3  A    between atoms: C7_9  and  C8_10 
REMARK    4  A    between atoms: C8_10  and  C9_11 
REMARK    5  A    between atoms: C12_14  and  N1_15 
REMARK    6  A    between atoms: N1_15  and  C13_16 
REMARK    7  A    between atoms: C19_24  and  N3_25 
ROOT
HETATM    1  C9  UNL     1      27.265   5.847  48.616  1.00  0.00     0.012 C 
HETATM    2  C10 UNL     1      26.807   4.796  49.341  1.00  0.00     0.040 C 
HETATM    3  C11 UNL     1      25.503   5.139  49.930  1.00  0.00     0.038 C 
HETATM    4  C12 UNL     1      24.469   4.404  50.304  1.00  0.00     0.143 C 
HETATM    5  N2  UNL     1      23.374   5.180  50.764  1.00  0.00    -0.191 NA
HETATM    6  C19 UNL     1      23.414   6.471  50.792  1.00  0.00     0.243 C 
HETATM    7  O3  UNL     1      24.526   7.221  50.370  1.00  0.00    -0.290 OA
HETATM    8  C20 UNL     1      25.722   6.622  50.039  1.00  0.00     0.269 C 
HETATM    9  N4  UNL     1      26.260   6.891  48.728  1.00  0.00    -0.362 N 
HETATM   10  H20 UNL     1      26.123   7.569  47.934  1.00  0.00     0.162 HD
ENDROOT
BRANCH   1  11
HETATM   11  C8  UNL     1      28.555   5.859  47.875  1.00  0.00     0.098 C 
BRANCH  11  12
HETATM   12  C7  UNL     1      29.507   6.856  48.427  1.00  0.00    -0.017 A 
HETATM   13  C5  UNL     1      30.758   6.485  48.875  1.00  0.00     0.075 A 
HETATM   14  C4  UNL     1      31.710   7.362  49.408  1.00  0.00     0.040 A 
HETATM   15  C3  UNL     1      31.328   8.687  49.473  1.00  0.00     0.039 A 
HETATM   16  C2  UNL     1      30.094   9.128  49.042  1.00  0.00     0.068 A 
HETATM   17  C21 UNL     1      29.201   8.220  48.529  1.00  0.00     0.047 A 
BRANCH  13  18
HETATM   18  O2  UNL     1      31.047   5.132  48.768  1.00  0.00    -0.355 OA
HETATM   19  C6  UNL     1      32.154   4.723  47.999  1.00  0.00     0.210 C 
ENDBRANCH  13  18
BRANCH  16  20
HETATM   20  O1  UNL     1      29.670  10.443  49.089  1.00  0.00    -0.356 OA
HETATM   21  C1  UNL     1      30.640  11.472  49.069  1.00  0.00     0.210 C 
ENDBRANCH  16  20
ENDBRANCH  11  12
ENDBRANCH   1  11
BRANCH   4  22
HETATM   22  N1  UNL     1      24.533   3.003  50.157  1.00  0.00    -0.340 N 
HETATM   23  H12 UNL     1      24.552   2.682  49.166  1.00  0.00     0.167 HD
BRANCH  22  24
HETATM   24  C13 UNL     1      24.567   2.078  51.237  1.00  0.00     0.035 A 
HETATM   25  C14 UNL     1      23.403   1.749  51.899  1.00  0.00     0.029 A 
HETATM   26  C15 UNL     1      23.471   0.861  52.928  1.00  0.00     0.004 A 
HETATM   27  C16 UNL     1      24.701   0.316  53.281  1.00  0.00     0.019 A 
HETATM   28  C17 UNL     1      25.896   0.625  52.634  1.00  0.00     0.013 A 
HETATM   29 BR1  UNL     1      27.551  -0.134  53.139  1.00  0.00    -0.051 Br
HETATM   30  C18 UNL     1      25.777   1.528  51.599  1.00  0.00     0.048 A 
ENDBRANCH  22  24
ENDBRANCH   4  22
BRANCH   6  31
HETATM   31  N3  UNL     1      22.164   6.933  51.307  1.00  0.00    -0.364 N 
HETATM   32  H17 UNL     1      21.330   7.480  50.968  1.00  0.00     0.159 HD
HETATM   33  H18 UNL     1      21.905   6.727  52.285  1.00  0.00     0.159 HD
ENDBRANCH   6  31
TORSDOF 7
ENDMDL
MODEL 9
REMARK VINA RESULT:      -7.8      3.358      8.746
REMARK  7 active torsions:
REMARK  status: ('A' for Active; 'I' for Inactive)
REMARK    1  A    between atoms: O1_2  and  C2_3 
REMARK    2  A    between atoms: C5_6  and  O2_7 
REMARK    3  A    between atoms: C7_9  and  C8_10 
REMARK    4  A    between atoms: C8_10  and  C9_11 
REMARK    5  A    between atoms: C12_14  and  N1_15 
REMARK    6  A    between atoms: N1_15  and  C13_16 
REMARK    7  A    between atoms: C19_24  and  N3_25 
ROOT
HETATM    1  C9  UNL     1      24.896   2.470  51.662  1.00  0.00     0.012 C 
HETATM    2  C10 UNL     1      25.403   2.907  50.482  1.00  0.00     0.040 C 
HETATM    3  C11 UNL     1      25.298   4.373  50.418  1.00  0.00     0.038 C 
HETATM    4  C12 UNL     1      25.996   5.292  49.771  1.00  0.00     0.143 C 
HETATM    5  N2  UNL     1      25.577   6.615  50.065  1.00  0.00    -0.191 NA
HETATM    6  C19 UNL     1      24.615   6.861  50.890  1.00  0.00     0.243 C 
HETATM    7  O3  UNL     1      23.904   5.858  51.572  1.00  0.00    -0.290 OA
HETATM    8  C20 UNL     1      24.084   4.521  51.289  1.00  0.00     0.269 C 
HETATM    9  N4  UNL     1      24.453   3.654  52.381  1.00  0.00    -0.362 N 
HETATM   10  H20 UNL     1      24.477   3.663  53.434  1.00  0.00     0.162 HD
ENDROOT
BRANCH   1  11
HETATM   11  C8  UNL     1      24.838   1.042  52.076  1.00  0.00     0.098 C 
BRANCH  11  12
HETATM   12  C7  UNL     1      23.529   0.689  52.679  1.00  0.00    -0.017 A 
HETATM   13  C5  UNL     1      23.438  -0.199  53.732  1.00  0.00     0.075 A 
HETATM   14  C4  UNL     1      22.244  -0.585  54.354  1.00  0.00     0.040 A 
HETATM   15  C3  UNL     1      21.096  -0.011  53.845  1.00  0.00     0.039 A 
HETATM   16  C2  UNL     1      21.113   0.885  52.796  1.00  0.00     0.068 A 
HETATM   17  C21 UNL     1      22.316   1.224  52.226  1.00  0.00     0.047 A 
BRANCH  13  18
HETATM   18  O2  UNL     1      24.646  -0.722  54.170  1.00  0.00    -0.355 OA
HETATM   19  C6  UNL     1      24.762  -1.167  55.502  1.00  0.00     0.210 C 
ENDBRANCH  13  18
BRANCH  16  20
HETATM   20  O1  UNL     1      19.990   1.483  52.256  1.00  0.00    -0.356 OA
HETATM   21  C1  UNL     1      19.982   2.887  52.084  1.00  0.00     0.210 C 
ENDBRANCH  16  20
ENDBRANCH  11  12
ENDBRANCH   1  11
BRANCH   4  22
HETATM   22  N1  UNL     1      27.070   4.888  48.950  1.00  0.00    -0.340 N 
HETATM   23  H12 UNL     1      27.152   3.856  48.838  1.00  0.00     0.167 HD
BRANCH  22  24
HETATM   24  C13 UNL     1      27.980   5.778  48.316  1.00  0.00     0.035 A 
HETATM   25  C14 UNL     1      29.336   5.526  48.364  1.00  0.00     0.029 A 
HETATM   26  C15 UNL     1      30.179   6.398  47.748  1.00  0.00     0.004 A 
HETATM   27  C16 UNL     1      29.657   7.508  47.092  1.00  0.00     0.019 A 
HETATM   28  C17 UNL     1      28.294   7.793  47.023  1.00  0.00     0.013 A 
HETATM   29 BR1  UNL     1      27.617   9.311  46.126  1.00  0.00    -0.051 Br
HETATM   30  C18 UNL     1      27.479   6.882  47.662  1.00  0.00     0.048 A 
ENDBRANCH  22  24
ENDBRANCH   4  22
BRANCH   6  31
HETATM   31  N3  UNL     1      24.447   8.279  50.953  1.00  0.00    -0.364 N 
HETATM   32  H17 UNL     1      24.658   9.064  51.622  1.00  0.00     0.159 HD
HETATM   33  H18 UNL     1      24.000   8.777  50.167  1.00  0.00     0.159 HD
ENDBRANCH   6  31
TORSDOF 7
ENDMDL
