MODEL 1
REMARK VINA RESULT:      -8.2      0.000      0.000
REMARK  5 active torsions:
REMARK  status: ('A' for Active; 'I' for Inactive)
REMARK    1  A    between atoms: P1_2  and  N1_3 
REMARK    2  A    between atoms: N4_13  and  C9_14 
REMARK    3  A    between atoms: C11_16  and  C12_17 
REMARK    4  A    between atoms: C13_18  and  N5_20 
REMARK       I    between atoms: N5_20  and  C15_21 
REMARK    5  A    between atoms: C15_21  and  C16_23 
ROOT
HETATM    1  C9  UNL     1      33.520   8.148  47.323  1.00  0.00     0.031 C 
HETATM    2  C10 UNL     1      34.714   8.999  47.087  1.00  0.00     0.070 C 
HETATM    3  C11 UNL     1      32.592   8.459  48.182  1.00  0.00     0.028 C 
ENDROOT
BRANCH   1   4
HETATM    4  N4  UNL     1      33.480   6.969  46.534  1.00  0.00    -0.254 N 
HETATM    5  N1  UNL     1      33.009   7.141  45.205  1.00  0.00    -0.247 N 
HETATM    6  C2  UNL     1      33.055   5.889  44.554  1.00  0.00     0.150 A 
HETATM    7  N2  UNL     1      33.129   4.658  43.756  1.00  0.00    -0.255 NA
HETATM    8  C3  UNL     1      32.890   4.604  45.135  1.00  0.00     0.217 A 
HETATM    9  C4  UNL     1      33.828   4.456  46.250  1.00  0.00     0.020 A 
HETATM   10  C5  UNL     1      34.447   3.324  46.683  1.00  0.00     0.128 A 
HETATM   11  C8  UNL     1      33.866   5.642  46.950  1.00  0.00     0.068 A 
HETATM   12  N3  UNL     1      35.103   3.392  47.842  1.00  0.00    -0.272 NA
HETATM   13  C6  UNL     1      35.153   4.522  48.547  1.00  0.00     0.118 A 
HETATM   14  C7  UNL     1      34.551   5.737  48.180  1.00  0.00     0.051 A 
BRANCH   5  15
HETATM   15  P1  UNL     1      32.443   8.617  44.408  1.00  0.00    -0.004 P 
HETATM   16  C1  UNL     1      30.707   9.061  44.857  1.00  0.00     0.066 C 
HETATM   17  H4  UNL     1      32.689   8.676  42.997  1.00  0.00     0.082 HD
ENDBRANCH   5  15
ENDBRANCH   1   4
BRANCH   3  18
HETATM   18  C12 UNL     1      31.442   7.584  48.371  1.00  0.00     0.026 C 
HETATM   19  C13 UNL     1      30.324   8.061  48.853  1.00  0.00     0.008 C 
HETATM   20  C14 UNL     1      30.242   9.503  49.204  1.00  0.00     0.068 C 
BRANCH  19  21
HETATM   21  N5  UNL     1      29.185   7.233  49.049  1.00  0.00    -0.327 N 
HETATM   22  C15 UNL     1      28.143   6.955  48.144  1.00  0.00     0.255 C 
HETATM   23  O1  UNL     1      28.262   7.527  47.022  1.00  0.00    -0.267 OA
HETATM   24  H17 UNL     1      29.221   6.833  50.012  1.00  0.00     0.169 HD
BRANCH  22  25
HETATM   25  C16 UNL     1      27.036   6.074  48.513  1.00  0.00     0.032 A 
HETATM   26  C17 UNL     1      25.698   6.411  48.498  1.00  0.00     0.018 A 
HETATM   27  C18 UNL     1      24.763   5.466  48.877  1.00  0.00     0.025 A 
HETATM   28  C19 UNL     1      25.136   4.182  49.273  1.00  0.00     0.034 A 
HETATM   29 CL1  UNL     1      23.877   3.048  49.738  1.00  0.00    -0.084 Cl
HETATM   30  C20 UNL     1      26.490   3.836  49.291  1.00  0.00     0.025 A 
HETATM   31  C21 UNL     1      27.407   4.796  48.909  1.00  0.00     0.018 A 
ENDBRANCH  22  25
ENDBRANCH  19  21
ENDBRANCH   3  18
TORSDOF 5
ENDMDL
MODEL 2
REMARK VINA RESULT:      -7.7      0.936      1.303
REMARK  5 active torsions:
REMARK  status: ('A' for Active; 'I' for Inactive)
REMARK    1  A    between atoms: P1_2  and  N1_3 
REMARK    2  A    between atoms: N4_13  and  C9_14 
REMARK    3  A    between atoms: C11_16  and  C12_17 
REMARK    4  A    between atoms: C13_18  and  N5_20 
REMARK       I    between atoms: N5_20  and  C15_21 
REMARK    5  A    between atoms: C15_21  and  C16_23 
ROOT
HETATM    1  C9  UNL     1      32.770   8.650  46.925  1.00  0.00     0.031 C 
HETATM    2  C10 UNL     1      33.801   9.674  46.619  1.00  0.00     0.070 C 
HETATM    3  C11 UNL     1      31.726   8.900  47.661  1.00  0.00     0.028 C 
ENDROOT
BRANCH   1   4
HETATM    4  N4  UNL     1      33.023   7.379  46.347  1.00  0.00    -0.254 N 
HETATM    5  N1  UNL     1      32.638   7.241  44.987  1.00  0.00    -0.247 N 
HETATM    6  C2  UNL     1      32.978   5.938  44.561  1.00  0.00     0.150 A 
HETATM    7  N2  UNL     1      33.352   4.638  43.990  1.00  0.00    -0.255 NA
HETATM    8  C3  UNL     1      33.015   4.753  45.344  1.00  0.00     0.217 A 
HETATM    9  C4  UNL     1      33.869   4.976  46.513  1.00  0.00     0.020 A 
HETATM   10  C5  UNL     1      34.655   4.075  47.163  1.00  0.00     0.128 A 
HETATM   11  C8  UNL     1      33.620   6.240  47.002  1.00  0.00     0.068 A 
HETATM   12  N3  UNL     1      35.188   4.456  48.324  1.00  0.00    -0.272 NA
HETATM   13  C6  UNL     1      34.962   5.669  48.828  1.00  0.00     0.118 A 
HETATM   14  C7  UNL     1      34.171   6.664  48.230  1.00  0.00     0.051 A 
BRANCH   5  15
HETATM   15  P1  UNL     1      31.867   8.427  43.923  1.00  0.00    -0.004 P 
HETATM   16  C1  UNL     1      32.461   8.328  42.178  1.00  0.00     0.066 C 
HETATM   17  H4  UNL     1      31.840   9.768  44.431  1.00  0.00     0.082 HD
ENDBRANCH   5  15
ENDBRANCH   1   4
BRANCH   3  18
HETATM   18  C12 UNL     1      30.746   7.855  47.928  1.00  0.00     0.026 C 
HETATM   19  C13 UNL     1      29.733   8.088  48.721  1.00  0.00     0.008 C 
HETATM   20  C14 UNL     1      29.594   9.429  49.346  1.00  0.00     0.068 C 
BRANCH  19  21
HETATM   21  N5  UNL     1      28.761   7.088  49.001  1.00  0.00    -0.327 N 
HETATM   22  C15 UNL     1      27.587   6.789  48.284  1.00  0.00     0.255 C 
HETATM   23  O1  UNL     1      27.400   7.517  47.266  1.00  0.00    -0.267 OA
HETATM   24  H17 UNL     1      29.047   6.573  49.861  1.00  0.00     0.169 HD
BRANCH  22  25
HETATM   25  C16 UNL     1      26.689   5.719  48.716  1.00  0.00     0.032 A 
HETATM   26  C17 UNL     1      27.073   4.448  49.093  1.00  0.00     0.018 A 
HETATM   27  C18 UNL     1      26.104   3.541  49.478  1.00  0.00     0.025 A 
HETATM   28  C19 UNL     1      24.750   3.876  49.495  1.00  0.00     0.034 A 
HETATM   29 CL1  UNL     1      23.590   2.656  49.999  1.00  0.00    -0.084 Cl
HETATM   30  C20 UNL     1      24.357   5.161  49.113  1.00  0.00     0.025 A 
HETATM   31  C21 UNL     1      25.342   6.051  48.732  1.00  0.00     0.018 A 
ENDBRANCH  22  25
ENDBRANCH  19  21
ENDBRANCH   3  18
TORSDOF 5
ENDMDL
MODEL 3
REMARK VINA RESULT:      -7.2      4.613      9.130
REMARK  5 active torsions:
REMARK  status: ('A' for Active; 'I' for Inactive)
REMARK    1  A    between atoms: P1_2  and  N1_3 
REMARK    2  A    between atoms: N4_13  and  C9_14 
REMARK    3  A    between atoms: C11_16  and  C12_17 
REMARK    4  A    between atoms: C13_18  and  N5_20 
REMARK       I    between atoms: N5_20  and  C15_21 
REMARK    5  A    between atoms: C15_21  and  C16_23 
ROOT
HETATM    1  C9  UNL     1      22.854   6.672  50.537  1.00  0.00     0.031 C 
HETATM    2  C10 UNL     1      21.534   7.152  51.019  1.00  0.00     0.070 C 
HETATM    3  C11 UNL     1      23.924   7.414  50.560  1.00  0.00     0.028 C 
ENDROOT
BRANCH   1   4
HETATM    4  N4  UNL     1      22.847   5.340  50.049  1.00  0.00    -0.254 N 
HETATM    5  N1  UNL     1      22.567   5.200  48.664  1.00  0.00    -0.247 N 
HETATM    6  C2  UNL     1      22.622   3.827  48.338  1.00  0.00     0.150 A 
HETATM    7  N2  UNL     1      22.724   2.438  47.872  1.00  0.00    -0.255 NA
HETATM    8  C3  UNL     1      22.301   2.724  49.175  1.00  0.00     0.217 A 
HETATM    9  C4  UNL     1      23.073   2.824  50.417  1.00  0.00     0.020 A 
HETATM   10  C5  UNL     1      23.556   1.812  51.188  1.00  0.00     0.128 A 
HETATM   11  C8  UNL     1      23.091   4.142  50.816  1.00  0.00     0.068 A 
HETATM   12  N3  UNL     1      24.057   2.140  52.381  1.00  0.00    -0.272 NA
HETATM   13  C6  UNL     1      24.082   3.404  52.799  1.00  0.00     0.118 A 
HETATM   14  C7  UNL     1      23.611   4.512  52.075  1.00  0.00     0.051 A 
BRANCH   5  15
HETATM   15  P1  UNL     1      22.204   6.455  47.470  1.00  0.00    -0.004 P 
HETATM   16  C1  UNL     1      23.717   7.272  46.796  1.00  0.00     0.066 C 
HETATM   17  H4  UNL     1      21.190   7.390  47.863  1.00  0.00     0.082 HD
ENDBRANCH   5  15
ENDBRANCH   1   4
BRANCH   3  18
HETATM   18  C12 UNL     1      25.194   6.889  50.073  1.00  0.00     0.026 C 
HETATM   19  C13 UNL     1      26.189   7.699  49.822  1.00  0.00     0.008 C 
HETATM   20  C14 UNL     1      26.009   9.158  50.040  1.00  0.00     0.068 C 
BRANCH  19  21
HETATM   21  N5  UNL     1      27.439   7.217  49.346  1.00  0.00    -0.327 N 
HETATM   22  C15 UNL     1      27.917   7.194  48.021  1.00  0.00     0.255 C 
HETATM   23  O1  UNL     1      27.110   7.668  47.169  1.00  0.00    -0.267 OA
HETATM   24  H17 UNL     1      27.993   6.861  50.154  1.00  0.00     0.169 HD
BRANCH  22  25
HETATM   25  C16 UNL     1      29.239   6.657  47.704  1.00  0.00     0.032 A 
HETATM   26  C17 UNL     1      29.737   5.441  48.124  1.00  0.00     0.018 A 
HETATM   27  C18 UNL     1      31.012   5.068  47.741  1.00  0.00     0.025 A 
HETATM   28  C19 UNL     1      31.808   5.890  46.943  1.00  0.00     0.034 A 
HETATM   29 CL1  UNL     1      33.417   5.333  46.507  1.00  0.00    -0.084 Cl
HETATM   30  C20 UNL     1      31.309   7.124  46.517  1.00  0.00     0.025 A 
HETATM   31  C21 UNL     1      30.032   7.474  46.911  1.00  0.00     0.018 A 
ENDBRANCH  22  25
ENDBRANCH  19  21
ENDBRANCH   3  18
TORSDOF 5
ENDMDL
MODEL 4
REMARK VINA RESULT:      -7.1      1.779      2.628
REMARK  5 active torsions:
REMARK  status: ('A' for Active; 'I' for Inactive)
REMARK    1  A    between atoms: P1_2  and  N1_3 
REMARK    2  A    between atoms: N4_13  and  C9_14 
REMARK    3  A    between atoms: C11_16  and  C12_17 
REMARK    4  A    between atoms: C13_18  and  N5_20 
REMARK       I    between atoms: N5_20  and  C15_21 
REMARK    5  A    between atoms: C15_21  and  C16_23 
ROOT
HETATM    1  C9  UNL     1      33.396   8.026  44.469  1.00  0.00     0.031 C 
HETATM    2  C10 UNL     1      34.526   8.748  43.831  1.00  0.00     0.070 C 
HETATM    3  C11 UNL     1      32.174   8.474  44.447  1.00  0.00     0.028 C 
ENDROOT
BRANCH   1   4
HETATM    4  N4  UNL     1      33.764   6.811  45.102  1.00  0.00    -0.254 N 
HETATM    5  N1  UNL     1      33.769   5.664  44.264  1.00  0.00    -0.247 N 
HETATM    6  C2  UNL     1      34.177   4.554  45.035  1.00  0.00     0.150 A 
HETATM    7  N2  UNL     1      34.660   3.348  45.720  1.00  0.00    -0.255 NA
HETATM    8  C3  UNL     1      33.963   4.338  46.423  1.00  0.00     0.217 A 
HETATM    9  C4  UNL     1      34.464   5.493  47.173  1.00  0.00     0.020 A 
HETATM   10  C5  UNL     1      35.013   5.511  48.418  1.00  0.00     0.128 A 
HETATM   11  C8  UNL     1      34.124   6.639  46.489  1.00  0.00     0.068 A 
HETATM   12  N3  UNL     1      35.213   6.705  48.979  1.00  0.00    -0.272 NA
HETATM   13  C6  UNL     1      34.889   7.832  48.347  1.00  0.00     0.118 A 
HETATM   14  C7  UNL     1      34.323   7.913  47.064  1.00  0.00     0.051 A 
BRANCH   5  15
HETATM   15  P1  UNL     1      33.356   5.540  42.547  1.00  0.00    -0.004 P 
HETATM   16  C1  UNL     1      34.823   5.706  41.437  1.00  0.00     0.066 C 
HETATM   17  H4  UNL     1      32.245   6.345  42.131  1.00  0.00     0.082 HD
ENDBRANCH   5  15
ENDBRANCH   1   4
BRANCH   3  18
HETATM   18  C12 UNL     1      31.103   7.723  45.091  1.00  0.00     0.026 C 
HETATM   19  C13 UNL     1      30.149   8.349  45.728  1.00  0.00     0.008 C 
HETATM   20  C14 UNL     1      30.170   9.834  45.788  1.00  0.00     0.068 C 
BRANCH  19  21
HETATM   21  N5  UNL     1      29.092   7.644  46.366  1.00  0.00    -0.327 N 
HETATM   22  C15 UNL     1      29.051   7.136  47.679  1.00  0.00     0.255 C 
HETATM   23  O1  UNL     1      30.100   7.348  48.352  1.00  0.00    -0.267 OA
HETATM   24  H17 UNL     1      28.300   7.545  45.695  1.00  0.00     0.169 HD
BRANCH  22  25
HETATM   25  C16 UNL     1      27.873   6.428  48.178  1.00  0.00     0.032 A 
HETATM   26  C17 UNL     1      26.606   6.959  48.304  1.00  0.00     0.018 A 
HETATM   27  C18 UNL     1      25.588   6.163  48.795  1.00  0.00     0.025 A 
HETATM   28  C19 UNL     1      25.809   4.837  49.167  1.00  0.00     0.034 A 
HETATM   29 CL1  UNL     1      24.455   3.901  49.782  1.00  0.00    -0.084 Cl
HETATM   30  C20 UNL     1      27.091   4.294  49.043  1.00  0.00     0.025 A 
HETATM   31  C21 UNL     1      28.092   5.109  48.550  1.00  0.00     0.018 A 
ENDBRANCH  22  25
ENDBRANCH  19  21
ENDBRANCH   3  18
TORSDOF 5
ENDMDL
MODEL 5
REMARK VINA RESULT:      -6.9      4.816      9.632
REMARK  5 active torsions:
REMARK  status: ('A' for Active; 'I' for Inactive)
REMARK    1  A    between atoms: P1_2  and  N1_3 
REMARK    2  A    between atoms: N4_13  and  C9_14 
REMARK    3  A    between atoms: C11_16  and  C12_17 
REMARK    4  A    between atoms: C13_18  and  N5_20 
REMARK       I    between atoms: N5_20  and  C15_21 
REMARK    5  A    between atoms: C15_21  and  C16_23 
ROOT
HETATM    1  C9  UNL     1      22.812   6.855  50.342  1.00  0.00     0.031 C 
HETATM    2  C10 UNL     1      21.503   7.377  50.811  1.00  0.00     0.070 C 
HETATM    3  C11 UNL     1      23.917   7.537  50.437  1.00  0.00     0.028 C 
ENDROOT
BRANCH   1   4
HETATM    4  N4  UNL     1      22.752   5.553  49.783  1.00  0.00    -0.254 N 
HETATM    5  N1  UNL     1      22.955   4.486  50.699  1.00  0.00    -0.247 N 
HETATM    6  C2  UNL     1      22.840   3.269  49.993  1.00  0.00     0.150 A 
HETATM    7  N2  UNL     1      22.669   1.946  49.378  1.00  0.00    -0.255 NA
HETATM    8  C3  UNL     1      23.169   3.022  48.633  1.00  0.00     0.217 A 
HETATM    9  C4  UNL     1      22.466   3.989  47.786  1.00  0.00     0.020 A 
HETATM   10  C5  UNL     1      21.992   3.810  46.523  1.00  0.00     0.128 A 
HETATM   11  C8  UNL     1      22.511   5.221  48.399  1.00  0.00     0.068 A 
HETATM   12  N3  UNL     1      21.565   4.893  45.872  1.00  0.00    -0.272 NA
HETATM   13  C6  UNL     1      21.601   6.100  46.434  1.00  0.00     0.118 A 
HETATM   14  C7  UNL     1      22.068   6.382  47.729  1.00  0.00     0.051 A 
BRANCH   5  15
HETATM   15  P1  UNL     1      23.295   4.560  52.434  1.00  0.00    -0.004 P 
HETATM   16  C1  UNL     1      24.195   3.074  53.060  1.00  0.00     0.066 C 
HETATM   17  H4  UNL     1      22.177   4.925  53.256  1.00  0.00     0.082 HD
ENDBRANCH   5  15
ENDBRANCH   1   4
BRANCH   3  18
HETATM   18  C12 UNL     1      25.173   6.973  49.959  1.00  0.00     0.026 C 
HETATM   19  C13 UNL     1      26.211   7.745  49.769  1.00  0.00     0.008 C 
HETATM   20  C14 UNL     1      26.094   9.200  50.044  1.00  0.00     0.068 C 
BRANCH  19  21
HETATM   21  N5  UNL     1      27.450   7.224  49.303  1.00  0.00    -0.327 N 
HETATM   22  C15 UNL     1      27.957   7.224  47.989  1.00  0.00     0.255 C 
HETATM   23  O1  UNL     1      27.192   7.762  47.137  1.00  0.00    -0.267 OA
HETATM   24  H17 UNL     1      27.968   6.816  50.110  1.00  0.00     0.169 HD
BRANCH  22  25
HETATM   25  C16 UNL     1      29.261   6.640  47.683  1.00  0.00     0.032 A 
HETATM   26  C17 UNL     1      29.702   5.395  48.083  1.00  0.00     0.018 A 
HETATM   27  C18 UNL     1      30.967   4.979  47.714  1.00  0.00     0.025 A 
HETATM   28  C19 UNL     1      31.810   5.784  46.948  1.00  0.00     0.034 A 
HETATM   29 CL1  UNL     1      33.402   5.170  46.527  1.00  0.00    -0.084 Cl
HETATM   30  C20 UNL     1      31.369   7.046  46.541  1.00  0.00     0.025 A 
HETATM   31  C21 UNL     1      30.101   7.441  46.921  1.00  0.00     0.018 A 
ENDBRANCH  22  25
ENDBRANCH  19  21
ENDBRANCH   3  18
TORSDOF 5
ENDMDL
MODEL 6
REMARK VINA RESULT:      -6.9     12.642     16.432
REMARK  5 active torsions:
REMARK  status: ('A' for Active; 'I' for Inactive)
REMARK    1  A    between atoms: P1_2  and  N1_3 
REMARK    2  A    between atoms: N4_13  and  C9_14 
REMARK    3  A    between atoms: C11_16  and  C12_17 
REMARK    4  A    between atoms: C13_18  and  N5_20 
REMARK       I    between atoms: N5_20  and  C15_21 
REMARK    5  A    between atoms: C15_21  and  C16_23 
ROOT
HETATM    1  C9  UNL     1      15.716   3.642  50.634  1.00  0.00     0.031 C 
HETATM    2  C10 UNL     1      14.683   4.301  49.795  1.00  0.00     0.070 C 
HETATM    3  C11 UNL     1      16.928   4.102  50.749  1.00  0.00     0.028 C 
ENDROOT
BRANCH   1   4
HETATM    4  N4  UNL     1      15.268   2.470  51.296  1.00  0.00    -0.254 N 
HETATM    5  N1  UNL     1      14.591   2.686  52.526  1.00  0.00    -0.247 N 
HETATM    6  C2  UNL     1      14.192   1.431  53.038  1.00  0.00     0.150 A 
HETATM    7  N2  UNL     1      13.666   0.193  53.626  1.00  0.00    -0.255 NA
HETATM    8  C3  UNL     1      14.846   0.181  52.873  1.00  0.00     0.217 A 
HETATM    9  C4  UNL     1      15.051  -0.069  51.443  1.00  0.00     0.020 A 
HETATM   10  C5  UNL     1      15.056  -1.265  50.793  1.00  0.00     0.128 A 
HETATM   11  C8  UNL     1      15.434   1.109  50.843  1.00  0.00     0.068 A 
HETATM   12  N3  UNL     1      15.462  -1.266  49.522  1.00  0.00    -0.272 NA
HETATM   13  C6  UNL     1      15.846  -0.145  48.915  1.00  0.00     0.118 A 
HETATM   14  C7  UNL     1      15.871   1.132  49.501  1.00  0.00     0.051 A 
BRANCH   5  15
HETATM   15  P1  UNL     1      14.252   4.212  53.356  1.00  0.00    -0.004 P 
HETATM   16  C1  UNL     1      12.453   4.623  53.409  1.00  0.00     0.066 C 
HETATM   17  H4  UNL     1      15.068   5.318  52.946  1.00  0.00     0.082 HD
ENDBRANCH   5  15
ENDBRANCH   1   4
BRANCH   3  18
HETATM   18  C12 UNL     1      17.901   3.413  51.587  1.00  0.00     0.026 C 
HETATM   19  C13 UNL     1      18.941   2.832  51.048  1.00  0.00     0.008 C 
HETATM   20  C14 UNL     1      19.118   2.882  49.574  1.00  0.00     0.068 C 
BRANCH  19  21
HETATM   21  N5  UNL     1      19.907   2.151  51.839  1.00  0.00    -0.327 N 
HETATM   22  C15 UNL     1      19.952   0.784  52.174  1.00  0.00     0.255 C 
HETATM   23  O1  UNL     1      19.002   0.099  51.697  1.00  0.00    -0.267 OA
HETATM   24  H17 UNL     1      20.623   2.837  52.161  1.00  0.00     0.169 HD
BRANCH  22  25
HETATM   25  C16 UNL     1      21.026   0.245  53.007  1.00  0.00     0.032 A 
HETATM   26  C17 UNL     1      20.860  -0.464  54.179  1.00  0.00     0.018 A 
HETATM   27  C18 UNL     1      21.977  -0.911  54.859  1.00  0.00     0.025 A 
HETATM   28  C19 UNL     1      23.268  -0.662  54.393  1.00  0.00     0.034 A 
HETATM   29 CL1  UNL     1      24.628  -1.268  55.326  1.00  0.00    -0.084 Cl
HETATM   30  C20 UNL     1      23.442   0.058  53.208  1.00  0.00     0.025 A 
HETATM   31  C21 UNL     1      22.311   0.493  52.545  1.00  0.00     0.018 A 
ENDBRANCH  22  25
ENDBRANCH  19  21
ENDBRANCH   3  18
TORSDOF 5
ENDMDL
MODEL 7
REMARK VINA RESULT:      -6.7      1.661      3.184
REMARK  5 active torsions:
REMARK  status: ('A' for Active; 'I' for Inactive)
REMARK    1  A    between atoms: P1_2  and  N1_3 
REMARK    2  A    between atoms: N4_13  and  C9_14 
REMARK    3  A    between atoms: C11_16  and  C12_17 
REMARK    4  A    between atoms: C13_18  and  N5_20 
REMARK       I    between atoms: N5_20  and  C15_21 
REMARK    5  A    between atoms: C15_21  and  C16_23 
ROOT
HETATM    1  C9  UNL     1      33.728   8.263  46.055  1.00  0.00     0.031 C 
HETATM    2  C10 UNL     1      34.777   9.163  45.511  1.00  0.00     0.070 C 
HETATM    3  C11 UNL     1      32.711   8.701  46.738  1.00  0.00     0.028 C 
ENDROOT
BRANCH   1   4
HETATM    4  N4  UNL     1      33.932   6.889  45.765  1.00  0.00    -0.254 N 
HETATM    5  N1  UNL     1      34.391   6.099  46.853  1.00  0.00    -0.247 N 
HETATM    6  C2  UNL     1      34.518   4.765  46.408  1.00  0.00     0.150 A 
HETATM    7  N2  UNL     1      34.616   3.338  46.077  1.00  0.00    -0.255 NA
HETATM    8  C3  UNL     1      34.847   4.315  45.101  1.00  0.00     0.217 A 
HETATM    9  C4  UNL     1      33.924   4.922  44.138  1.00  0.00     0.020 A 
HETATM   10  C5  UNL     1      33.457   4.393  42.974  1.00  0.00     0.128 A 
HETATM   11  C8  UNL     1      33.722   6.237  44.495  1.00  0.00     0.068 A 
HETATM   12  N3  UNL     1      32.785   5.208  42.160  1.00  0.00    -0.272 NA
HETATM   13  C6  UNL     1      32.579   6.487  42.472  1.00  0.00     0.118 A 
HETATM   14  C7  UNL     1      33.017   7.119  43.648  1.00  0.00     0.051 A 
BRANCH   5  15
HETATM   15  P1  UNL     1      34.765   6.598  48.510  1.00  0.00    -0.004 P 
HETATM   16  C1  UNL     1      36.177   7.783  48.607  1.00  0.00     0.066 C 
HETATM   17  H4  UNL     1      34.867   5.525  49.457  1.00  0.00     0.082 HD
ENDBRANCH   5  15
ENDBRANCH   1   4
BRANCH   3  18
HETATM   18  C12 UNL     1      31.711   7.771  47.248  1.00  0.00     0.026 C 
HETATM   19  C13 UNL     1      30.495   7.784  46.769  1.00  0.00     0.008 C 
HETATM   20  C14 UNL     1      30.145   8.757  45.702  1.00  0.00     0.068 C 
BRANCH  19  21
HETATM   21  N5  UNL     1      29.497   6.890  47.246  1.00  0.00    -0.327 N 
HETATM   22  C15 UNL     1      28.397   7.174  48.078  1.00  0.00     0.255 C 
HETATM   23  O1  UNL     1      28.310   8.386  48.429  1.00  0.00    -0.267 OA
HETATM   24  H17 UNL     1      29.697   5.935  46.878  1.00  0.00     0.169 HD
BRANCH  22  25
HETATM   25  C16 UNL     1      27.460   6.125  48.477  1.00  0.00     0.032 A 
HETATM   26  C17 UNL     1      27.788   4.812  48.748  1.00  0.00     0.018 A 
HETATM   27  C18 UNL     1      26.787   3.931  49.115  1.00  0.00     0.025 A 
HETATM   28  C19 UNL     1      25.456   4.335  49.218  1.00  0.00     0.034 A 
HETATM   29 CL1  UNL     1      24.253   3.145  49.691  1.00  0.00    -0.084 Cl
HETATM   30  C20 UNL     1      25.119   5.663  48.944  1.00  0.00     0.025 A 
HETATM   31  C21 UNL     1      26.136   6.525  48.580  1.00  0.00     0.018 A 
ENDBRANCH  22  25
ENDBRANCH  19  21
ENDBRANCH   3  18
TORSDOF 5
ENDMDL
MODEL 8
REMARK VINA RESULT:      -6.6      8.725     10.694
REMARK  5 active torsions:
REMARK  status: ('A' for Active; 'I' for Inactive)
REMARK    1  A    between atoms: P1_2  and  N1_3 
REMARK    2  A    between atoms: N4_13  and  C9_14 
REMARK    3  A    between atoms: C11_16  and  C12_17 
REMARK    4  A    between atoms: C13_18  and  N5_20 
REMARK       I    between atoms: N5_20  and  C15_21 
REMARK    5  A    between atoms: C15_21  and  C16_23 
ROOT
HETATM    1  C9  UNL     1      21.855   6.208  50.328  1.00  0.00     0.031 C 
HETATM    2  C10 UNL     1      20.823   7.265  50.179  1.00  0.00     0.070 C 
HETATM    3  C11 UNL     1      22.808   6.274  51.212  1.00  0.00     0.028 C 
ENDROOT
BRANCH   1   4
HETATM    4  N4  UNL     1      21.713   5.124  49.423  1.00  0.00    -0.254 N 
HETATM    5  N1  UNL     1      22.408   5.264  48.191  1.00  0.00    -0.247 N 
HETATM    6  C2  UNL     1      22.184   4.100  47.423  1.00  0.00     0.150 A 
HETATM    7  N2  UNL     1      22.081   2.909  46.570  1.00  0.00    -0.255 NA
HETATM    8  C3  UNL     1      21.031   3.271  47.422  1.00  0.00     0.217 A 
HETATM    9  C4  UNL     1      20.741   2.849  48.795  1.00  0.00     0.020 A 
HETATM   10  C5  UNL     1      20.192   1.677  49.215  1.00  0.00     0.128 A 
HETATM   11  C8  UNL     1      20.944   3.922  49.635  1.00  0.00     0.068 A 
HETATM   12  N3  UNL     1      19.837   1.594  50.498  1.00  0.00    -0.272 NA
HETATM   13  C6  UNL     1      20.012   2.616  51.334  1.00  0.00     0.118 A 
HETATM   14  C7  UNL     1      20.573   3.859  50.995  1.00  0.00     0.051 A 
BRANCH   5  15
HETATM   15  P1  UNL     1      23.404   6.612  47.623  1.00  0.00    -0.004 P 
HETATM   16  C1  UNL     1      22.434   7.902  46.727  1.00  0.00     0.066 C 
HETATM   17  H4  UNL     1      24.602   6.230  46.932  1.00  0.00     0.082 HD
ENDBRANCH   5  15
ENDBRANCH   1   4
BRANCH   3  18
HETATM   18  C12 UNL     1      23.795   5.205  51.313  1.00  0.00     0.026 C 
HETATM   19  C13 UNL     1      23.964   4.568  52.441  1.00  0.00     0.008 C 
HETATM   20  C14 UNL     1      23.139   4.946  53.618  1.00  0.00     0.068 C 
BRANCH  19  21
HETATM   21  N5  UNL     1      24.918   3.522  52.570  1.00  0.00    -0.327 N 
HETATM   22  C15 UNL     1      24.694   2.132  52.570  1.00  0.00     0.255 C 
HETATM   23  O1  UNL     1      23.480   1.801  52.436  1.00  0.00    -0.267 OA
HETATM   24  H17 UNL     1      25.867   3.943  52.672  1.00  0.00     0.169 HD
BRANCH  22  25
HETATM   25  C16 UNL     1      25.800   1.188  52.716  1.00  0.00     0.032 A 
HETATM   26  C17 UNL     1      25.736  -0.171  52.486  1.00  0.00     0.018 A 
HETATM   27  C18 UNL     1      26.872  -0.938  52.668  1.00  0.00     0.025 A 
HETATM   28  C19 UNL     1      28.079  -0.375  53.078  1.00  0.00     0.034 A 
HETATM   29 CL1  UNL     1      29.470  -1.429  53.284  1.00  0.00    -0.084 Cl
HETATM   30  C20 UNL     1      28.149   1.001  53.314  1.00  0.00     0.025 A 
HETATM   31  C21 UNL     1      27.003   1.747  53.125  1.00  0.00     0.018 A 
ENDBRANCH  22  25
ENDBRANCH  19  21
ENDBRANCH   3  18
TORSDOF 5
ENDMDL
MODEL 9
REMARK VINA RESULT:      -6.5      7.948     10.940
REMARK  5 active torsions:
REMARK  status: ('A' for Active; 'I' for Inactive)
REMARK    1  A    between atoms: P1_2  and  N1_3 
REMARK    2  A    between atoms: N4_13  and  C9_14 
REMARK    3  A    between atoms: C11_16  and  C12_17 
REMARK    4  A    between atoms: C13_18  and  N5_20 
REMARK       I    between atoms: N5_20  and  C15_21 
REMARK    5  A    between atoms: C15_21  and  C16_23 
ROOT
HETATM    1  C9  UNL     1      22.990   6.415  47.435  1.00  0.00     0.031 C 
HETATM    2  C10 UNL     1      23.333   7.556  46.549  1.00  0.00     0.070 C 
HETATM    3  C11 UNL     1      23.882   5.771  48.130  1.00  0.00     0.028 C 
ENDROOT
BRANCH   1   4
HETATM    4  N4  UNL     1      21.609   6.090  47.456  1.00  0.00    -0.254 N 
HETATM    5  N1  UNL     1      20.831   6.798  48.410  1.00  0.00    -0.247 N 
HETATM    6  C2  UNL     1      19.488   6.379  48.285  1.00  0.00     0.150 A 
HETATM    7  N2  UNL     1      18.055   6.073  48.194  1.00  0.00    -0.255 NA
HETATM    8  C3  UNL     1      19.014   5.100  47.888  1.00  0.00     0.217 A 
HETATM    9  C4  UNL     1      19.617   4.742  46.602  1.00  0.00     0.020 A 
HETATM   10  C5  UNL     1      19.075   3.999  45.598  1.00  0.00     0.128 A 
HETATM   11  C8  UNL     1      20.940   5.126  46.617  1.00  0.00     0.068 A 
HETATM   12  N3  UNL     1      19.885   3.634  44.603  1.00  0.00    -0.272 NA
HETATM   13  C6  UNL     1      21.171   3.983  44.592  1.00  0.00     0.118 A 
HETATM   14  C7  UNL     1      21.816   4.748  45.577  1.00  0.00     0.051 A 
BRANCH   5  15
HETATM   15  P1  UNL     1      21.351   8.012  49.589  1.00  0.00    -0.004 P 
HETATM   16  C1  UNL     1      21.263   9.738  48.938  1.00  0.00     0.066 C 
HETATM   17  H4  UNL     1      22.592   7.724  50.248  1.00  0.00     0.082 HD
ENDBRANCH   5  15
ENDBRANCH   1   4
BRANCH   3  18
HETATM   18  C12 UNL     1      23.487   4.658  48.984  1.00  0.00     0.026 C 
HETATM   19  C13 UNL     1      24.389   3.986  49.650  1.00  0.00     0.008 C 
HETATM   20  C14 UNL     1      25.819   4.370  49.526  1.00  0.00     0.068 C 
BRANCH  19  21
HETATM   21  N5  UNL     1      24.034   2.895  50.490  1.00  0.00    -0.327 N 
HETATM   22  C15 UNL     1      23.735   2.915  51.866  1.00  0.00     0.255 C 
HETATM   23  O1  UNL     1      23.797   4.063  52.394  1.00  0.00    -0.267 OA
HETATM   24  H17 UNL     1      24.024   2.021  49.921  1.00  0.00     0.169 HD
BRANCH  22  25
HETATM   25  C16 UNL     1      23.388   1.689  52.583  1.00  0.00     0.032 A 
HETATM   26  C17 UNL     1      24.284   0.764  53.078  1.00  0.00     0.018 A 
HETATM   27  C18 UNL     1      23.803  -0.352  53.737  1.00  0.00     0.025 A 
HETATM   28  C19 UNL     1      22.436  -0.568  53.912  1.00  0.00     0.034 A 
HETATM   29 CL1  UNL     1      21.917  -2.016  54.762  1.00  0.00    -0.084 Cl
HETATM   30  C20 UNL     1      21.525   0.366  53.411  1.00  0.00     0.025 A 
HETATM   31  C21 UNL     1      22.028   1.473  52.757  1.00  0.00     0.018 A 
ENDBRANCH  22  25
ENDBRANCH  19  21
ENDBRANCH   3  18
TORSDOF 5
ENDMDL
