MODEL 1
REMARK VINA RESULT:      -8.5      0.000      0.000
REMARK  3 active torsions:
REMARK  status: ('A' for Active; 'I' for Inactive)
REMARK    1  A    between atoms: C6_7  and  C7_8 
REMARK    2  A    between atoms: C7_8  and  N2_9 
REMARK    3  A    between atoms: N2_9  and  C8_10 
ROOT
HETATM    1  C8  UNL     1      22.581   2.439  51.498  1.00  0.00     0.136 A 
HETATM    2  N3  UNL     1      21.439   3.016  51.726  1.00  0.00    -0.224 NA
HETATM    3  C9  UNL     1      21.384   4.424  51.896  1.00  0.00     0.232 A 
HETATM    4  N4  UNL     1      22.329   5.269  51.861  1.00  0.00    -0.242 NA
HETATM    5  C10 UNL     1      23.686   4.834  51.623  1.00  0.00     0.384 A 
HETATM    6  C11 UNL     1      23.691   3.382  51.433  1.00  0.00     0.057 A 
HETATM    7  C12 UNL     1      24.915   2.960  51.169  1.00  0.00     0.102 C 
HETATM    8  N5  UNL     1      26.146   3.699  51.057  1.00  0.00    -0.373 N 
HETATM    9  C13 UNL     1      26.856   3.760  49.836  1.00  0.00     0.104 C 
HETATM   10  C14 UNL     1      27.034   4.694  48.919  1.00  0.00     0.100 C 
HETATM   11  N6  UNL     1      26.449   5.974  49.044  1.00  0.00    -0.393 N 
HETATM   12  C15 UNL     1      25.426   6.916  48.723  1.00  0.00     0.084 C 
HETATM   13  C16 UNL     1      24.130   6.281  48.297  1.00  0.00     0.055 C 
HETATM   14  C17 UNL     1      23.365   5.734  49.482  1.00  0.00     0.277 C 
HETATM   15  N7  UNL     1      24.329   5.553  50.548  1.00  0.00     0.118 N 
HETATM   16  C18 UNL     1      24.657   6.899  51.039  1.00  0.00     0.277 C 
HETATM   17  C19 UNL     1      25.132   7.792  49.940  1.00  0.00     0.055 C 
HETATM   18  H13 UNL     1      26.625   4.241  51.815  1.00  0.00     0.164 HD
HETATM   19  H16 UNL     1      27.188   6.346  49.709  1.00  0.00     0.159 HD
ENDROOT
BRANCH   1  20
HETATM   20  N2  UNL     1      22.751   1.043  51.314  1.00  0.00    -0.370 N 
HETATM   21  H9  UNL     1      23.280   0.736  50.491  1.00  0.00     0.161 HD
BRANCH  20  22
HETATM   22  C7  UNL     1      22.167   0.158  52.299  1.00  0.00     0.160 C 
BRANCH  22  23
HETATM   23  C6  UNL     1      23.145  -0.279  53.311  1.00  0.00    -0.032 A 
HETATM   24  C2  UNL     1      22.690  -0.942  54.427  1.00  0.00    -0.036 A 
HETATM   25  C1  UNL     1      21.269  -1.259  54.698  1.00  0.00     0.050 C 
HETATM   26  C3  UNL     1      23.548  -1.380  55.415  1.00  0.00     0.123 A 
HETATM   27  N1  UNL     1      24.887  -1.167  55.314  1.00  0.00    -0.273 NA
HETATM   28  C4  UNL     1      25.372  -0.521  54.237  1.00  0.00     0.117 A 
HETATM   29  C5  UNL     1      24.521  -0.076  53.239  1.00  0.00     0.028 A 
ENDBRANCH  22  23
ENDBRANCH  20  22
ENDBRANCH   1  20
TORSDOF 3
ENDMDL
MODEL 2
REMARK VINA RESULT:      -8.5      2.726      5.276
REMARK  3 active torsions:
REMARK  status: ('A' for Active; 'I' for Inactive)
REMARK    1  A    between atoms: C6_7  and  C7_8 
REMARK    2  A    between atoms: C7_8  and  N2_9 
REMARK    3  A    between atoms: N2_9  and  C8_10 
ROOT
HETATM    1  C8  UNL     1      24.200   0.614  53.361  1.00  0.00     0.136 A 
HETATM    2  N3  UNL     1      23.784  -0.594  53.598  1.00  0.00    -0.224 NA
HETATM    3  C9  UNL     1      22.413  -0.913  53.422  1.00  0.00     0.232 A 
HETATM    4  N4  UNL     1      21.461  -0.163  53.049  1.00  0.00    -0.242 NA
HETATM    5  C10 UNL     1      21.708   1.226  52.737  1.00  0.00     0.384 A 
HETATM    6  C11 UNL     1      23.136   1.503  52.911  1.00  0.00     0.057 A 
HETATM    7  C12 UNL     1      23.400   2.758  52.590  1.00  0.00     0.102 C 
HETATM    8  N5  UNL     1      22.521   3.801  52.128  1.00  0.00    -0.373 N 
HETATM    9  C13 UNL     1      22.670   4.369  50.843  1.00  0.00     0.104 C 
HETATM   10  C14 UNL     1      22.000   4.273  49.708  1.00  0.00     0.100 C 
HETATM   11  N6  UNL     1      20.851   3.458  49.595  1.00  0.00    -0.393 N 
HETATM   12  C15 UNL     1      20.217   2.243  49.200  1.00  0.00     0.084 C 
HETATM   13  C16 UNL     1      21.152   1.067  49.129  1.00  0.00     0.055 C 
HETATM   14  C17 UNL     1      21.483   0.537  50.508  1.00  0.00     0.277 C 
HETATM   15  N7  UNL     1      21.206   1.612  51.439  1.00  0.00     0.118 N 
HETATM   16  C18 UNL     1      19.742   1.708  51.533  1.00  0.00     0.277 C 
HETATM   17  C19 UNL     1      19.109   1.893  50.193  1.00  0.00     0.055 C 
HETATM   18  H13 UNL     1      21.723   4.229  52.655  1.00  0.00     0.164 HD
HETATM   19  H16 UNL     1      20.196   4.165  50.038  1.00  0.00     0.159 HD
ENDROOT
BRANCH   1  20
HETATM   20  N2  UNL     1      25.544   1.042  53.504  1.00  0.00    -0.370 N 
HETATM   21  H9  UNL     1      25.792   1.542  54.365  1.00  0.00     0.161 HD
BRANCH  20  22
HETATM   22  C7  UNL     1      26.466   0.741  52.430  1.00  0.00     0.160 C 
BRANCH  22  23
HETATM   23  C6  UNL     1      27.323  -0.419  52.733  1.00  0.00    -0.032 A 
HETATM   24  C2  UNL     1      28.549  -0.199  53.318  1.00  0.00    -0.036 A 
HETATM   25  C1  UNL     1      29.086   1.133  53.674  1.00  0.00     0.050 C 
HETATM   26  C3  UNL     1      29.404  -1.237  53.629  1.00  0.00     0.123 A 
HETATM   27  N1  UNL     1      29.056  -2.524  53.365  1.00  0.00    -0.273 NA
HETATM   28  C4  UNL     1      27.864  -2.780  52.793  1.00  0.00     0.117 A 
HETATM   29  C5  UNL     1      26.998  -1.748  52.475  1.00  0.00     0.028 A 
ENDBRANCH  22  23
ENDBRANCH  20  22
ENDBRANCH   1  20
TORSDOF 3
ENDMDL
MODEL 3
REMARK VINA RESULT:      -8.4      2.637      5.726
REMARK  3 active torsions:
REMARK  status: ('A' for Active; 'I' for Inactive)
REMARK    1  A    between atoms: C6_7  and  C7_8 
REMARK    2  A    between atoms: C7_8  and  N2_9 
REMARK    3  A    between atoms: N2_9  and  C8_10 
ROOT
HETATM    1  C8  UNL     1      24.535   2.851  50.943  1.00  0.00     0.136 A 
HETATM    2  N3  UNL     1      24.491   3.656  49.923  1.00  0.00    -0.224 NA
HETATM    3  C9  UNL     1      23.437   3.538  48.980  1.00  0.00     0.232 A 
HETATM    4  N4  UNL     1      22.467   2.722  48.965  1.00  0.00    -0.242 NA
HETATM    5  C10 UNL     1      22.329   1.736  50.011  1.00  0.00     0.384 A 
HETATM    6  C11 UNL     1      23.423   1.908  50.971  1.00  0.00     0.057 A 
HETATM    7  C12 UNL     1      23.298   1.046  51.965  1.00  0.00     0.102 C 
HETATM    8  N5  UNL     1      22.297   0.039  52.197  1.00  0.00    -0.373 N 
HETATM    9  C13 UNL     1      21.438   0.103  53.318  1.00  0.00     0.104 C 
HETATM   10  C14 UNL     1      20.162   0.405  53.486  1.00  0.00     0.100 C 
HETATM   11  N6  UNL     1      19.337   0.762  52.396  1.00  0.00    -0.393 N 
HETATM   12  C15 UNL     1      18.687   1.747  51.594  1.00  0.00     0.084 C 
HETATM   13  C16 UNL     1      19.351   3.096  51.634  1.00  0.00     0.055 C 
HETATM   14  C17 UNL     1      20.606   3.122  50.788  1.00  0.00     0.277 C 
HETATM   15  N7  UNL     1      21.023   1.744  50.628  1.00  0.00     0.118 N 
HETATM   16  C18 UNL     1      20.076   1.135  49.683  1.00  0.00     0.277 C 
HETATM   17  C19 UNL     1      18.661   1.288  50.136  1.00  0.00     0.055 C 
HETATM   18  H13 UNL     1      22.101  -0.802  51.603  1.00  0.00     0.164 HD
HETATM   19  H16 UNL     1      19.163  -0.236  52.084  1.00  0.00     0.159 HD
ENDROOT
BRANCH   1  20
HETATM   20  N2  UNL     1      25.539   2.879  51.943  1.00  0.00    -0.370 N 
HETATM   21  H9  UNL     1      25.279   3.248  52.864  1.00  0.00     0.161 HD
BRANCH  20  22
HETATM   22  C7  UNL     1      26.853   2.385  51.592  1.00  0.00     0.160 C 
BRANCH  22  23
HETATM   23  C6  UNL     1      27.199   1.147  52.312  1.00  0.00    -0.032 A 
HETATM   24  C2  UNL     1      28.131   1.207  53.322  1.00  0.00    -0.036 A 
HETATM   25  C1  UNL     1      28.827   2.440  53.753  1.00  0.00     0.050 C 
HETATM   26  C3  UNL     1      28.503   0.088  54.039  1.00  0.00     0.123 A 
HETATM   27  N1  UNL     1      27.952  -1.125  53.764  1.00  0.00    -0.273 NA
HETATM   28  C4  UNL     1      27.037  -1.225  52.782  1.00  0.00     0.117 A 
HETATM   29  C5  UNL     1      26.655  -0.110  52.056  1.00  0.00     0.028 A 
ENDBRANCH  22  23
ENDBRANCH  20  22
ENDBRANCH   1  20
TORSDOF 3
ENDMDL
MODEL 4
REMARK VINA RESULT:      -8.3      1.750      7.075
REMARK  3 active torsions:
REMARK  status: ('A' for Active; 'I' for Inactive)
REMARK    1  A    between atoms: C6_7  and  C7_8 
REMARK    2  A    between atoms: C7_8  and  N2_9 
REMARK    3  A    between atoms: N2_9  and  C8_10 
ROOT
HETATM    1  C8  UNL     1      26.074   2.292  51.625  1.00  0.00     0.136 A 
HETATM    2  N3  UNL     1      26.529   1.081  51.752  1.00  0.00    -0.224 NA
HETATM    3  C9  UNL     1      25.785   0.124  52.489  1.00  0.00     0.232 A 
HETATM    4  N4  UNL     1      24.675   0.263  53.086  1.00  0.00    -0.242 NA
HETATM    5  C10 UNL     1      23.996   1.539  53.071  1.00  0.00     0.384 A 
HETATM    6  C11 UNL     1      24.788   2.487  52.284  1.00  0.00     0.057 A 
HETATM    7  C12 UNL     1      24.169   3.653  52.216  1.00  0.00     0.102 C 
HETATM    8  N5  UNL     1      22.911   4.068  52.780  1.00  0.00    -0.373 N 
HETATM    9  C13 UNL     1      21.826   4.444  51.955  1.00  0.00     0.104 C 
HETATM   10  C14 UNL     1      20.683   3.874  51.619  1.00  0.00     0.100 C 
HETATM   11  N6  UNL     1      20.317   2.603  52.114  1.00  0.00    -0.393 N 
HETATM   12  C15 UNL     1      20.200   1.189  51.960  1.00  0.00     0.084 C 
HETATM   13  C16 UNL     1      21.162   0.608  50.960  1.00  0.00     0.055 C 
HETATM   14  C17 UNL     1      22.561   0.509  51.530  1.00  0.00     0.277 C 
HETATM   15  N7  UNL     1      22.622   1.443  52.636  1.00  0.00     0.118 N 
HETATM   16  C18 UNL     1      21.845   0.840  53.728  1.00  0.00     0.277 C 
HETATM   17  C19 UNL     1      20.455   0.502  53.300  1.00  0.00     0.055 C 
HETATM   18  H13 UNL     1      22.670   4.135  53.797  1.00  0.00     0.164 HD
HETATM   19  H16 UNL     1      19.975   2.967  53.051  1.00  0.00     0.159 HD
ENDROOT
BRANCH   1  20
HETATM   20  N2  UNL     1      26.734   3.326  50.914  1.00  0.00    -0.370 N 
HETATM   21  H9  UNL     1      27.368   3.934  51.445  1.00  0.00     0.161 HD
BRANCH  20  22
HETATM   22  C7  UNL     1      26.468   3.446  49.497  1.00  0.00     0.160 C 
BRANCH  22  23
HETATM   23  C6  UNL     1      26.871   4.757  48.959  1.00  0.00    -0.032 A 
HETATM   24  C2  UNL     1      25.912   5.731  48.804  1.00  0.00    -0.036 A 
HETATM   25  C1  UNL     1      24.480   5.566  49.142  1.00  0.00     0.050 C 
HETATM   26  C3  UNL     1      26.217   6.982  48.305  1.00  0.00     0.123 A 
HETATM   27  N1  UNL     1      27.491   7.292  47.947  1.00  0.00    -0.273 NA
HETATM   28  C4  UNL     1      28.458   6.365  48.083  1.00  0.00     0.117 A 
HETATM   29  C5  UNL     1      28.165   5.108  48.582  1.00  0.00     0.028 A 
ENDBRANCH  22  23
ENDBRANCH  20  22
ENDBRANCH   1  20
TORSDOF 3
ENDMDL
MODEL 5
REMARK VINA RESULT:      -7.9      2.487      4.409
REMARK  3 active torsions:
REMARK  status: ('A' for Active; 'I' for Inactive)
REMARK    1  A    between atoms: C6_7  and  C7_8 
REMARK    2  A    between atoms: C7_8  and  N2_9 
REMARK    3  A    between atoms: N2_9  and  C8_10 
ROOT
HETATM    1  C8  UNL     1      25.672   2.375  51.215  1.00  0.00     0.136 A 
HETATM    2  N3  UNL     1      26.804   2.894  50.842  1.00  0.00    -0.224 NA
HETATM    3  C9  UNL     1      26.826   3.855  49.799  1.00  0.00     0.232 A 
HETATM    4  N4  UNL     1      25.860   4.323  49.123  1.00  0.00    -0.242 NA
HETATM    5  C10 UNL     1      24.510   3.874  49.377  1.00  0.00     0.384 A 
HETATM    6  C11 UNL     1      24.533   2.902  50.472  1.00  0.00     0.057 A 
HETATM    7  C12 UNL     1      23.305   2.506  50.757  1.00  0.00     0.102 C 
HETATM    8  N5  UNL     1      22.048   2.885  50.165  1.00  0.00    -0.373 N 
HETATM    9  C13 UNL     1      21.057   3.557  50.916  1.00  0.00     0.104 C 
HETATM   10  C14 UNL     1      20.610   4.799  50.950  1.00  0.00     0.100 C 
HETATM   11  N6  UNL     1      21.141   5.799  50.105  1.00  0.00    -0.393 N 
HETATM   12  C15 UNL     1      22.004   6.913  49.879  1.00  0.00     0.084 C 
HETATM   13  C16 UNL     1      23.185   6.964  50.810  1.00  0.00     0.055 C 
HETATM   14  C17 UNL     1      24.247   5.961  50.413  1.00  0.00     0.277 C 
HETATM   15  N7  UNL     1      23.585   4.961  49.599  1.00  0.00     0.118 N 
HETATM   16  C18 UNL     1      23.321   5.598  48.301  1.00  0.00     0.277 C 
HETATM   17  C19 UNL     1      22.544   6.865  48.450  1.00  0.00     0.055 C 
HETATM   18  H13 UNL     1      21.744   2.719  49.176  1.00  0.00     0.164 HD
HETATM   19  H16 UNL     1      20.572   5.513  49.258  1.00  0.00     0.159 HD
ENDROOT
BRANCH   1  20
HETATM   20  N2  UNL     1      25.534   1.408  52.243  1.00  0.00    -0.370 N 
HETATM   21  H9  UNL     1      24.663   0.865  52.267  1.00  0.00     0.161 HD
BRANCH  20  22
HETATM   22  C7  UNL     1      26.627   1.257  53.178  1.00  0.00     0.160 C 
BRANCH  22  23
HETATM   23  C6  UNL     1      27.251  -0.075  53.103  1.00  0.00    -0.032 A 
HETATM   24  C2  UNL     1      28.551  -0.222  53.530  1.00  0.00    -0.036 A 
HETATM   25  C1  UNL     1      29.389   0.873  54.070  1.00  0.00     0.050 C 
HETATM   26  C3  UNL     1      29.200  -1.439  53.489  1.00  0.00     0.123 A 
HETATM   27  N1  UNL     1      28.565  -2.546  53.019  1.00  0.00    -0.273 NA
HETATM   28  C4  UNL     1      27.292  -2.444  52.592  1.00  0.00     0.117 A 
HETATM   29  C5  UNL     1      26.630  -1.228  52.628  1.00  0.00     0.028 A 
ENDBRANCH  22  23
ENDBRANCH  20  22
ENDBRANCH   1  20
TORSDOF 3
ENDMDL
MODEL 6
REMARK VINA RESULT:      -7.9      2.659      3.965
REMARK  3 active torsions:
REMARK  status: ('A' for Active; 'I' for Inactive)
REMARK    1  A    between atoms: C6_7  and  C7_8 
REMARK    2  A    between atoms: C7_8  and  N2_9 
REMARK    3  A    between atoms: N2_9  and  C8_10 
ROOT
HETATM    1  C8  UNL     1      24.178   2.935  51.493  1.00  0.00     0.136 A 
HETATM    2  N3  UNL     1      23.668   1.868  50.954  1.00  0.00    -0.224 NA
HETATM    3  C9  UNL     1      22.442   1.955  50.246  1.00  0.00     0.232 A 
HETATM    4  N4  UNL     1      21.710   2.969  50.040  1.00  0.00    -0.242 NA
HETATM    5  C10 UNL     1      22.094   4.262  50.559  1.00  0.00     0.384 A 
HETATM    6  C11 UNL     1      23.372   4.128  51.262  1.00  0.00     0.057 A 
HETATM    7  C12 UNL     1      23.771   5.305  51.711  1.00  0.00     0.102 C 
HETATM    8  N5  UNL     1      23.148   6.599  51.602  1.00  0.00    -0.373 N 
HETATM    9  C13 UNL     1      23.764   7.652  50.889  1.00  0.00     0.104 C 
HETATM   10  C14 UNL     1      23.542   8.230  49.722  1.00  0.00     0.100 C 
HETATM   11  N6  UNL     1      22.485   7.814  48.881  1.00  0.00    -0.393 N 
HETATM   12  C15 UNL     1      21.998   7.077  47.760  1.00  0.00     0.084 C 
HETATM   13  C16 UNL     1      22.861   5.903  47.386  1.00  0.00     0.055 C 
HETATM   14  C17 UNL     1      22.661   4.742  48.336  1.00  0.00     0.277 C 
HETATM   15  N7  UNL     1      22.101   5.297  49.552  1.00  0.00     0.118 N 
HETATM   16  C18 UNL     1      20.705   5.636  49.245  1.00  0.00     0.277 C 
HETATM   17  C19 UNL     1      20.599   6.543  48.064  1.00  0.00     0.055 C 
HETATM   18  H13 UNL     1      22.228   6.889  52.011  1.00  0.00     0.164 HD
HETATM   19  H16 UNL     1      21.737   8.354  49.403  1.00  0.00     0.159 HD
ENDROOT
BRANCH   1  20
HETATM   20  N2  UNL     1      25.394   2.963  52.221  1.00  0.00    -0.370 N 
HETATM   21  H9  UNL     1      25.379   3.399  53.150  1.00  0.00     0.161 HD
BRANCH  20  22
HETATM   22  C7  UNL     1      26.563   2.374  51.604  1.00  0.00     0.160 C 
BRANCH  22  23
HETATM   23  C6  UNL     1      27.006   1.150  52.294  1.00  0.00    -0.032 A 
HETATM   24  C2  UNL     1      28.007   1.245  53.233  1.00  0.00    -0.036 A 
HETATM   25  C1  UNL     1      28.687   2.503  53.615  1.00  0.00     0.050 C 
HETATM   26  C3  UNL     1      28.472   0.141  53.918  1.00  0.00     0.123 A 
HETATM   27  N1  UNL     1      27.948  -1.091  53.681  1.00  0.00    -0.273 NA
HETATM   28  C4  UNL     1      26.967  -1.226  52.769  1.00  0.00     0.117 A 
HETATM   29  C5  UNL     1      26.492  -0.126  52.076  1.00  0.00     0.028 A 
ENDBRANCH  22  23
ENDBRANCH  20  22
ENDBRANCH   1  20
TORSDOF 3
ENDMDL
MODEL 7
REMARK VINA RESULT:      -7.8      2.198      3.376
REMARK  3 active torsions:
REMARK  status: ('A' for Active; 'I' for Inactive)
REMARK    1  A    between atoms: C6_7  and  C7_8 
REMARK    2  A    between atoms: C7_8  and  N2_9 
REMARK    3  A    between atoms: N2_9  and  C8_10 
ROOT
HETATM    1  C8  UNL     1      23.727   1.378  52.236  1.00  0.00     0.136 A 
HETATM    2  N3  UNL     1      22.578   0.857  52.552  1.00  0.00    -0.224 NA
HETATM    3  C9  UNL     1      21.418   1.674  52.572  1.00  0.00     0.232 A 
HETATM    4  N4  UNL     1      21.308   2.911  52.319  1.00  0.00    -0.242 NA
HETATM    5  C10 UNL     1      22.471   3.684  51.948  1.00  0.00     0.384 A 
HETATM    6  C11 UNL     1      23.638   2.799  51.919  1.00  0.00     0.057 A 
HETATM    7  C12 UNL     1      24.711   3.470  51.540  1.00  0.00     0.102 C 
HETATM    8  N5  UNL     1      24.858   4.857  51.182  1.00  0.00    -0.373 N 
HETATM    9  C13 UNL     1      25.243   5.241  49.877  1.00  0.00     0.104 C 
HETATM   10  C14 UNL     1      24.608   5.773  48.848  1.00  0.00     0.100 C 
HETATM   11  N6  UNL     1      23.232   6.088  48.910  1.00  0.00    -0.393 N 
HETATM   12  C15 UNL     1      21.867   5.780  48.630  1.00  0.00     0.084 C 
HETATM   13  C16 UNL     1      21.602   4.310  48.454  1.00  0.00     0.055 C 
HETATM   14  C17 UNL     1      21.573   3.589  49.785  1.00  0.00     0.277 C 
HETATM   15  N7  UNL     1      22.289   4.429  50.724  1.00  0.00     0.118 N 
HETATM   16  C18 UNL     1      21.405   5.565  51.016  1.00  0.00     0.277 C 
HETATM   17  C19 UNL     1      20.982   6.276  49.772  1.00  0.00     0.055 C 
HETATM   18  H13 UNL     1      24.707   5.686  51.805  1.00  0.00     0.164 HD
HETATM   19  H16 UNL     1      23.373   7.005  49.425  1.00  0.00     0.159 HD
ENDROOT
BRANCH   1  20
HETATM   20  N2  UNL     1      24.947   0.658  52.185  1.00  0.00    -0.370 N 
HETATM   21  H9  UNL     1      25.530   0.776  51.349  1.00  0.00     0.161 HD
BRANCH  20  22
HETATM   22  C7  UNL     1      25.278  -0.187  53.311  1.00  0.00     0.160 C 
BRANCH  22  23
HETATM   23  C6  UNL     1      26.724  -0.202  53.596  1.00  0.00    -0.032 A 
HETATM   24  C2  UNL     1      27.489  -1.223  53.080  1.00  0.00    -0.036 A 
HETATM   25  C1  UNL     1      26.967  -2.328  52.245  1.00  0.00     0.050 C 
HETATM   26  C3  UNL     1      28.849  -1.301  53.307  1.00  0.00     0.123 A 
HETATM   27  N1  UNL     1      29.481  -0.359  54.056  1.00  0.00    -0.273 NA
HETATM   28  C4  UNL     1      28.766   0.656  54.579  1.00  0.00     0.117 A 
HETATM   29  C5  UNL     1      27.402   0.746  54.359  1.00  0.00     0.028 A 
ENDBRANCH  22  23
ENDBRANCH  20  22
ENDBRANCH   1  20
TORSDOF 3
ENDMDL
MODEL 8
REMARK VINA RESULT:      -7.7      2.772      7.662
REMARK  3 active torsions:
REMARK  status: ('A' for Active; 'I' for Inactive)
REMARK    1  A    between atoms: C6_7  and  C7_8 
REMARK    2  A    between atoms: C7_8  and  N2_9 
REMARK    3  A    between atoms: N2_9  and  C8_10 
ROOT
HETATM    1  C8  UNL     1      26.003   6.048  49.037  1.00  0.00     0.136 A 
HETATM    2  N3  UNL     1      24.981   6.675  48.534  1.00  0.00    -0.224 NA
HETATM    3  C9  UNL     1      23.752   5.988  48.356  1.00  0.00     0.232 A 
HETATM    4  N4  UNL     1      23.466   4.782  48.623  1.00  0.00    -0.242 NA
HETATM    5  C10 UNL     1      24.465   3.905  49.188  1.00  0.00     0.384 A 
HETATM    6  C11 UNL     1      25.707   4.660  49.374  1.00  0.00     0.057 A 
HETATM    7  C12 UNL     1      26.628   3.894  49.931  1.00  0.00     0.102 C 
HETATM    8  N5  UNL     1      26.562   2.516  50.344  1.00  0.00    -0.373 N 
HETATM    9  C13 UNL     1      26.700   2.150  51.702  1.00  0.00     0.104 C 
HETATM   10  C14 UNL     1      25.862   1.735  52.635  1.00  0.00     0.100 C 
HETATM   11  N6  UNL     1      24.484   1.567  52.370  1.00  0.00    -0.393 N 
HETATM   12  C15 UNL     1      23.136   2.032  52.428  1.00  0.00     0.084 C 
HETATM   13  C16 UNL     1      23.016   3.529  52.521  1.00  0.00     0.055 C 
HETATM   14  C17 UNL     1      23.268   4.190  51.184  1.00  0.00     0.277 C 
HETATM   15  N7  UNL     1      24.018   3.239  50.389  1.00  0.00     0.118 N 
HETATM   16  C18 UNL     1      23.065   2.192  49.994  1.00  0.00     0.277 C 
HETATM   17  C19 UNL     1      22.383   1.586  51.176  1.00  0.00     0.055 C 
HETATM   18  H13 UNL     1      26.413   1.682  49.727  1.00  0.00     0.164 HD
HETATM   19  H16 UNL     1      24.596   0.619  51.908  1.00  0.00     0.159 HD
ENDROOT
BRANCH   1  20
HETATM   20  N2  UNL     1      27.274   6.634  49.257  1.00  0.00    -0.370 N 
HETATM   21  H9  UNL     1      27.584   6.740  50.229  1.00  0.00     0.161 HD
BRANCH  20  22
HETATM   22  C7  UNL     1      28.040   7.037  48.097  1.00  0.00     0.160 C 
BRANCH  22  23
HETATM   23  C6  UNL     1      29.466   6.686  48.216  1.00  0.00    -0.032 A 
HETATM   24  C2  UNL     1      30.343   7.633  48.694  1.00  0.00    -0.036 A 
HETATM   25  C1  UNL     1      29.960   9.003  49.107  1.00  0.00     0.050 C 
HETATM   26  C3  UNL     1      31.692   7.375  48.832  1.00  0.00     0.123 A 
HETATM   27  N1  UNL     1      32.202   6.161  48.495  1.00  0.00    -0.273 NA
HETATM   28  C4  UNL     1      31.376   5.207  48.023  1.00  0.00     0.117 A 
HETATM   29  C5  UNL     1      30.022   5.454  47.881  1.00  0.00     0.028 A 
ENDBRANCH  22  23
ENDBRANCH  20  22
ENDBRANCH   1  20
TORSDOF 3
ENDMDL
MODEL 9
REMARK VINA RESULT:      -7.7      2.373      4.593
REMARK  3 active torsions:
REMARK  status: ('A' for Active; 'I' for Inactive)
REMARK    1  A    between atoms: C6_7  and  C7_8 
REMARK    2  A    between atoms: C7_8  and  N2_9 
REMARK    3  A    between atoms: N2_9  and  C8_10 
ROOT
HETATM    1  C8  UNL     1      24.919   2.013  52.070  1.00  0.00     0.136 A 
HETATM    2  N3  UNL     1      25.942   2.583  51.506  1.00  0.00    -0.224 NA
HETATM    3  C9  UNL     1      25.772   3.279  50.281  1.00  0.00     0.232 A 
HETATM    4  N4  UNL     1      24.717   3.448  49.599  1.00  0.00    -0.242 NA
HETATM    5  C10 UNL     1      23.462   2.890  50.049  1.00  0.00     0.384 A 
HETATM    6  C11 UNL     1      23.681   2.201  51.323  1.00  0.00     0.057 A 
HETATM    7  C12 UNL     1      22.540   1.717  51.782  1.00  0.00     0.102 C 
HETATM    8  N5  UNL     1      21.215   1.780  51.223  1.00  0.00    -0.373 N 
HETATM    9  C13 UNL     1      20.171   2.464  51.886  1.00  0.00     0.104 C 
HETATM   10  C14 UNL     1      19.546   3.610  51.687  1.00  0.00     0.100 C 
HETATM   11  N6  UNL     1      19.882   4.457  50.607  1.00  0.00    -0.393 N 
HETATM   12  C15 UNL     1      20.557   5.597  50.078  1.00  0.00     0.084 C 
HETATM   13  C16 UNL     1      21.760   6.014  50.880  1.00  0.00     0.055 C 
HETATM   14  C17 UNL     1      22.939   5.101  50.627  1.00  0.00     0.277 C 
HETATM   15  N7  UNL     1      22.397   3.864  50.102  1.00  0.00     0.118 N 
HETATM   16  C18 UNL     1      21.980   4.151  48.722  1.00  0.00     0.277 C 
HETATM   17  C19 UNL     1      21.031   5.302  48.656  1.00  0.00     0.055 C 
HETATM   18  H13 UNL     1      20.893   1.357  50.320  1.00  0.00     0.164 HD
HETATM   19  H16 UNL     1      19.322   3.913  49.888  1.00  0.00     0.159 HD
ENDROOT
BRANCH   1  20
HETATM   20  N2  UNL     1      24.975   1.293  53.290  1.00  0.00    -0.370 N 
HETATM   21  H9  UNL     1      24.671   1.780  54.141  1.00  0.00     0.161 HD
BRANCH  20  22
HETATM   22  C7  UNL     1      25.453  -0.072  53.246  1.00  0.00     0.160 C 
BRANCH  22  23
HETATM   23  C6  UNL     1      26.896  -0.171  53.527  1.00  0.00    -0.032 A 
HETATM   24  C2  UNL     1      27.590  -1.259  53.051  1.00  0.00    -0.036 A 
HETATM   25  C1  UNL     1      26.991  -2.361  52.263  1.00  0.00     0.050 C 
HETATM   26  C3  UNL     1      28.942  -1.418  53.277  1.00  0.00     0.123 A 
HETATM   27  N1  UNL     1      29.639  -0.490  53.985  1.00  0.00    -0.273 NA
HETATM   28  C4  UNL     1      28.996   0.590  54.468  1.00  0.00     0.117 A 
HETATM   29  C5  UNL     1      27.640   0.760  54.249  1.00  0.00     0.028 A 
ENDBRANCH  22  23
ENDBRANCH  20  22
ENDBRANCH   1  20
TORSDOF 3
ENDMDL
