MODEL 1
REMARK VINA RESULT:      -9.1      0.000      0.000
REMARK  4 active torsions:
REMARK  status: ('A' for Active; 'I' for Inactive)
REMARK       I    between atoms: C1_2  and  N1_3 
REMARK       I    between atoms: C1_2  and  N2_5 
REMARK    1  A    between atoms: N2_5  and  C2_6 
REMARK    2  A    between atoms: C7_13  and  C8_14 
REMARK    3  A    between atoms: C12_19  and  C13_20 
REMARK    4  A    between atoms: C13_20  and  C14_21 
ROOT
HETATM    1  C2  UNL     1      25.181   0.436  53.819  1.00  0.00     0.037 A 
HETATM    2  C3  UNL     1      24.524  -0.600  54.437  1.00  0.00     0.032 A 
HETATM    3  C4  UNL     1      23.185  -0.845  54.224  1.00  0.00     0.035 A 
HETATM    4  C5  UNL     1      22.502  -0.019  53.364  1.00  0.00     0.070 A 
HETATM    5  N3  UNL     1      21.182  -0.142  53.131  1.00  0.00    -0.241 NA
HETATM    6  C6  UNL     1      20.526   0.708  52.322  1.00  0.00     0.234 A 
HETATM    7  N4  UNL     1      21.206   1.693  51.736  1.00  0.00    -0.240 NA
HETATM    8  C7  UNL     1      22.519   1.926  51.879  1.00  0.00     0.083 A 
HETATM    9  C18 UNL     1      23.107   1.028  52.717  1.00  0.00     0.025 A 
HETATM   10  C19 UNL     1      24.437   1.217  52.975  1.00  0.00     0.045 A 
ENDROOT
BRANCH   8  11
HETATM   11  C8  UNL     1      23.009   3.064  51.156  1.00  0.00     0.015 C 
HETATM   12  C9  UNL     1      22.778   4.331  51.404  1.00  0.00     0.148 C 
HETATM   13  O2  UNL     1      22.930   5.661  51.127  1.00  0.00    -0.358 OA
HETATM   14  C10 UNL     1      24.071   6.449  51.416  1.00  0.00     0.202 C 
HETATM   15  C11 UNL     1      25.146   6.373  50.413  1.00  0.00     0.003 C 
HETATM   16  C12 UNL     1      25.374   5.733  49.237  1.00  0.00    -0.070 C 
HETATM   17  C15 UNL     1      24.170   4.952  48.969  1.00  0.00     0.061 C 
HETATM   18  C16 UNL     1      24.353   3.508  48.961  1.00  0.00    -0.021 C 
HETATM   19  C17 UNL     1      23.812   2.793  49.931  1.00  0.00     0.012 C 
BRANCH  16  20
HETATM   20  C13 UNL     1      26.654   6.033  48.654  1.00  0.00     0.125 C 
BRANCH  20  21
HETATM   21  C14 UNL     1      27.895   5.900  48.304  1.00  0.00     0.365 C 
HETATM   22  F1  UNL     1      28.338   4.635  48.308  1.00  0.00    -0.461 F 
ENDBRANCH  20  21
ENDBRANCH  16  20
ENDBRANCH   8  11
BRANCH   1  23
HETATM   23  N2  UNL     1      26.556   0.709  54.017  1.00  0.00    -0.308 N 
HETATM   24  C1  UNL     1      27.689  -0.107  53.816  1.00  0.00     0.335 C 
HETATM   25  O1  UNL     1      27.493  -1.269  53.397  1.00  0.00    -0.246 OA
HETATM   26  N1  UNL     1      29.036   0.279  54.049  1.00  0.00    -0.250 N 
HETATM   27 CL1  UNL     1      30.131  -1.047  53.667  1.00  0.00     0.015 Cl
HETATM   28  H1  UNL     1      29.209   1.249  54.401  1.00  0.00     0.185 HD
HETATM   29  H2  UNL     1      26.851   1.653  54.367  1.00  0.00     0.170 HD
ENDBRANCH   1  23
TORSDOF 4
ENDMDL
MODEL 2
REMARK VINA RESULT:      -8.9      1.893      2.191
REMARK  4 active torsions:
REMARK  status: ('A' for Active; 'I' for Inactive)
REMARK       I    between atoms: C1_2  and  N1_3 
REMARK       I    between atoms: C1_2  and  N2_5 
REMARK    1  A    between atoms: N2_5  and  C2_6 
REMARK    2  A    between atoms: C7_13  and  C8_14 
REMARK    3  A    between atoms: C12_19  and  C13_20 
REMARK    4  A    between atoms: C13_20  and  C14_21 
ROOT
HETATM    1  C2  UNL     1      24.836  -0.683  54.433  1.00  0.00     0.037 A 
HETATM    2  C3  UNL     1      24.019  -1.327  55.328  1.00  0.00     0.032 A 
HETATM    3  C4  UNL     1      22.646  -1.247  55.252  1.00  0.00     0.035 A 
HETATM    4  C5  UNL     1      22.094  -0.495  54.242  1.00  0.00     0.070 A 
HETATM    5  N3  UNL     1      20.767  -0.311  54.113  1.00  0.00    -0.241 NA
HETATM    6  C6  UNL     1      20.254   0.468  53.145  1.00  0.00     0.234 A 
HETATM    7  N4  UNL     1      21.084   1.067  52.292  1.00  0.00    -0.240 NA
HETATM    8  C7  UNL     1      22.421   0.966  52.306  1.00  0.00     0.083 A 
HETATM    9  C18 UNL     1      22.862   0.167  53.318  1.00  0.00     0.025 A 
HETATM   10  C19 UNL     1      24.218   0.047  53.453  1.00  0.00     0.045 A 
ENDROOT
BRANCH   8  11
HETATM   11  C8  UNL     1      23.092   1.726  51.291  1.00  0.00     0.015 C 
HETATM   12  C9  UNL     1      22.710   1.921  50.052  1.00  0.00     0.148 C 
HETATM   13  O2  UNL     1      22.885   2.455  48.806  1.00  0.00    -0.358 OA
HETATM   14  C10 UNL     1      22.657   3.804  48.436  1.00  0.00     0.202 C 
HETATM   15  C11 UNL     1      23.777   4.719  48.713  1.00  0.00     0.003 C 
HETATM   16  C12 UNL     1      25.022   4.642  49.250  1.00  0.00    -0.070 C 
HETATM   17  C15 UNL     1      25.222   3.238  49.596  1.00  0.00     0.061 C 
HETATM   18  C16 UNL     1      25.376   2.963  51.016  1.00  0.00    -0.021 C 
HETATM   19  C17 UNL     1      24.418   2.306  51.644  1.00  0.00     0.012 C 
BRANCH  16  20
HETATM   20  C13 UNL     1      25.716   5.901  49.281  1.00  0.00     0.125 C 
BRANCH  20  21
HETATM   21  C14 UNL     1      26.123   7.059  49.701  1.00  0.00     0.365 C 
HETATM   22  F1  UNL     1      25.574   7.451  50.859  1.00  0.00    -0.461 F 
ENDBRANCH  20  21
ENDBRANCH  16  20
ENDBRANCH   8  11
BRANCH   1  23
HETATM   23  N2  UNL     1      26.250  -0.750  54.486  1.00  0.00    -0.308 N 
HETATM   24  C1  UNL     1      27.212   0.280  54.547  1.00  0.00     0.335 C 
HETATM   25  O1  UNL     1      26.794   1.458  54.557  1.00  0.00    -0.246 OA
HETATM   26  N1  UNL     1      28.620   0.091  54.597  1.00  0.00    -0.250 N 
HETATM   27 CL1  UNL     1      29.446   1.646  54.666  1.00  0.00     0.015 Cl
HETATM   28  H1  UNL     1      28.978  -0.892  54.587  1.00  0.00     0.185 HD
HETATM   29  H2  UNL     1      26.724  -1.685  54.482  1.00  0.00     0.170 HD
ENDBRANCH   1  23
TORSDOF 4
ENDMDL
MODEL 3
REMARK VINA RESULT:      -8.4      3.254      4.859
REMARK  4 active torsions:
REMARK  status: ('A' for Active; 'I' for Inactive)
REMARK       I    between atoms: C1_2  and  N1_3 
REMARK       I    between atoms: C1_2  and  N2_5 
REMARK    1  A    between atoms: N2_5  and  C2_6 
REMARK    2  A    between atoms: C7_13  and  C8_14 
REMARK    3  A    between atoms: C12_19  and  C13_20 
REMARK    4  A    between atoms: C13_20  and  C14_21 
ROOT
HETATM    1  C2  UNL     1      21.641   0.340  52.590  1.00  0.00     0.037 A 
HETATM    2  C3  UNL     1      21.791  -0.657  53.523  1.00  0.00     0.032 A 
HETATM    3  C4  UNL     1      22.992  -0.888  54.157  1.00  0.00     0.035 A 
HETATM    4  C5  UNL     1      24.062  -0.087  53.835  1.00  0.00     0.070 A 
HETATM    5  N3  UNL     1      25.289  -0.266  54.359  1.00  0.00    -0.241 NA
HETATM    6  C6  UNL     1      26.330   0.501  53.993  1.00  0.00     0.234 A 
HETATM    7  N4  UNL     1      26.137   1.463  53.092  1.00  0.00    -0.240 NA
HETATM    8  C7  UNL     1      24.970   1.749  52.496  1.00  0.00     0.083 A 
HETATM    9  C18 UNL     1      23.969   0.925  52.914  1.00  0.00     0.025 A 
HETATM   10  C19 UNL     1      22.749   1.099  52.321  1.00  0.00     0.045 A 
ENDROOT
BRANCH   8  11
HETATM   11  C8  UNL     1      25.028   2.821  51.544  1.00  0.00     0.015 C 
HETATM   12  C9  UNL     1      24.219   3.847  51.443  1.00  0.00     0.148 C 
HETATM   13  O2  UNL     1      23.813   5.009  50.848  1.00  0.00    -0.358 OA
HETATM   14  C10 UNL     1      24.411   6.282  51.008  1.00  0.00     0.202 C 
HETATM   15  C11 UNL     1      25.573   6.535  50.139  1.00  0.00     0.003 C 
HETATM   16  C12 UNL     1      26.272   5.867  49.185  1.00  0.00    -0.070 C 
HETATM   17  C15 UNL     1      25.612   4.574  49.038  1.00  0.00     0.061 C 
HETATM   18  C16 UNL     1      26.413   3.418  49.412  1.00  0.00    -0.021 C 
HETATM   19  C17 UNL     1      26.078   2.734  50.491  1.00  0.00     0.012 C 
BRANCH  16  20
HETATM   20  C13 UNL     1      27.369   6.621  48.639  1.00  0.00     0.125 C 
BRANCH  20  21
HETATM   21  C14 UNL     1      28.358   6.948  47.868  1.00  0.00     0.365 C 
HETATM   22  F1  UNL     1      29.188   5.937  47.574  1.00  0.00    -0.461 F 
ENDBRANCH  20  21
ENDBRANCH  16  20
ENDBRANCH   8  11
BRANCH   1  23
HETATM   23  N2  UNL     1      20.419   0.602  51.925  1.00  0.00    -0.308 N 
HETATM   24  C1  UNL     1      19.558   1.718  52.000  1.00  0.00     0.335 C 
HETATM   25  O1  UNL     1      19.889   2.648  52.767  1.00  0.00    -0.246 OA
HETATM   26  N1  UNL     1      18.345   1.873  51.278  1.00  0.00    -0.250 N 
HETATM   27 CL1  UNL     1      17.589   3.415  51.671  1.00  0.00     0.015 Cl
HETATM   28  H1  UNL     1      18.060   1.099  50.635  1.00  0.00     0.185 HD
HETATM   29  H2  UNL     1      20.033  -0.104  51.253  1.00  0.00     0.170 HD
ENDBRANCH   1  23
TORSDOF 4
ENDMDL
MODEL 4
REMARK VINA RESULT:      -8.4      4.069      7.032
REMARK  4 active torsions:
REMARK  status: ('A' for Active; 'I' for Inactive)
REMARK       I    between atoms: C1_2  and  N1_3 
REMARK       I    between atoms: C1_2  and  N2_5 
REMARK    1  A    between atoms: N2_5  and  C2_6 
REMARK    2  A    between atoms: C7_13  and  C8_14 
REMARK    3  A    between atoms: C12_19  and  C13_20 
REMARK    4  A    between atoms: C13_20  and  C14_21 
ROOT
HETATM    1  C2  UNL     1      24.848   6.433  49.846  1.00  0.00     0.037 A 
HETATM    2  C3  UNL     1      24.093   6.844  48.776  1.00  0.00     0.032 A 
HETATM    3  C4  UNL     1      23.234   5.991  48.118  1.00  0.00     0.035 A 
HETATM    4  C5  UNL     1      23.142   4.693  48.560  1.00  0.00     0.070 A 
HETATM    5  N3  UNL     1      22.373   3.770  47.953  1.00  0.00    -0.241 NA
HETATM    6  C6  UNL     1      22.336   2.494  48.376  1.00  0.00     0.234 A 
HETATM    7  N4  UNL     1      23.079   2.141  49.425  1.00  0.00    -0.240 NA
HETATM    8  C7  UNL     1      23.883   2.959  50.120  1.00  0.00     0.083 A 
HETATM    9  C18 UNL     1      23.870   4.228  49.626  1.00  0.00     0.025 A 
HETATM   10  C19 UNL     1      24.705   5.126  50.232  1.00  0.00     0.045 A 
ENDROOT
BRANCH   8  11
HETATM   11  C8  UNL     1      24.593   2.330  51.196  1.00  0.00     0.015 C 
HETATM   12  C9  UNL     1      24.088   1.731  52.247  1.00  0.00     0.148 C 
HETATM   13  O2  UNL     1      24.218   1.052  53.426  1.00  0.00    -0.358 OA
HETATM   14  C10 UNL     1      24.544  -0.319  53.569  1.00  0.00     0.202 C 
HETATM   15  C11 UNL     1      25.985  -0.620  53.526  1.00  0.00     0.003 C 
HETATM   16  C12 UNL     1      27.146   0.068  53.378  1.00  0.00    -0.070 C 
HETATM   17  C15 UNL     1      26.765   1.472  53.255  1.00  0.00     0.061 C 
HETATM   18  C16 UNL     1      27.075   2.092  51.975  1.00  0.00    -0.021 C 
HETATM   19  C17 UNL     1      26.080   2.427  51.174  1.00  0.00     0.012 C 
BRANCH  16  20
HETATM   20  C13 UNL     1      28.319  -0.764  53.410  1.00  0.00     0.125 C 
BRANCH  20  21
HETATM   21  C14 UNL     1      29.563  -1.121  53.332  1.00  0.00     0.365 C 
HETATM   22  F1  UNL     1      30.435  -0.107  53.422  1.00  0.00    -0.461 F 
ENDBRANCH  20  21
ENDBRANCH  16  20
ENDBRANCH   8  11
BRANCH   1  23
HETATM   23  N2  UNL     1      25.737   7.287  50.543  1.00  0.00    -0.308 N 
HETATM   24  C1  UNL     1      26.738   8.155  50.059  1.00  0.00     0.335 C 
HETATM   25  O1  UNL     1      26.903   8.210  48.821  1.00  0.00    -0.246 OA
HETATM   26  N1  UNL     1      27.578   8.974  50.861  1.00  0.00    -0.250 N 
HETATM   27 CL1  UNL     1      28.684   9.899  49.848  1.00  0.00     0.015 Cl
HETATM   28  H1  UNL     1      27.447   8.934  51.898  1.00  0.00     0.185 HD
HETATM   29  H2  UNL     1      25.698   7.331  51.589  1.00  0.00     0.170 HD
ENDBRANCH   1  23
TORSDOF 4
ENDMDL
MODEL 5
REMARK VINA RESULT:      -8.0      4.526      8.050
REMARK  4 active torsions:
REMARK  status: ('A' for Active; 'I' for Inactive)
REMARK       I    between atoms: C1_2  and  N1_3 
REMARK       I    between atoms: C1_2  and  N2_5 
REMARK    1  A    between atoms: N2_5  and  C2_6 
REMARK    2  A    between atoms: C7_13  and  C8_14 
REMARK    3  A    between atoms: C12_19  and  C13_20 
REMARK    4  A    between atoms: C13_20  and  C14_21 
ROOT
HETATM    1  C2  UNL     1      24.273   4.123  49.798  1.00  0.00     0.037 A 
HETATM    2  C3  UNL     1      25.612   4.249  49.525  1.00  0.00     0.032 A 
HETATM    3  C4  UNL     1      26.555   3.426  50.102  1.00  0.00     0.035 A 
HETATM    4  C5  UNL     1      26.123   2.454  50.973  1.00  0.00     0.070 A 
HETATM    5  N3  UNL     1      26.968   1.635  51.627  1.00  0.00    -0.241 NA
HETATM    6  C6  UNL     1      26.525   0.724  52.510  1.00  0.00     0.234 A 
HETATM    7  N4  UNL     1      25.215   0.630  52.736  1.00  0.00    -0.240 NA
HETATM    8  C7  UNL     1      24.268   1.379  52.152  1.00  0.00     0.083 A 
HETATM    9  C18 UNL     1      24.797   2.280  51.279  1.00  0.00     0.025 A 
HETATM   10  C19 UNL     1      23.915   3.133  50.674  1.00  0.00     0.045 A 
ENDROOT
BRANCH   8  11
HETATM   11  C8  UNL     1      22.929   1.096  52.582  1.00  0.00     0.015 C 
HETATM   12  C9  UNL     1      21.843   1.785  52.326  1.00  0.00     0.148 C 
HETATM   13  O2  UNL     1      20.497   1.998  52.433  1.00  0.00    -0.358 OA
HETATM   14  C10 UNL     1      19.484   1.308  51.724  1.00  0.00     0.202 C 
HETATM   15  C11 UNL     1      19.075   0.025  52.321  1.00  0.00     0.003 C 
HETATM   16  C12 UNL     1      19.407  -0.726  53.403  1.00  0.00    -0.070 C 
HETATM   17  C15 UNL     1      20.436   0.030  54.112  1.00  0.00     0.061 C 
HETATM   18  C16 UNL     1      21.744  -0.604  54.172  1.00  0.00    -0.021 C 
HETATM   19  C17 UNL     1      22.742  -0.068  53.493  1.00  0.00     0.012 C 
BRANCH  16  20
HETATM   20  C13 UNL     1      18.661  -1.950  53.507  1.00  0.00     0.125 C 
BRANCH  20  21
HETATM   21  C14 UNL     1      17.667  -2.759  53.711  1.00  0.00     0.365 C 
HETATM   22  F1  UNL     1      17.826  -3.976  53.173  1.00  0.00    -0.461 F 
ENDBRANCH  20  21
ENDBRANCH  16  20
ENDBRANCH   8  11
BRANCH   1  23
HETATM   23  N2  UNL     1      23.282   4.953  49.218  1.00  0.00    -0.308 N 
HETATM   24  C1  UNL     1      22.643   6.104  49.724  1.00  0.00     0.335 C 
HETATM   25  O1  UNL     1      22.975   6.491  50.866  1.00  0.00    -0.246 OA
HETATM   26  N1  UNL     1      21.653   6.864  49.045  1.00  0.00    -0.250 N 
HETATM   27 CL1  UNL     1      21.129   8.220  50.041  1.00  0.00     0.015 Cl
HETATM   28  H1  UNL     1      21.369   6.547  48.090  1.00  0.00     0.185 HD
HETATM   29  H2  UNL     1      22.919   4.732  48.260  1.00  0.00     0.170 HD
ENDBRANCH   1  23
TORSDOF 4
ENDMDL
MODEL 6
REMARK VINA RESULT:      -7.9      3.667      5.285
REMARK  4 active torsions:
REMARK  status: ('A' for Active; 'I' for Inactive)
REMARK       I    between atoms: C1_2  and  N1_3 
REMARK       I    between atoms: C1_2  and  N2_5 
REMARK    1  A    between atoms: N2_5  and  C2_6 
REMARK    2  A    between atoms: C7_13  and  C8_14 
REMARK    3  A    between atoms: C12_19  and  C13_20 
REMARK    4  A    between atoms: C13_20  and  C14_21 
ROOT
HETATM    1  C2  UNL     1      21.992  -0.709  54.439  1.00  0.00     0.037 A 
HETATM    2  C3  UNL     1      22.840  -1.405  55.264  1.00  0.00     0.032 A 
HETATM    3  C4  UNL     1      24.207  -1.245  55.208  1.00  0.00     0.035 A 
HETATM    4  C5  UNL     1      24.720  -0.356  54.294  1.00  0.00     0.070 A 
HETATM    5  N3  UNL     1      26.042  -0.167  54.125  1.00  0.00    -0.241 NA
HETATM    6  C6  UNL     1      26.520   0.673  53.191  1.00  0.00     0.234 A 
HETATM    7  N4  UNL     1      25.660   1.336  52.418  1.00  0.00    -0.240 NA
HETATM    8  C7  UNL     1      24.324   1.243  52.484  1.00  0.00     0.083 A 
HETATM    9  C18 UNL     1      23.920   0.369  53.448  1.00  0.00     0.025 A 
HETATM   10  C19 UNL     1      22.572   0.160  53.554  1.00  0.00     0.045 A 
ENDROOT
BRANCH   8  11
HETATM   11  C8  UNL     1      23.618   2.046  51.527  1.00  0.00     0.015 C 
HETATM   12  C9  UNL     1      23.592   3.354  51.443  1.00  0.00     0.148 C 
HETATM   13  O2  UNL     1      23.176   4.517  50.856  1.00  0.00    -0.358 OA
HETATM   14  C10 UNL     1      23.671   5.066  49.649  1.00  0.00     0.202 C 
HETATM   15  C11 UNL     1      23.060   4.522  48.424  1.00  0.00     0.003 C 
HETATM   16  C12 UNL     1      22.117   3.599  48.102  1.00  0.00    -0.070 C 
HETATM   17  C15 UNL     1      21.622   3.075  49.371  1.00  0.00     0.061 C 
HETATM   18  C16 UNL     1      21.886   1.665  49.609  1.00  0.00    -0.021 C 
HETATM   19  C17 UNL     1      22.746   1.330  50.554  1.00  0.00     0.012 C 
BRANCH  16  20
HETATM   20  C13 UNL     1      21.906   3.459  46.687  1.00  0.00     0.125 C 
BRANCH  20  21
HETATM   21  C14 UNL     1      21.684   3.779  45.449  1.00  0.00     0.365 C 
HETATM   22  F1  UNL     1      22.319   4.887  45.043  1.00  0.00    -0.461 F 
ENDBRANCH  20  21
ENDBRANCH  16  20
ENDBRANCH   8  11
BRANCH   1  23
HETATM   23  N2  UNL     1      20.583  -0.852  54.477  1.00  0.00    -0.308 N 
HETATM   24  C1  UNL     1      19.625  -0.731  53.449  1.00  0.00     0.335 C 
HETATM   25  O1  UNL     1      20.041  -0.453  52.303  1.00  0.00    -0.246 OA
HETATM   26  N1  UNL     1      18.222  -0.898  53.605  1.00  0.00    -0.250 N 
HETATM   27 CL1  UNL     1      17.399  -0.660  52.066  1.00  0.00     0.015 Cl
HETATM   28  H1  UNL     1      17.864  -1.129  54.561  1.00  0.00     0.185 HD
HETATM   29  H2  UNL     1      20.111  -1.084  55.383  1.00  0.00     0.170 HD
ENDBRANCH   1  23
TORSDOF 4
ENDMDL
MODEL 7
REMARK VINA RESULT:      -7.8      3.756      5.543
REMARK  4 active torsions:
REMARK  status: ('A' for Active; 'I' for Inactive)
REMARK       I    between atoms: C1_2  and  N1_3 
REMARK       I    between atoms: C1_2  and  N2_5 
REMARK    1  A    between atoms: N2_5  and  C2_6 
REMARK    2  A    between atoms: C7_13  and  C8_14 
REMARK    3  A    between atoms: C12_19  and  C13_20 
REMARK    4  A    between atoms: C13_20  and  C14_21 
ROOT
HETATM    1  C2  UNL     1      21.199  -0.336  53.810  1.00  0.00     0.037 A 
HETATM    2  C3  UNL     1      21.573  -1.399  54.595  1.00  0.00     0.032 A 
HETATM    3  C4  UNL     1      22.888  -1.624  54.939  1.00  0.00     0.035 A 
HETATM    4  C5  UNL     1      23.841  -0.748  54.475  1.00  0.00     0.070 A 
HETATM    5  N3  UNL     1      25.156  -0.910  54.712  1.00  0.00    -0.241 NA
HETATM    6  C6  UNL     1      26.072  -0.065  54.208  1.00  0.00     0.234 A 
HETATM    7  N4  UNL     1      25.663   0.958  53.459  1.00  0.00    -0.240 NA
HETATM    8  C7  UNL     1      24.387   1.236  53.150  1.00  0.00     0.083 A 
HETATM    9  C18 UNL     1      23.523   0.333  53.692  1.00  0.00     0.025 A 
HETATM   10  C19 UNL     1      22.200   0.496  53.385  1.00  0.00     0.045 A 
ENDROOT
BRANCH   8  11
HETATM   11  C8  UNL     1      24.209   2.385  52.310  1.00  0.00     0.015 C 
HETATM   12  C9  UNL     1      24.403   2.469  51.016  1.00  0.00     0.148 C 
HETATM   13  O2  UNL     1      24.408   3.167  49.840  1.00  0.00    -0.358 OA
HETATM   14  C10 UNL     1      23.272   3.513  49.069  1.00  0.00     0.202 C 
HETATM   15  C11 UNL     1      22.578   4.737  49.504  1.00  0.00     0.003 C 
HETATM   16  C12 UNL     1      22.717   5.673  50.478  1.00  0.00    -0.070 C 
HETATM   17  C15 UNL     1      23.907   5.290  51.232  1.00  0.00     0.061 C 
HETATM   18  C16 UNL     1      23.673   4.922  52.621  1.00  0.00    -0.021 C 
HETATM   19  C17 UNL     1      23.837   3.662  52.980  1.00  0.00     0.012 C 
BRANCH  16  20
HETATM   20  C13 UNL     1      21.711   6.700  50.440  1.00  0.00     0.125 C 
BRANCH  20  21
HETATM   21  C14 UNL     1      21.049   7.745  50.049  1.00  0.00     0.365 C 
HETATM   22  F1  UNL     1      21.817   8.789  49.708  1.00  0.00    -0.461 F 
ENDBRANCH  20  21
ENDBRANCH  16  20
ENDBRANCH   8  11
BRANCH   1  23
HETATM   23  N2  UNL     1      19.855  -0.079  53.443  1.00  0.00    -0.308 N 
HETATM   24  C1  UNL     1      19.277   0.116  52.171  1.00  0.00     0.335 C 
HETATM   25  O1  UNL     1      20.036   0.061  51.179  1.00  0.00    -0.246 OA
HETATM   26  N1  UNL     1      17.901   0.369  51.921  1.00  0.00    -0.250 N 
HETATM   27 CL1  UNL     1      17.613   0.547  50.192  1.00  0.00     0.015 Cl
HETATM   28  H1  UNL     1      17.259   0.418  52.745  1.00  0.00     0.185 HD
HETATM   29  H2  UNL     1      19.120  -0.008  54.187  1.00  0.00     0.170 HD
ENDBRANCH   1  23
TORSDOF 4
ENDMDL
MODEL 8
REMARK VINA RESULT:      -7.8      3.721      5.052
REMARK  4 active torsions:
REMARK  status: ('A' for Active; 'I' for Inactive)
REMARK       I    between atoms: C1_2  and  N1_3 
REMARK       I    between atoms: C1_2  and  N2_5 
REMARK    1  A    between atoms: N2_5  and  C2_6 
REMARK    2  A    between atoms: C7_13  and  C8_14 
REMARK    3  A    between atoms: C12_19  and  C13_20 
REMARK    4  A    between atoms: C13_20  and  C14_21 
ROOT
HETATM    1  C2  UNL     1      25.955   1.096  52.185  1.00  0.00     0.037 A 
HETATM    2  C3  UNL     1      26.700   0.374  53.084  1.00  0.00     0.032 A 
HETATM    3  C4  UNL     1      26.114  -0.418  54.047  1.00  0.00     0.035 A 
HETATM    4  C5  UNL     1      24.742  -0.477  54.094  1.00  0.00     0.070 A 
HETATM    5  N3  UNL     1      24.074  -1.179  55.029  1.00  0.00    -0.241 NA
HETATM    6  C6  UNL     1      22.731  -1.182  55.083  1.00  0.00     0.234 A 
HETATM    7  N4  UNL     1      22.048  -0.474  54.184  1.00  0.00    -0.240 NA
HETATM    8  C7  UNL     1      22.586   0.264  53.202  1.00  0.00     0.083 A 
HETATM    9  C18 UNL     1      23.948   0.220  53.219  1.00  0.00     0.025 A 
HETATM   10  C19 UNL     1      24.594   0.989  52.290  1.00  0.00     0.045 A 
ENDROOT
BRANCH   8  11
HETATM   11  C8  UNL     1      21.635   0.949  52.376  1.00  0.00     0.015 C 
HETATM   12  C9  UNL     1      20.895   1.983  52.695  1.00  0.00     0.148 C 
HETATM   13  O2  UNL     1      19.954   2.930  52.399  1.00  0.00    -0.358 OA
HETATM   14  C10 UNL     1      20.158   4.097  51.622  1.00  0.00     0.202 C 
HETATM   15  C11 UNL     1      20.054   3.897  50.167  1.00  0.00     0.003 C 
HETATM   16  C12 UNL     1      19.810   2.870  49.313  1.00  0.00    -0.070 C 
HETATM   17  C15 UNL     1      19.586   1.697  50.154  1.00  0.00     0.061 C 
HETATM   18  C16 UNL     1      20.568   0.633  50.013  1.00  0.00    -0.021 C 
HETATM   19  C17 UNL     1      21.388   0.387  51.018  1.00  0.00     0.012 C 
BRANCH  16  20
HETATM   20  C13 UNL     1      19.828   3.253  47.928  1.00  0.00     0.125 C 
BRANCH  20  21
HETATM   21  C14 UNL     1      19.494   3.320  46.676  1.00  0.00     0.365 C 
HETATM   22  F1  UNL     1      18.467   4.142  46.422  1.00  0.00    -0.461 F 
ENDBRANCH  20  21
ENDBRANCH  16  20
ENDBRANCH   8  11
BRANCH   1  23
HETATM   23  N2  UNL     1      26.529   1.917  51.183  1.00  0.00    -0.308 N 
HETATM   24  C1  UNL     1      26.152   3.195  50.721  1.00  0.00     0.335 C 
HETATM   25  O1  UNL     1      25.154   3.727  51.253  1.00  0.00    -0.246 OA
HETATM   26  N1  UNL     1      26.811   3.930  49.699  1.00  0.00    -0.250 N 
HETATM   27 CL1  UNL     1      26.009   5.477  49.440  1.00  0.00     0.015 Cl
HETATM   28  H1  UNL     1      27.647   3.491  49.248  1.00  0.00     0.185 HD
HETATM   29  H2  UNL     1      27.374   1.580  50.661  1.00  0.00     0.170 HD
ENDBRANCH   1  23
TORSDOF 4
ENDMDL
MODEL 9
REMARK VINA RESULT:      -7.8      7.765     11.860
REMARK  4 active torsions:
REMARK  status: ('A' for Active; 'I' for Inactive)
REMARK       I    between atoms: C1_2  and  N1_3 
REMARK       I    between atoms: C1_2  and  N2_5 
REMARK    1  A    between atoms: N2_5  and  C2_6 
REMARK    2  A    between atoms: C7_13  and  C8_14 
REMARK    3  A    between atoms: C12_19  and  C13_20 
REMARK    4  A    between atoms: C13_20  and  C14_21 
ROOT
HETATM    1  C2  UNL     1      30.157   8.780  48.203  1.00  0.00     0.037 A 
HETATM    2  C3  UNL     1      30.026  10.136  48.034  1.00  0.00     0.032 A 
HETATM    3  C4  UNL     1      30.925  10.869  47.290  1.00  0.00     0.035 A 
HETATM    4  C5  UNL     1      31.978  10.206  46.706  1.00  0.00     0.070 A 
HETATM    5  N3  UNL     1      32.938  10.839  46.005  1.00  0.00    -0.241 NA
HETATM    6  C6  UNL     1      33.984  10.174  45.484  1.00  0.00     0.234 A 
HETATM    7  N4  UNL     1      34.066   8.857  45.665  1.00  0.00    -0.240 NA
HETATM    8  C7  UNL     1      33.180   8.106  46.337  1.00  0.00     0.083 A 
HETATM    9  C18 UNL     1      32.157   8.852  46.839  1.00  0.00     0.025 A 
HETATM   10  C19 UNL     1      31.230   8.186  47.592  1.00  0.00     0.045 A 
ENDROOT
BRANCH   8  11
HETATM   11  C8  UNL     1      33.506   6.711  46.407  1.00  0.00     0.015 C 
HETATM   12  C9  UNL     1      34.462   6.146  47.104  1.00  0.00     0.148 C 
HETATM   13  O2  UNL     1      35.165   5.049  47.519  1.00  0.00    -0.358 OA
HETATM   14  C10 UNL     1      34.745   4.106  48.488  1.00  0.00     0.202 C 
HETATM   15  C11 UNL     1      33.868   3.040  47.975  1.00  0.00     0.003 C 
HETATM   16  C12 UNL     1      33.316   2.684  46.786  1.00  0.00    -0.070 C 
HETATM   17  C15 UNL     1      33.790   3.667  45.817  1.00  0.00     0.061 C 
HETATM   18  C16 UNL     1      32.758   4.506  45.224  1.00  0.00    -0.021 C 
HETATM   19  C17 UNL     1      32.728   5.789  45.533  1.00  0.00     0.012 C 
BRANCH  16  20
HETATM   20  C13 UNL     1      32.502   1.501  46.858  1.00  0.00     0.125 C 
BRANCH  20  21
HETATM   21  C14 UNL     1      31.826   0.461  46.478  1.00  0.00     0.365 C 
HETATM   22  F1  UNL     1      30.551   0.719  46.155  1.00  0.00    -0.461 F 
ENDBRANCH  20  21
ENDBRANCH  16  20
ENDBRANCH   8  11
BRANCH   1  23
HETATM   23  N2  UNL     1      29.248   8.000  48.960  1.00  0.00    -0.308 N 
HETATM   24  C1  UNL     1      28.050   7.363  48.574  1.00  0.00     0.335 C 
HETATM   25  O1  UNL     1      27.695   7.478  47.381  1.00  0.00    -0.246 OA
HETATM   26  N1  UNL     1      27.210   6.599  49.428  1.00  0.00    -0.250 N 
HETATM   27 CL1  UNL     1      25.822   5.983  48.536  1.00  0.00     0.015 Cl
HETATM   28  H1  UNL     1      27.499   6.498  50.429  1.00  0.00     0.185 HD
HETATM   29  H2  UNL     1      29.434   7.831  49.977  1.00  0.00     0.170 HD
ENDBRANCH   1  23
TORSDOF 4
ENDMDL
