MODEL 1
REMARK VINA RESULT:      -8.7      0.000      0.000
REMARK  8 active torsions:
REMARK  status: ('A' for Active; 'I' for Inactive)
REMARK    1  A    between atoms: C4_4  and  C5_5 
REMARK    2  A    between atoms: C5_5  and  N1_6 
REMARK    3  A    between atoms: N1_6  and  C6_7 
REMARK    4  A    between atoms: C10_14  and  N5_15 
REMARK       I    between atoms: N5_15  and  C11_16 
REMARK    5  A    between atoms: C11_16  and  C12_18 
REMARK    6  A    between atoms: C13_19  and  C14_20 
REMARK    7  A    between atoms: C14_20  and  C15_21 
REMARK    8  A    between atoms: C15_21  and  N6_22 
ROOT
HETATM    1  C6  UNL     1      26.576   2.152  52.253  1.00  0.00     0.138 A 
HETATM    2  N2  UNL     1      27.876   2.320  52.438  1.00  0.00    -0.224 NA
HETATM    3  C7  UNL     1      28.526   1.594  53.345  1.00  0.00     0.236 A 
HETATM    4  N3  UNL     1      27.929   0.654  54.124  1.00  0.00    -0.240 NA
HETATM    5  C8  UNL     1      26.605   0.450  53.967  1.00  0.00     0.089 A 
HETATM    6  C9  UNL     1      26.001  -0.503  54.758  1.00  0.00     0.151 A 
HETATM    7  N4  UNL     1      24.673  -0.690  54.583  1.00  0.00    -0.241 NA
HETATM    8  C10 UNL     1      23.962   0.017  53.680  1.00  0.00     0.131 A 
HETATM    9  C21 UNL     1      24.605   0.959  52.912  1.00  0.00     0.068 A 
HETATM   10  C22 UNL     1      25.955   1.209  53.029  1.00  0.00     0.043 A 
ENDROOT
BRANCH   8  11
HETATM   11  N5  UNL     1      22.564  -0.199  53.514  1.00  0.00    -0.301 N 
HETATM   12  C11 UNL     1      21.471  -0.976  53.989  1.00  0.00     0.302 C 
HETATM   13  O1  UNL     1      21.552  -1.860  54.893  1.00  0.00    -0.258 OA
HETATM   14  H10 UNL     1      22.444   0.523  52.758  1.00  0.00     0.171 HD
BRANCH  12  15
HETATM   15  C12 UNL     1      20.206  -0.696  53.364  1.00  0.00    -0.005 C 
HETATM   16  C13 UNL     1      19.133  -0.452  52.842  1.00  0.00    -0.095 C 
BRANCH  16  17
HETATM   17  C14 UNL     1      17.859  -0.140  52.206  1.00  0.00     0.114 C 
BRANCH  17  18
HETATM   18  C15 UNL     1      18.033   0.058  50.700  1.00  0.00     0.129 C 
BRANCH  18  19
HETATM   19  N6  UNL     1      18.301   1.439  50.447  1.00  0.00    -0.412 N 
HETATM   20  C16 UNL     1      17.748   2.336  51.409  1.00  0.00     0.117 C 
HETATM   21  C17 UNL     1      18.499   3.640  51.360  1.00  0.00     0.019 C 
HETATM   22  C18 UNL     1      19.925   3.433  51.819  1.00  0.00     0.003 C 
HETATM   23  C19 UNL     1      20.545   2.313  51.019  1.00  0.00     0.019 C 
HETATM   24  C20 UNL     1      19.617   1.746  49.989  1.00  0.00     0.117 C 
ENDBRANCH  18  19
ENDBRANCH  17  18
ENDBRANCH  16  17
ENDBRANCH  12  15
ENDBRANCH   8  11
BRANCH   1  25
HETATM   25  N1  UNL     1      25.862   2.923  51.263  1.00  0.00    -0.370 N 
HETATM   26  H7  UNL     1      24.926   3.359  51.355  1.00  0.00     0.161 HD
BRANCH  25  27
HETATM   27  C5  UNL     1      26.496   3.131  49.984  1.00  0.00     0.159 C 
BRANCH  27  28
HETATM   28  C4  UNL     1      26.421   4.549  49.526  1.00  0.00    -0.019 C 
HETATM   29  C3  UNL     1      25.316   5.463  49.948  1.00  0.00     0.077 C 
HETATM   30  C2  UNL     1      24.924   6.269  48.749  1.00  0.00    -0.054 C 
HETATM   31  C1  UNL     1      23.760   6.465  48.150  1.00  0.00     0.020 C 
HETATM   32  P1  UNL     1      26.669   6.808  48.505  1.00  0.00    -0.034 P 
HETATM   33  C23 UNL     1      27.344   5.078  48.698  1.00  0.00     0.125 C 
HETATM   34  H26 UNL     1      27.060   7.623  49.645  1.00  0.00     0.069 HD
HETATM   35  F1  UNL     1      28.470   4.639  48.088  1.00  0.00    -0.205 F 
ENDBRANCH  27  28
ENDBRANCH  25  27
ENDBRANCH   1  25
TORSDOF 8
ENDMDL
MODEL 2
REMARK VINA RESULT:      -8.6      3.526      8.274
REMARK  8 active torsions:
REMARK  status: ('A' for Active; 'I' for Inactive)
REMARK    1  A    between atoms: C4_4  and  C5_5 
REMARK    2  A    between atoms: C5_5  and  N1_6 
REMARK    3  A    between atoms: N1_6  and  C6_7 
REMARK    4  A    between atoms: C10_14  and  N5_15 
REMARK       I    between atoms: N5_15  and  C11_16 
REMARK    5  A    between atoms: C11_16  and  C12_18 
REMARK    6  A    between atoms: C13_19  and  C14_20 
REMARK    7  A    between atoms: C14_20  and  C15_21 
REMARK    8  A    between atoms: C15_21  and  N6_22 
ROOT
HETATM    1  C6  UNL     1      22.956   0.414  52.923  1.00  0.00     0.138 A 
HETATM    2  N2  UNL     1      21.887  -0.054  53.546  1.00  0.00    -0.224 NA
HETATM    3  C7  UNL     1      20.756   0.650  53.566  1.00  0.00     0.236 A 
HETATM    4  N3  UNL     1      20.615   1.861  52.967  1.00  0.00    -0.240 NA
HETATM    5  C8  UNL     1      21.681   2.375  52.320  1.00  0.00     0.089 A 
HETATM    6  C9  UNL     1      21.537   3.604  51.712  1.00  0.00     0.151 A 
HETATM    7  N4  UNL     1      22.618   4.099  51.069  1.00  0.00    -0.241 NA
HETATM    8  C10 UNL     1      23.790   3.431  51.016  1.00  0.00     0.131 A 
HETATM    9  C21 UNL     1      23.890   2.207  51.637  1.00  0.00     0.068 A 
HETATM   10  C22 UNL     1      22.835   1.634  52.312  1.00  0.00     0.043 A 
ENDROOT
BRANCH   8  11
HETATM   11  N5  UNL     1      24.915   3.973  50.331  1.00  0.00    -0.301 N 
HETATM   12  C11 UNL     1      26.271   3.711  49.993  1.00  0.00     0.302 C 
HETATM   13  O1  UNL     1      26.909   2.666  50.322  1.00  0.00    -0.258 OA
HETATM   14  H10 UNL     1      24.429   4.858  50.034  1.00  0.00     0.171 HD
BRANCH  12  15
HETATM   15  C12 UNL     1      26.916   4.737  49.219  1.00  0.00    -0.005 C 
HETATM   16  C13 UNL     1      27.460   5.602  48.555  1.00  0.00    -0.095 C 
BRANCH  16  17
HETATM   17  C14 UNL     1      28.089   6.648  47.758  1.00  0.00     0.114 C 
BRANCH  17  18
HETATM   18  C15 UNL     1      28.753   7.693  48.654  1.00  0.00     0.129 C 
BRANCH  18  19
HETATM   19  N6  UNL     1      27.894   8.832  48.747  1.00  0.00    -0.412 N 
HETATM   20  C16 UNL     1      27.098   9.070  47.586  1.00  0.00     0.117 C 
HETATM   21  C17 UNL     1      25.909   9.910  47.964  1.00  0.00     0.019 C 
HETATM   22  C18 UNL     1      24.998   9.131  48.887  1.00  0.00     0.003 C 
HETATM   23  C19 UNL     1      25.804   8.610  50.053  1.00  0.00     0.019 C 
HETATM   24  C20 UNL     1      27.242   9.023  50.001  1.00  0.00     0.117 C 
ENDBRANCH  18  19
ENDBRANCH  17  18
ENDBRANCH  16  17
ENDBRANCH  12  15
ENDBRANCH   8  11
BRANCH   1  25
HETATM   25  N1  UNL     1      24.182  -0.346  52.882  1.00  0.00    -0.370 N 
HETATM   26  H7  UNL     1      24.640  -0.765  52.051  1.00  0.00     0.161 HD
BRANCH  25  27
HETATM   27  C5  UNL     1      24.881  -0.567  54.125  1.00  0.00     0.159 C 
BRANCH  27  28
HETATM   28  C4  UNL     1      26.362  -0.460  53.981  1.00  0.00    -0.019 C 
HETATM   29  C3  UNL     1      27.172   0.502  54.790  1.00  0.00     0.077 C 
HETATM   30  C2  UNL     1      28.203   1.091  53.877  1.00  0.00    -0.054 C 
HETATM   31  C1  UNL     1      28.516   2.342  53.576  1.00  0.00     0.020 C 
HETATM   32  P1  UNL     1      28.781  -0.591  53.397  1.00  0.00    -0.034 P 
HETATM   33  C23 UNL     1      27.048  -1.221  53.105  1.00  0.00     0.125 C 
HETATM   34  H26 UNL     1      29.350  -1.233  54.573  1.00  0.00     0.069 HD
HETATM   35  F1  UNL     1      26.742  -2.186  52.206  1.00  0.00    -0.205 F 
ENDBRANCH  27  28
ENDBRANCH  25  27
ENDBRANCH   1  25
TORSDOF 8
ENDMDL
MODEL 3
REMARK VINA RESULT:      -8.6      3.899      8.904
REMARK  8 active torsions:
REMARK  status: ('A' for Active; 'I' for Inactive)
REMARK    1  A    between atoms: C4_4  and  C5_5 
REMARK    2  A    between atoms: C5_5  and  N1_6 
REMARK    3  A    between atoms: N1_6  and  C6_7 
REMARK    4  A    between atoms: C10_14  and  N5_15 
REMARK       I    between atoms: N5_15  and  C11_16 
REMARK    5  A    between atoms: C11_16  and  C12_18 
REMARK    6  A    between atoms: C13_19  and  C14_20 
REMARK    7  A    between atoms: C14_20  and  C15_21 
REMARK    8  A    between atoms: C15_21  and  N6_22 
ROOT
HETATM    1  C6  UNL     1      24.545   0.174  53.576  1.00  0.00     0.138 A 
HETATM    2  N2  UNL     1      24.630  -0.710  54.556  1.00  0.00    -0.224 NA
HETATM    3  C7  UNL     1      25.786  -0.902  55.191  1.00  0.00     0.236 A 
HETATM    4  N3  UNL     1      26.926  -0.228  54.895  1.00  0.00    -0.240 NA
HETATM    5  C8  UNL     1      26.883   0.684  53.902  1.00  0.00     0.089 A 
HETATM    6  C9  UNL     1      28.041   1.368  53.603  1.00  0.00     0.151 A 
HETATM    7  N4  UNL     1      27.974   2.278  52.604  1.00  0.00    -0.241 NA
HETATM    8  C10 UNL     1      26.832   2.515  51.925  1.00  0.00     0.131 A 
HETATM    9  C21 UNL     1      25.699   1.809  52.257  1.00  0.00     0.068 A 
HETATM   10  C22 UNL     1      25.685   0.866  53.261  1.00  0.00     0.043 A 
ENDROOT
BRANCH   8  11
HETATM   11  N5  UNL     1      26.786   3.478  50.878  1.00  0.00    -0.301 N 
HETATM   12  C11 UNL     1      26.059   3.856  49.715  1.00  0.00     0.302 C 
HETATM   13  O1  UNL     1      25.042   3.246  49.268  1.00  0.00    -0.258 OA
HETATM   14  H10 UNL     1      27.626   4.019  51.208  1.00  0.00     0.171 HD
BRANCH  12  15
HETATM   15  C12 UNL     1      26.557   5.023  49.036  1.00  0.00    -0.005 C 
HETATM   16  C13 UNL     1      26.969   6.015  48.463  1.00  0.00    -0.095 C 
BRANCH  16  17
HETATM   17  C14 UNL     1      27.465   7.213  47.798  1.00  0.00     0.114 C 
BRANCH  17  18
HETATM   18  C15 UNL     1      28.987   7.311  47.910  1.00  0.00     0.129 C 
BRANCH  18  19
HETATM   19  N6  UNL     1      29.312   8.262  48.927  1.00  0.00    -0.412 N 
HETATM   20  C16 UNL     1      30.686   8.645  48.962  1.00  0.00     0.117 C 
HETATM   21  C17 UNL     1      30.813   9.971  49.662  1.00  0.00     0.019 C 
HETATM   22  C18 UNL     1      30.145  11.053  48.845  1.00  0.00     0.003 C 
HETATM   23  C19 UNL     1      28.728  10.634  48.532  1.00  0.00     0.019 C 
HETATM   24  C20 UNL     1      28.365   9.310  49.130  1.00  0.00     0.117 C 
ENDBRANCH  18  19
ENDBRANCH  17  18
ENDBRANCH  16  17
ENDBRANCH  12  15
ENDBRANCH   8  11
BRANCH   1  25
HETATM   25  N1  UNL     1      23.295   0.402  52.890  1.00  0.00    -0.370 N 
HETATM   26  H7  UNL     1      23.013   1.242  52.352  1.00  0.00     0.161 HD
BRANCH  25  27
HETATM   27  C5  UNL     1      22.299  -0.641  52.937  1.00  0.00     0.159 C 
BRANCH  27  28
HETATM   28  C4  UNL     1      20.944  -0.162  52.538  1.00  0.00    -0.019 C 
HETATM   29  C3  UNL     1      19.797  -0.130  53.497  1.00  0.00     0.077 C 
HETATM   30  C2  UNL     1      18.583  -0.594  52.753  1.00  0.00    -0.054 C 
HETATM   31  C1  UNL     1      17.702  -1.551  52.995  1.00  0.00     0.020 C 
HETATM   32  P1  UNL     1      18.866   0.673  51.445  1.00  0.00    -0.034 P 
HETATM   33  C23 UNL     1      20.680   0.259  51.285  1.00  0.00     0.125 C 
HETATM   34  H26 UNL     1      18.709   1.991  52.042  1.00  0.00     0.069 HD
HETATM   35  F1  UNL     1      21.383   0.398  50.136  1.00  0.00    -0.205 F 
ENDBRANCH  27  28
ENDBRANCH  25  27
ENDBRANCH   1  25
TORSDOF 8
ENDMDL
MODEL 4
REMARK VINA RESULT:      -8.5      3.866      9.141
REMARK  8 active torsions:
REMARK  status: ('A' for Active; 'I' for Inactive)
REMARK    1  A    between atoms: C4_4  and  C5_5 
REMARK    2  A    between atoms: C5_5  and  N1_6 
REMARK    3  A    between atoms: N1_6  and  C6_7 
REMARK    4  A    between atoms: C10_14  and  N5_15 
REMARK       I    between atoms: N5_15  and  C11_16 
REMARK    5  A    between atoms: C11_16  and  C12_18 
REMARK    6  A    between atoms: C13_19  and  C14_20 
REMARK    7  A    between atoms: C14_20  and  C15_21 
REMARK    8  A    between atoms: C15_21  and  N6_22 
ROOT
HETATM    1  C6  UNL     1      23.054   0.585  52.814  1.00  0.00     0.138 A 
HETATM    2  N2  UNL     1      22.029   0.043  53.452  1.00  0.00    -0.224 NA
HETATM    3  C7  UNL     1      20.852   0.666  53.486  1.00  0.00     0.236 A 
HETATM    4  N3  UNL     1      20.618   1.863  52.888  1.00  0.00    -0.240 NA
HETATM    5  C8  UNL     1      21.635   2.450  52.226  1.00  0.00     0.089 A 
HETATM    6  C9  UNL     1      21.397   3.664  51.620  1.00  0.00     0.151 A 
HETATM    7  N4  UNL     1      22.432   4.234  50.962  1.00  0.00    -0.241 NA
HETATM    8  C10 UNL     1      23.647   3.651  50.894  1.00  0.00     0.131 A 
HETATM    9  C21 UNL     1      23.842   2.438  51.514  1.00  0.00     0.068 A 
HETATM   10  C22 UNL     1      22.839   1.793  52.204  1.00  0.00     0.043 A 
ENDROOT
BRANCH   8  11
HETATM   11  N5  UNL     1      24.721   4.269  50.194  1.00  0.00    -0.301 N 
HETATM   12  C11 UNL     1      26.007   4.020  49.639  1.00  0.00     0.302 C 
HETATM   13  O1  UNL     1      26.601   2.901  49.667  1.00  0.00    -0.258 OA
HETATM   14  H10 UNL     1      24.270   5.219  50.146  1.00  0.00     0.171 HD
BRANCH  12  15
HETATM   15  C12 UNL     1      26.631   5.154  49.011  1.00  0.00    -0.005 C 
HETATM   16  C13 UNL     1      27.155   6.111  48.471  1.00  0.00    -0.095 C 
BRANCH  16  17
HETATM   17  C14 UNL     1      27.762   7.270  47.828  1.00  0.00     0.114 C 
BRANCH  17  18
HETATM   18  C15 UNL     1      29.184   6.955  47.363  1.00  0.00     0.129 C 
BRANCH  18  19
HETATM   19  N6  UNL     1      30.056   6.991  48.495  1.00  0.00    -0.412 N 
HETATM   20  C16 UNL     1      30.993   5.915  48.555  1.00  0.00     0.117 C 
HETATM   21  C17 UNL     1      32.150   6.315  49.430  1.00  0.00     0.019 C 
HETATM   22  C18 UNL     1      32.921   7.445  48.784  1.00  0.00     0.003 C 
HETATM   23  C19 UNL     1      31.966   8.564  48.444  1.00  0.00     0.019 C 
HETATM   24  C20 UNL     1      30.556   8.276  48.859  1.00  0.00     0.117 C 
ENDBRANCH  18  19
ENDBRANCH  17  18
ENDBRANCH  16  17
ENDBRANCH  12  15
ENDBRANCH   8  11
BRANCH   1  25
HETATM   25  N1  UNL     1      24.331  -0.086  52.757  1.00  0.00    -0.370 N 
HETATM   26  H7  UNL     1      24.875  -0.340  51.912  1.00  0.00     0.161 HD
BRANCH  25  27
HETATM   27  C5  UNL     1      24.951  -0.463  54.004  1.00  0.00     0.159 C 
BRANCH  27  28
HETATM   28  C4  UNL     1      26.441  -0.426  53.941  1.00  0.00    -0.019 C 
HETATM   29  C3  UNL     1      27.252   0.475  54.817  1.00  0.00     0.077 C 
HETATM   30  C2  UNL     1      28.358   1.035  53.976  1.00  0.00    -0.054 C 
HETATM   31  C1  UNL     1      28.746   2.275  53.726  1.00  0.00     0.020 C 
HETATM   32  P1  UNL     1      28.879  -0.662  53.482  1.00  0.00    -0.034 P 
HETATM   33  C23 UNL     1      27.135  -1.198  53.082  1.00  0.00     0.125 C 
HETATM   34  H26 UNL     1      29.352  -1.360  54.668  1.00  0.00     0.069 HD
HETATM   35  F1  UNL     1      26.832  -2.124  52.141  1.00  0.00    -0.205 F 
ENDBRANCH  27  28
ENDBRANCH  25  27
ENDBRANCH   1  25
TORSDOF 8
ENDMDL
MODEL 5
REMARK VINA RESULT:      -8.5      4.004      9.074
REMARK  8 active torsions:
REMARK  status: ('A' for Active; 'I' for Inactive)
REMARK    1  A    between atoms: C4_4  and  C5_5 
REMARK    2  A    between atoms: C5_5  and  N1_6 
REMARK    3  A    between atoms: N1_6  and  C6_7 
REMARK    4  A    between atoms: C10_14  and  N5_15 
REMARK       I    between atoms: N5_15  and  C11_16 
REMARK    5  A    between atoms: C11_16  and  C12_18 
REMARK    6  A    between atoms: C13_19  and  C14_20 
REMARK    7  A    between atoms: C14_20  and  C15_21 
REMARK    8  A    between atoms: C15_21  and  N6_22 
ROOT
HETATM    1  C6  UNL     1      23.016   0.497  52.879  1.00  0.00     0.138 A 
HETATM    2  N2  UNL     1      21.959   0.011  53.510  1.00  0.00    -0.224 NA
HETATM    3  C7  UNL     1      20.815   0.693  53.531  1.00  0.00     0.236 A 
HETATM    4  N3  UNL     1      20.647   1.897  52.927  1.00  0.00    -0.240 NA
HETATM    5  C8  UNL     1      21.699   2.429  52.272  1.00  0.00     0.089 A 
HETATM    6  C9  UNL     1      21.528   3.652  51.659  1.00  0.00     0.151 A 
HETATM    7  N4  UNL     1      22.596   4.166  51.007  1.00  0.00    -0.241 NA
HETATM    8  C10 UNL     1      23.780   3.521  50.953  1.00  0.00     0.131 A 
HETATM    9  C21 UNL     1      23.908   2.302  51.579  1.00  0.00     0.068 A 
HETATM   10  C22 UNL     1      22.868   1.712  52.263  1.00  0.00     0.043 A 
ENDROOT
BRANCH   8  11
HETATM   11  N5  UNL     1      24.891   4.081  50.260  1.00  0.00    -0.301 N 
HETATM   12  C11 UNL     1      26.226   3.812  49.851  1.00  0.00     0.302 C 
HETATM   13  O1  UNL     1      26.851   2.735  50.086  1.00  0.00    -0.258 OA
HETATM   14  H10 UNL     1      24.416   4.994  50.040  1.00  0.00     0.171 HD
BRANCH  12  15
HETATM   15  C12 UNL     1      26.866   4.873  49.119  1.00  0.00    -0.005 C 
HETATM   16  C13 UNL     1      27.415   5.764  48.497  1.00  0.00    -0.095 C 
BRANCH  16  17
HETATM   17  C14 UNL     1      28.061   6.823  47.732  1.00  0.00     0.114 C 
BRANCH  17  18
HETATM   18  C15 UNL     1      29.473   7.092  48.255  1.00  0.00     0.129 C 
BRANCH  18  19
HETATM   19  N6  UNL     1      29.493   8.378  48.879  1.00  0.00    -0.412 N 
HETATM   20  C16 UNL     1      30.797   8.857  49.207  1.00  0.00     0.117 C 
HETATM   21  C17 UNL     1      30.753  10.354  49.351  1.00  0.00     0.019 C 
HETATM   22  C18 UNL     1      30.446  10.993  48.016  1.00  0.00     0.003 C 
HETATM   23  C19 UNL     1      29.192  10.373  47.447  1.00  0.00     0.019 C 
HETATM   24  C20 UNL     1      28.587   9.344  48.351  1.00  0.00     0.117 C 
ENDBRANCH  18  19
ENDBRANCH  17  18
ENDBRANCH  16  17
ENDBRANCH  12  15
ENDBRANCH   8  11
BRANCH   1  25
HETATM   25  N1  UNL     1      24.257  -0.238  52.836  1.00  0.00    -0.370 N 
HETATM   26  H7  UNL     1      24.748  -0.602  51.998  1.00  0.00     0.161 HD
BRANCH  25  27
HETATM   27  C5  UNL     1      24.920  -0.517  54.087  1.00  0.00     0.159 C 
BRANCH  27  28
HETATM   28  C4  UNL     1      26.407  -0.454  53.979  1.00  0.00    -0.019 C 
HETATM   29  C3  UNL     1      27.223   0.501  54.789  1.00  0.00     0.077 C 
HETATM   30  C2  UNL     1      28.292   1.044  53.892  1.00  0.00    -0.054 C 
HETATM   31  C1  UNL     1      28.647   2.279  53.575  1.00  0.00     0.020 C 
HETATM   32  P1  UNL     1      28.834  -0.663  53.459  1.00  0.00    -0.034 P 
HETATM   33  C23 UNL     1      27.092  -1.250  53.135  1.00  0.00     0.125 C 
HETATM   34  H26 UNL     1      29.356  -1.297  54.661  1.00  0.00     0.069 HD
HETATM   35  F1  UNL     1      26.782  -2.224  52.246  1.00  0.00    -0.205 F 
ENDBRANCH  27  28
ENDBRANCH  25  27
ENDBRANCH   1  25
TORSDOF 8
ENDMDL
MODEL 6
REMARK VINA RESULT:      -8.4      3.665      8.406
REMARK  8 active torsions:
REMARK  status: ('A' for Active; 'I' for Inactive)
REMARK    1  A    between atoms: C4_4  and  C5_5 
REMARK    2  A    between atoms: C5_5  and  N1_6 
REMARK    3  A    between atoms: N1_6  and  C6_7 
REMARK    4  A    between atoms: C10_14  and  N5_15 
REMARK       I    between atoms: N5_15  and  C11_16 
REMARK    5  A    between atoms: C11_16  and  C12_18 
REMARK    6  A    between atoms: C13_19  and  C14_20 
REMARK    7  A    between atoms: C14_20  and  C15_21 
REMARK    8  A    between atoms: C15_21  and  N6_22 
ROOT
HETATM    1  C6  UNL     1      24.058   0.203  53.230  1.00  0.00     0.138 A 
HETATM    2  N2  UNL     1      23.919  -0.672  54.213  1.00  0.00    -0.224 NA
HETATM    3  C7  UNL     1      24.952  -0.971  55.000  1.00  0.00     0.236 A 
HETATM    4  N3  UNL     1      26.186  -0.419  54.861  1.00  0.00    -0.240 NA
HETATM    5  C8  UNL     1      26.371   0.478  53.872  1.00  0.00     0.089 A 
HETATM    6  C9  UNL     1      27.623   1.037  53.733  1.00  0.00     0.151 A 
HETATM    7  N4  UNL     1      27.785   1.935  52.734  1.00  0.00    -0.241 NA
HETATM    8  C10 UNL     1      26.776   2.277  51.907  1.00  0.00     0.131 A 
HETATM    9  C21 UNL     1      25.541   1.694  52.081  1.00  0.00     0.068 A 
HETATM   10  C22 UNL     1      25.295   0.771  53.074  1.00  0.00     0.043 A 
ENDROOT
BRANCH   8  11
HETATM   11  N5  UNL     1      26.970   3.226  50.863  1.00  0.00    -0.301 N 
HETATM   12  C11 UNL     1      26.340   3.812  49.730  1.00  0.00     0.302 C 
HETATM   13  O1  UNL     1      25.174   3.528  49.325  1.00  0.00    -0.258 OA
HETATM   14  H10 UNL     1      27.943   3.496  51.159  1.00  0.00     0.171 HD
BRANCH  12  15
HETATM   15  C12 UNL     1      27.128   4.793  49.033  1.00  0.00    -0.005 C 
HETATM   16  C13 UNL     1      27.803   5.621  48.448  1.00  0.00    -0.095 C 
BRANCH  16  17
HETATM   17  C14 UNL     1      28.619   6.594  47.733  1.00  0.00     0.114 C 
BRANCH  17  18
HETATM   18  C15 UNL     1      30.015   6.696  48.349  1.00  0.00     0.129 C 
BRANCH  18  19
HETATM   19  N6  UNL     1      30.604   7.935  47.949  1.00  0.00    -0.412 N 
HETATM   20  C16 UNL     1      29.772   8.747  47.120  1.00  0.00     0.117 C 
HETATM   21  C17 UNL     1      30.238  10.175  47.199  1.00  0.00     0.019 C 
HETATM   22  C18 UNL     1      30.016  10.716  48.593  1.00  0.00     0.003 C 
HETATM   23  C19 UNL     1      30.657   9.783  49.594  1.00  0.00     0.019 C 
HETATM   24  C20 UNL     1      31.352   8.624  48.950  1.00  0.00     0.117 C 
ENDBRANCH  18  19
ENDBRANCH  17  18
ENDBRANCH  16  17
ENDBRANCH  12  15
ENDBRANCH   8  11
BRANCH   1  25
HETATM   25  N1  UNL     1      22.943   0.547  52.381  1.00  0.00    -0.370 N 
HETATM   26  H7  UNL     1      22.745   0.197  51.425  1.00  0.00     0.161 HD
BRANCH  25  27
HETATM   27  C5  UNL     1      21.972   1.485  52.889  1.00  0.00     0.159 C 
BRANCH  27  28
HETATM   28  C4  UNL     1      21.837   2.698  52.031  1.00  0.00    -0.019 C 
HETATM   29  C3  UNL     1      20.871   2.764  50.892  1.00  0.00     0.077 C 
HETATM   30  C2  UNL     1      21.564   3.459  49.761  1.00  0.00    -0.054 C 
HETATM   31  C1  UNL     1      21.773   3.118  48.500  1.00  0.00     0.020 C 
HETATM   32  P1  UNL     1      21.968   4.889  50.851  1.00  0.00    -0.034 P 
HETATM   33  C23 UNL     1      22.590   3.798  52.233  1.00  0.00     0.125 C 
HETATM   34  H26 UNL     1      20.723   5.530  51.247  1.00  0.00     0.069 HD
HETATM   35  F1  UNL     1      23.553   4.172  53.108  1.00  0.00    -0.205 F 
ENDBRANCH  27  28
ENDBRANCH  25  27
ENDBRANCH   1  25
TORSDOF 8
ENDMDL
MODEL 7
REMARK VINA RESULT:      -8.3      4.261      8.143
REMARK  8 active torsions:
REMARK  status: ('A' for Active; 'I' for Inactive)
REMARK    1  A    between atoms: C4_4  and  C5_5 
REMARK    2  A    between atoms: C5_5  and  N1_6 
REMARK    3  A    between atoms: N1_6  and  C6_7 
REMARK    4  A    between atoms: C10_14  and  N5_15 
REMARK       I    between atoms: N5_15  and  C11_16 
REMARK    5  A    between atoms: C11_16  and  C12_18 
REMARK    6  A    between atoms: C13_19  and  C14_20 
REMARK    7  A    between atoms: C14_20  and  C15_21 
REMARK    8  A    between atoms: C15_21  and  N6_22 
ROOT
HETATM    1  C6  UNL     1      28.712   6.435  47.774  1.00  0.00     0.138 A 
HETATM    2  N2  UNL     1      29.026   7.504  47.060  1.00  0.00    -0.224 NA
HETATM    3  C7  UNL     1      28.097   8.411  46.759  1.00  0.00     0.236 A 
HETATM    4  N3  UNL     1      26.800   8.314  47.150  1.00  0.00    -0.240 NA
HETATM    5  C8  UNL     1      26.436   7.241  47.880  1.00  0.00     0.089 A 
HETATM    6  C9  UNL     1      25.120   7.144  48.276  1.00  0.00     0.151 A 
HETATM    7  N4  UNL     1      24.778   6.059  49.008  1.00  0.00    -0.241 NA
HETATM    8  C10 UNL     1      25.676   5.109  49.342  1.00  0.00     0.131 A 
HETATM    9  C21 UNL     1      26.980   5.244  48.926  1.00  0.00     0.068 A 
HETATM   10  C22 UNL     1      27.407   6.319  48.178  1.00  0.00     0.043 A 
ENDROOT
BRANCH   8  11
HETATM   11  N5  UNL     1      25.293   3.975  50.115  1.00  0.00    -0.301 N 
HETATM   12  C11 UNL     1      24.193   3.125  50.414  1.00  0.00     0.302 C 
HETATM   13  O1  UNL     1      23.033   3.242  49.916  1.00  0.00    -0.258 OA
HETATM   14  H10 UNL     1      26.238   3.836  50.557  1.00  0.00     0.171 HD
BRANCH  12  15
HETATM   15  C12 UNL     1      24.473   2.071  51.353  1.00  0.00    -0.005 C 
HETATM   16  C13 UNL     1      24.720   1.181  52.146  1.00  0.00    -0.095 C 
BRANCH  16  17
HETATM   17  C14 UNL     1      25.017   0.133  53.114  1.00  0.00     0.114 C 
BRANCH  17  18
HETATM   18  C15 UNL     1      26.141  -0.773  52.612  1.00  0.00     0.129 C 
BRANCH  18  19
HETATM   19  N6  UNL     1      27.208  -0.752  53.562  1.00  0.00    -0.412 N 
HETATM   20  C16 UNL     1      28.416  -1.363  53.110  1.00  0.00     0.117 C 
HETATM   21  C17 UNL     1      29.570  -0.838  53.921  1.00  0.00     0.019 C 
HETATM   22  C18 UNL     1      29.771   0.634  53.642  1.00  0.00     0.003 C 
HETATM   23  C19 UNL     1      28.464   1.361  53.854  1.00  0.00     0.019 C 
HETATM   24  C20 UNL     1      27.359   0.456  54.306  1.00  0.00     0.117 C 
ENDBRANCH  18  19
ENDBRANCH  17  18
ENDBRANCH  16  17
ENDBRANCH  12  15
ENDBRANCH   8  11
BRANCH   1  25
HETATM   25  N1  UNL     1      29.712   5.453  48.119  1.00  0.00    -0.370 N 
HETATM   26  H7  UNL     1      29.647   4.423  48.021  1.00  0.00     0.161 HD
BRANCH  25  27
HETATM   27  C5  UNL     1      30.960   5.925  48.666  1.00  0.00     0.159 C 
BRANCH  27  28
HETATM   28  C4  UNL     1      32.145   5.235  48.078  1.00  0.00    -0.019 C 
HETATM   29  C3  UNL     1      32.011   4.029  47.205  1.00  0.00     0.077 C 
HETATM   30  C2  UNL     1      33.101   3.078  47.591  1.00  0.00    -0.054 C 
HETATM   31  C1  UNL     1      33.084   1.807  47.960  1.00  0.00     0.020 C 
HETATM   32  P1  UNL     1      34.372   4.390  47.346  1.00  0.00    -0.034 P 
HETATM   33  C23 UNL     1      33.403   5.660  48.313  1.00  0.00     0.125 C 
HETATM   34  H26 UNL     1      34.393   4.750  45.936  1.00  0.00     0.069 HD
HETATM   35  F1  UNL     1      33.976   6.667  49.013  1.00  0.00    -0.205 F 
ENDBRANCH  27  28
ENDBRANCH  25  27
ENDBRANCH   1  25
TORSDOF 8
ENDMDL
MODEL 8
REMARK VINA RESULT:      -8.3      3.422      4.526
REMARK  8 active torsions:
REMARK  status: ('A' for Active; 'I' for Inactive)
REMARK    1  A    between atoms: C4_4  and  C5_5 
REMARK    2  A    between atoms: C5_5  and  N1_6 
REMARK    3  A    between atoms: N1_6  and  C6_7 
REMARK    4  A    between atoms: C10_14  and  N5_15 
REMARK       I    between atoms: N5_15  and  C11_16 
REMARK    5  A    between atoms: C11_16  and  C12_18 
REMARK    6  A    between atoms: C13_19  and  C14_20 
REMARK    7  A    between atoms: C14_20  and  C15_21 
REMARK    8  A    between atoms: C15_21  and  N6_22 
ROOT
HETATM    1  C6  UNL     1      23.700   0.998  52.843  1.00  0.00     0.138 A 
HETATM    2  N2  UNL     1      24.982   0.931  53.165  1.00  0.00    -0.224 NA
HETATM    3  C7  UNL     1      25.406   0.036  54.056  1.00  0.00     0.236 A 
HETATM    4  N3  UNL     1      24.586  -0.849  54.680  1.00  0.00    -0.240 NA
HETATM    5  C8  UNL     1      23.272  -0.815  54.380  1.00  0.00     0.089 A 
HETATM    6  C9  UNL     1      22.441  -1.714  55.014  1.00  0.00     0.151 A 
HETATM    7  N4  UNL     1      21.127  -1.662  54.698  1.00  0.00    -0.241 NA
HETATM    8  C10 UNL     1      20.640  -0.776  53.803  1.00  0.00     0.131 A 
HETATM    9  C21 UNL     1      21.504   0.103  53.194  1.00  0.00     0.068 A 
HETATM   10  C22 UNL     1      22.856   0.114  53.462  1.00  0.00     0.043 A 
ENDROOT
BRANCH   8  11
HETATM   11  N5  UNL     1      19.252  -0.741  53.485  1.00  0.00    -0.301 N 
HETATM   12  C11 UNL     1      18.080  -1.544  53.432  1.00  0.00     0.302 C 
HETATM   13  O1  UNL     1      18.030  -2.773  53.741  1.00  0.00    -0.258 OA
HETATM   14  H10 UNL     1      19.241   0.276  53.216  1.00  0.00     0.171 HD
BRANCH  12  15
HETATM   15  C12 UNL     1      16.892  -0.863  52.990  1.00  0.00    -0.005 C 
HETATM   16  C13 UNL     1      15.893  -0.281  52.610  1.00  0.00    -0.095 C 
BRANCH  16  17
HETATM   17  C14 UNL     1      14.694   0.400  52.136  1.00  0.00     0.114 C 
BRANCH  17  18
HETATM   18  C15 UNL     1      14.648   1.842  52.642  1.00  0.00     0.129 C 
BRANCH  18  19
HETATM   19  N6  UNL     1      13.282   2.227  52.809  1.00  0.00    -0.412 N 
HETATM   20  C16 UNL     1      12.658   1.706  53.982  1.00  0.00     0.117 C 
HETATM   21  C17 UNL     1      11.466   2.557  54.329  1.00  0.00     0.019 C 
HETATM   22  C18 UNL     1      11.920   3.942  54.732  1.00  0.00     0.003 C 
HETATM   23  C19 UNL     1      12.809   4.506  53.650  1.00  0.00     0.019 C 
HETATM   24  C20 UNL     1      12.969   3.581  52.483  1.00  0.00     0.117 C 
ENDBRANCH  18  19
ENDBRANCH  17  18
ENDBRANCH  16  17
ENDBRANCH  12  15
ENDBRANCH   8  11
BRANCH   1  25
HETATM   25  N1  UNL     1      23.230   1.954  51.869  1.00  0.00    -0.370 N 
HETATM   26  H7  UNL     1      22.704   1.761  50.996  1.00  0.00     0.161 HD
BRANCH  25  27
HETATM   27  C5  UNL     1      23.505   3.350  52.105  1.00  0.00     0.159 C 
BRANCH  27  28
HETATM   28  C4  UNL     1      23.910   4.076  50.866  1.00  0.00    -0.019 C 
HETATM   29  C3  UNL     1      24.677   3.410  49.769  1.00  0.00     0.077 C 
HETATM   30  C2  UNL     1      25.704   4.388  49.288  1.00  0.00    -0.054 C 
HETATM   31  C1  UNL     1      27.018   4.304  49.152  1.00  0.00     0.020 C 
HETATM   32  P1  UNL     1      24.402   5.661  49.008  1.00  0.00    -0.034 P 
HETATM   33  C23 UNL     1      23.613   5.377  50.676  1.00  0.00     0.125 C 
HETATM   34  H26 UNL     1      23.518   5.188  47.953  1.00  0.00     0.069 HD
HETATM   35  F1  UNL     1      22.962   6.339  51.372  1.00  0.00    -0.205 F 
ENDBRANCH  27  28
ENDBRANCH  25  27
ENDBRANCH   1  25
TORSDOF 8
ENDMDL
MODEL 9
REMARK VINA RESULT:      -8.2      3.630      8.609
REMARK  8 active torsions:
REMARK  status: ('A' for Active; 'I' for Inactive)
REMARK    1  A    between atoms: C4_4  and  C5_5 
REMARK    2  A    between atoms: C5_5  and  N1_6 
REMARK    3  A    between atoms: N1_6  and  C6_7 
REMARK    4  A    between atoms: C10_14  and  N5_15 
REMARK       I    between atoms: N5_15  and  C11_16 
REMARK    5  A    between atoms: C11_16  and  C12_18 
REMARK    6  A    between atoms: C13_19  and  C14_20 
REMARK    7  A    between atoms: C14_20  and  C15_21 
REMARK    8  A    between atoms: C15_21  and  N6_22 
ROOT
HETATM    1  C6  UNL     1      23.620   0.019  53.230  1.00  0.00     0.138 A 
HETATM    2  N2  UNL     1      23.382  -0.835  54.212  1.00  0.00    -0.224 NA
HETATM    3  C7  UNL     1      24.357  -1.187  55.049  1.00  0.00     0.236 A 
HETATM    4  N3  UNL     1      25.626  -0.713  54.965  1.00  0.00    -0.240 NA
HETATM    5  C8  UNL     1      25.913   0.161  53.979  1.00  0.00     0.089 A 
HETATM    6  C9  UNL     1      27.201   0.641  53.895  1.00  0.00     0.151 A 
HETATM    7  N4  UNL     1      27.465   1.517  52.898  1.00  0.00    -0.241 NA
HETATM    8  C10 UNL     1      26.518   1.909  52.020  1.00  0.00     0.131 A 
HETATM    9  C21 UNL     1      25.244   1.405  52.140  1.00  0.00     0.068 A 
HETATM   10  C22 UNL     1      24.895   0.509  53.127  1.00  0.00     0.043 A 
ENDROOT
BRANCH   8  11
HETATM   11  N5  UNL     1      26.819   2.833  50.979  1.00  0.00    -0.301 N 
HETATM   12  C11 UNL     1      26.276   3.451  49.818  1.00  0.00     0.302 C 
HETATM   13  O1  UNL     1      25.110   3.245  49.368  1.00  0.00    -0.258 OA
HETATM   14  H10 UNL     1      27.796   3.038  51.311  1.00  0.00     0.171 HD
BRANCH  12  15
HETATM   15  C12 UNL     1      27.158   4.369  49.147  1.00  0.00    -0.005 C 
HETATM   16  C13 UNL     1      27.911   5.139  48.580  1.00  0.00    -0.095 C 
BRANCH  16  17
HETATM   17  C14 UNL     1      28.810   6.049  47.880  1.00  0.00     0.114 C 
BRANCH  17  18
HETATM   18  C15 UNL     1      30.219   5.986  48.469  1.00  0.00     0.129 C 
BRANCH  18  19
HETATM   19  N6  UNL     1      31.148   5.736  47.412  1.00  0.00    -0.412 N 
HETATM   20  C16 UNL     1      32.106   6.774  47.207  1.00  0.00     0.117 C 
HETATM   21  C17 UNL     1      33.300   6.211  46.485  1.00  0.00     0.019 C 
HETATM   22  C18 UNL     1      34.015   5.214  47.368  1.00  0.00     0.003 C 
HETATM   23  C19 UNL     1      33.024   4.184  47.855  1.00  0.00     0.019 C 
HETATM   24  C20 UNL     1      31.643   4.401  47.318  1.00  0.00     0.117 C 
ENDBRANCH  18  19
ENDBRANCH  17  18
ENDBRANCH  16  17
ENDBRANCH  12  15
ENDBRANCH   8  11
BRANCH   1  25
HETATM   25  N1  UNL     1      22.570   0.420  52.325  1.00  0.00    -0.370 N 
HETATM   26  H7  UNL     1      22.394   0.071  51.365  1.00  0.00     0.161 HD
BRANCH  25  27
HETATM   27  C5  UNL     1      21.636   1.424  52.777  1.00  0.00     0.159 C 
BRANCH  27  28
HETATM   28  C4  UNL     1      21.617   2.630  51.900  1.00  0.00    -0.019 C 
HETATM   29  C3  UNL     1      20.686   2.753  50.737  1.00  0.00     0.077 C 
HETATM   30  C2  UNL     1      21.458   3.377  49.615  1.00  0.00    -0.054 C 
HETATM   31  C1  UNL     1      21.670   3.001  48.363  1.00  0.00     0.020 C 
HETATM   32  P1  UNL     1      21.945   4.787  50.696  1.00  0.00    -0.034 P 
HETATM   33  C23 UNL     1      22.447   3.672  52.107  1.00  0.00     0.125 C 
HETATM   34  H26 UNL     1      20.744   5.528  51.052  1.00  0.00     0.069 HD
HETATM   35  F1  UNL     1      23.414   3.983  53.002  1.00  0.00    -0.205 F 
ENDBRANCH  27  28
ENDBRANCH  25  27
ENDBRANCH   1  25
TORSDOF 8
ENDMDL
