MODEL 1
REMARK VINA RESULT:      -8.7      0.000      0.000
REMARK  7 active torsions:
REMARK  status: ('A' for Active; 'I' for Inactive)
REMARK       I    between atoms: C1_2  and  N1_3 
REMARK       I    between atoms: C1_2  and  N2_5 
REMARK    1  A    between atoms: N2_5  and  C2_6 
REMARK    2  A    between atoms: C5_9  and  C6_10 
REMARK    3  A    between atoms: C6_10  and  C7_11 
REMARK    4  A    between atoms: C7_11  and  C8_13 
REMARK    5  A    between atoms: C8_13  and  O2_14 
REMARK    6  A    between atoms: O2_14  and  C9_15 
REMARK    7  A    between atoms: C9_15  and  C10_16 
ROOT
HETATM    1  C2  UNL     1      25.565   2.742  51.360  1.00  0.00     0.019 C 
HETATM    2  C3  UNL     1      24.307   2.259  51.127  1.00  0.00    -0.000 C 
HETATM    3  C4  UNL     1      24.235   0.925  51.705  1.00  0.00     0.039 C 
HETATM    4  C5  UNL     1      23.681   0.918  53.132  1.00  0.00     0.031 C 
HETATM    5  C16 UNL     1      24.226  -0.416  53.707  1.00  0.00     0.130 C 
HETATM    6  N3  UNL     1      25.595  -0.537  53.219  1.00  0.00    -0.374 N 
HETATM    7  C17 UNL     1      26.764   0.201  53.446  1.00  0.00     0.129 C 
HETATM    8  N4  UNL     1      27.205  -0.426  54.450  1.00  0.00    -0.225 NA
HETATM    9  C18 UNL     1      28.475   0.020  55.009  1.00  0.00     0.229 C 
HETATM   10  N5  UNL     1      29.080   0.999  54.437  1.00  0.00    -0.278 NA
HETATM   11  C19 UNL     1      28.695   1.741  53.286  1.00  0.00     0.189 C 
HETATM   12  C20 UNL     1      27.326   1.475  52.861  1.00  0.00    -0.004 C 
HETATM   13  C21 UNL     1      26.855   2.462  52.067  1.00  0.00     0.084 C 
HETATM   14  H19 UNL     1      25.770  -1.349  52.548  1.00  0.00     0.161 HD
ENDROOT
BRANCH   4  15
HETATM   15  C6  UNL     1      22.287   1.152  53.192  1.00  0.00     0.001 C 
BRANCH  15  16
HETATM   16  C7  UNL     1      20.953   1.151  52.986  1.00  0.00     0.032 C 
HETATM   17 CL1  UNL     1      19.861  -0.268  53.008  1.00  0.00    -0.087 Cl
BRANCH  16  18
HETATM   18  C8  UNL     1      19.965   2.216  52.700  1.00  0.00     0.218 C 
BRANCH  18  19
HETATM   19  O2  UNL     1      20.593   3.304  52.064  1.00  0.00    -0.381 OA
BRANCH  19  20
HETATM   20  C9  UNL     1      19.970   3.386  50.810  1.00  0.00     0.206 C 
BRANCH  20  21
HETATM   21  C10 UNL     1      20.835   2.862  49.739  1.00  0.00    -0.035 A 
HETATM   22  C11 UNL     1      20.936   1.555  49.335  1.00  0.00     0.009 A 
HETATM   23  C12 UNL     1      21.811   1.257  48.304  1.00  0.00     0.001 A 
HETATM   24  C13 UNL     1      22.588   2.195  47.657  1.00  0.00     0.000 A 
HETATM   25  C14 UNL     1      22.463   3.507  48.088  1.00  0.00     0.001 A 
HETATM   26  C15 UNL     1      21.604   3.830  49.109  1.00  0.00     0.009 A 
ENDBRANCH  20  21
ENDBRANCH  19  20
ENDBRANCH  18  19
ENDBRANCH  16  18
ENDBRANCH  15  16
ENDBRANCH   4  15
BRANCH   1  27
HETATM   27  N2  UNL     1      25.941   4.040  50.898  1.00  0.00    -0.310 N 
HETATM   28  C1  UNL     1      26.704   4.373  49.763  1.00  0.00     0.348 C 
HETATM   29  O1  UNL     1      27.131   3.471  49.018  1.00  0.00    -0.245 OA
HETATM   30  N1  UNL     1      27.140   5.608  49.219  1.00  0.00    -0.173 N 
HETATM   31  F1  UNL     1      27.890   5.599  48.071  1.00  0.00    -0.097 F 
HETATM   32  H1  UNL     1      26.827   6.447  49.785  1.00  0.00     0.204 HD
HETATM   33  H2  UNL     1      25.756   5.021  51.278  1.00  0.00     0.170 HD
ENDBRANCH   1  27
TORSDOF 7
ENDMDL
MODEL 2
REMARK VINA RESULT:      -8.6      3.446      5.867
REMARK  7 active torsions:
REMARK  status: ('A' for Active; 'I' for Inactive)
REMARK       I    between atoms: C1_2  and  N1_3 
REMARK       I    between atoms: C1_2  and  N2_5 
REMARK    1  A    between atoms: N2_5  and  C2_6 
REMARK    2  A    between atoms: C5_9  and  C6_10 
REMARK    3  A    between atoms: C6_10  and  C7_11 
REMARK    4  A    between atoms: C7_11  and  C8_13 
REMARK    5  A    between atoms: C8_13  and  O2_14 
REMARK    6  A    between atoms: O2_14  and  C9_15 
REMARK    7  A    between atoms: C9_15  and  C10_16 
ROOT
HETATM    1  C2  UNL     1      25.876   1.615  52.068  1.00  0.00     0.019 C 
HETATM    2  C3  UNL     1      25.544   2.658  51.248  1.00  0.00    -0.000 C 
HETATM    3  C4  UNL     1      24.094   2.668  51.116  1.00  0.00     0.039 C 
HETATM    4  C5  UNL     1      23.405   3.592  52.124  1.00  0.00     0.031 C 
HETATM    5  C16 UNL     1      21.966   3.018  52.191  1.00  0.00     0.130 C 
HETATM    6  N3  UNL     1      22.108   1.567  52.177  1.00  0.00    -0.374 N 
HETATM    7  C17 UNL     1      22.667   0.649  53.075  1.00  0.00     0.129 C 
HETATM    8  N4  UNL     1      21.646   0.410  53.779  1.00  0.00    -0.225 NA
HETATM    9  C18 UNL     1      21.791  -0.558  54.858  1.00  0.00     0.229 C 
HETATM   10  N5  UNL     1      22.933  -1.128  55.013  1.00  0.00    -0.278 NA
HETATM   11  C19 UNL     1      24.126  -0.966  54.255  1.00  0.00     0.189 C 
HETATM   12  C20 UNL     1      24.074   0.163  53.334  1.00  0.00    -0.004 C 
HETATM   13  C21 UNL     1      25.312   0.549  52.955  1.00  0.00     0.084 C 
HETATM   14  H19 UNL     1      21.713   1.078  51.313  1.00  0.00     0.161 HD
ENDROOT
BRANCH   4  15
HETATM   15  C6  UNL     1      23.565   4.966  51.821  1.00  0.00     0.001 C 
BRANCH  15  16
HETATM   16  C7  UNL     1      23.752   6.155  51.212  1.00  0.00     0.032 C 
HETATM   17 CL1  UNL     1      22.490   7.345  50.764  1.00  0.00    -0.087 Cl
BRANCH  16  18
HETATM   18  C8  UNL     1      24.951   6.876  50.730  1.00  0.00     0.218 C 
BRANCH  18  19
HETATM   19  O2  UNL     1      24.943   6.952  49.325  1.00  0.00    -0.381 OA
BRANCH  19  20
HETATM   20  C9  UNL     1      25.679   5.834  48.907  1.00  0.00     0.206 C 
BRANCH  20  21
HETATM   21  C10 UNL     1      27.001   6.218  48.384  1.00  0.00    -0.035 A 
HETATM   22  C11 UNL     1      27.322   7.393  47.755  1.00  0.00     0.009 A 
HETATM   23  C12 UNL     1      28.627   7.571  47.331  1.00  0.00     0.001 A 
HETATM   24  C13 UNL     1      29.627   6.637  47.502  1.00  0.00     0.000 A 
HETATM   25  C14 UNL     1      29.272   5.459  48.141  1.00  0.00     0.001 A 
HETATM   26  C15 UNL     1      27.984   5.256  48.571  1.00  0.00     0.009 A 
ENDBRANCH  20  21
ENDBRANCH  19  20
ENDBRANCH  18  19
ENDBRANCH  16  18
ENDBRANCH  15  16
ENDBRANCH   4  15
BRANCH   1  27
HETATM   27  N2  UNL     1      27.244   1.344  52.380  1.00  0.00    -0.310 N 
HETATM   28  C1  UNL     1      28.030   1.906  53.402  1.00  0.00     0.348 C 
HETATM   29  O1  UNL     1      27.534   2.745  54.175  1.00  0.00    -0.245 OA
HETATM   30  N1  UNL     1      29.381   1.721  53.796  1.00  0.00    -0.173 N 
HETATM   31  F1  UNL     1      29.865   2.436  54.862  1.00  0.00    -0.097 F 
HETATM   32  H1  UNL     1      29.898   1.019  53.195  1.00  0.00     0.204 HD
HETATM   33  H2  UNL     1      27.967   0.694  51.939  1.00  0.00     0.170 HD
ENDBRANCH   1  27
TORSDOF 7
ENDMDL
MODEL 3
REMARK VINA RESULT:      -8.5      3.043      4.446
REMARK  7 active torsions:
REMARK  status: ('A' for Active; 'I' for Inactive)
REMARK       I    between atoms: C1_2  and  N1_3 
REMARK       I    between atoms: C1_2  and  N2_5 
REMARK    1  A    between atoms: N2_5  and  C2_6 
REMARK    2  A    between atoms: C5_9  and  C6_10 
REMARK    3  A    between atoms: C6_10  and  C7_11 
REMARK    4  A    between atoms: C7_11  and  C8_13 
REMARK    5  A    between atoms: C8_13  and  O2_14 
REMARK    6  A    between atoms: O2_14  and  C9_15 
REMARK    7  A    between atoms: C9_15  and  C10_16 
ROOT
HETATM    1  C2  UNL     1      26.085   1.195  52.344  1.00  0.00     0.019 C 
HETATM    2  C3  UNL     1      25.771   2.154  51.422  1.00  0.00    -0.000 C 
HETATM    3  C4  UNL     1      24.327   2.127  51.235  1.00  0.00     0.039 C 
HETATM    4  C5  UNL     1      23.586   3.124  52.129  1.00  0.00     0.031 C 
HETATM    5  C16 UNL     1      22.154   2.533  52.193  1.00  0.00     0.130 C 
HETATM    6  N3  UNL     1      22.317   1.089  52.315  1.00  0.00    -0.374 N 
HETATM    7  C17 UNL     1      22.853   0.265  53.313  1.00  0.00     0.129 C 
HETATM    8  N4  UNL     1      21.809   0.072  53.996  1.00  0.00    -0.225 NA
HETATM    9  C18 UNL     1      21.926  -0.793  55.163  1.00  0.00     0.229 C 
HETATM   10  N5  UNL     1      23.069  -1.327  55.411  1.00  0.00    -0.278 NA
HETATM   11  C19 UNL     1      24.288  -1.212  54.687  1.00  0.00     0.189 C 
HETATM   12  C20 UNL     1      24.256  -0.170  53.667  1.00  0.00    -0.004 C 
HETATM   13  C21 UNL     1      25.503   0.202  53.302  1.00  0.00     0.084 C 
HETATM   14  H19 UNL     1      21.963   0.518  51.485  1.00  0.00     0.161 HD
ENDROOT
BRANCH   4  15
HETATM   15  C6  UNL     1      23.738   4.468  51.710  1.00  0.00     0.001 C 
BRANCH  15  16
HETATM   16  C7  UNL     1      23.539   5.732  51.281  1.00  0.00     0.032 C 
HETATM   17 CL1  UNL     1      24.790   6.984  51.005  1.00  0.00    -0.087 Cl
BRANCH  16  18
HETATM   18  C8  UNL     1      22.334   6.501  50.899  1.00  0.00     0.218 C 
BRANCH  18  19
HETATM   19  O2  UNL     1      21.248   5.631  50.687  1.00  0.00    -0.381 OA
BRANCH  19  20
HETATM   20  C9  UNL     1      21.193   5.469  49.295  1.00  0.00     0.206 C 
BRANCH  20  21
HETATM   21  C10 UNL     1      21.461   4.076  48.900  1.00  0.00    -0.035 A 
HETATM   22  C11 UNL     1      22.576   3.609  48.252  1.00  0.00     0.009 A 
HETATM   23  C12 UNL     1      22.646   2.257  47.964  1.00  0.00     0.001 A 
HETATM   24  C13 UNL     1      21.660   1.348  48.289  1.00  0.00     0.000 A 
HETATM   25  C14 UNL     1      20.546   1.850  48.943  1.00  0.00     0.001 A 
HETATM   26  C15 UNL     1      20.451   3.187  49.240  1.00  0.00     0.009 A 
ENDBRANCH  20  21
ENDBRANCH  19  20
ENDBRANCH  18  19
ENDBRANCH  16  18
ENDBRANCH  15  16
ENDBRANCH   4  15
BRANCH   1  27
HETATM   27  N2  UNL     1      27.443   0.977  52.731  1.00  0.00    -0.310 N 
HETATM   28  C1  UNL     1      28.222   1.727  53.631  1.00  0.00     0.348 C 
HETATM   29  O1  UNL     1      27.727   2.713  54.206  1.00  0.00    -0.245 OA
HETATM   30  N1  UNL     1      29.563   1.611  54.079  1.00  0.00    -0.173 N 
HETATM   31  F1  UNL     1      30.042   2.523  54.985  1.00  0.00    -0.097 F 
HETATM   32  H1  UNL     1      30.079   0.794  53.644  1.00  0.00     0.204 HD
HETATM   33  H2  UNL     1      28.164   0.242  52.446  1.00  0.00     0.170 HD
ENDBRANCH   1  27
TORSDOF 7
ENDMDL
MODEL 4
REMARK VINA RESULT:      -7.8      3.667      6.174
REMARK  7 active torsions:
REMARK  status: ('A' for Active; 'I' for Inactive)
REMARK       I    between atoms: C1_2  and  N1_3 
REMARK       I    between atoms: C1_2  and  N2_5 
REMARK    1  A    between atoms: N2_5  and  C2_6 
REMARK    2  A    between atoms: C5_9  and  C6_10 
REMARK    3  A    between atoms: C6_10  and  C7_11 
REMARK    4  A    between atoms: C7_11  and  C8_13 
REMARK    5  A    between atoms: C8_13  and  O2_14 
REMARK    6  A    between atoms: O2_14  and  C9_15 
REMARK    7  A    between atoms: C9_15  and  C10_16 
ROOT
HETATM    1  C2  UNL     1      22.611   1.809  52.746  1.00  0.00     0.019 C 
HETATM    2  C3  UNL     1      22.533   2.969  52.027  1.00  0.00    -0.000 C 
HETATM    3  C4  UNL     1      23.894   3.421  51.775  1.00  0.00     0.039 C 
HETATM    4  C5  UNL     1      24.448   2.941  50.431  1.00  0.00     0.031 C 
HETATM    5  C16 UNL     1      25.982   3.023  50.642  1.00  0.00     0.130 C 
HETATM    6  N3  UNL     1      26.231   2.544  51.996  1.00  0.00    -0.374 N 
HETATM    7  C17 UNL     1      26.071   1.300  52.619  1.00  0.00     0.129 C 
HETATM    8  N4  UNL     1      27.208   0.806  52.377  1.00  0.00    -0.225 NA
HETATM    9  C18 UNL     1      27.480  -0.527  52.896  1.00  0.00     0.229 C 
HETATM   10  N5  UNL     1      26.565  -1.108  53.589  1.00  0.00    -0.278 NA
HETATM   11  C19 UNL     1      25.277  -0.628  53.954  1.00  0.00     0.189 C 
HETATM   12  C20 UNL     1      24.895   0.589  53.248  1.00  0.00    -0.004 C 
HETATM   13  C21 UNL     1      23.558   0.781  53.282  1.00  0.00     0.084 C 
HETATM   14  H19 UNL     1      26.615   3.274  52.675  1.00  0.00     0.161 HD
ENDROOT
BRANCH   4  15
HETATM   15  C6  UNL     1      23.887   3.619  49.322  1.00  0.00     0.001 C 
BRANCH  15  16
HETATM   16  C7  UNL     1      23.425   4.543  48.454  1.00  0.00     0.032 C 
HETATM   17 CL1  UNL     1      22.154   4.313  47.213  1.00  0.00    -0.087 Cl
BRANCH  16  18
HETATM   18  C8  UNL     1      23.746   5.968  48.216  1.00  0.00     0.218 C 
BRANCH  18  19
HETATM   19  O2  UNL     1      24.731   6.403  49.122  1.00  0.00    -0.381 OA
BRANCH  19  20
HETATM   20  C9  UNL     1      25.543   7.266  48.372  1.00  0.00     0.206 C 
BRANCH  20  21
HETATM   21  C10 UNL     1      26.913   6.742  48.237  1.00  0.00    -0.035 A 
HETATM   22  C11 UNL     1      27.348   5.489  48.582  1.00  0.00     0.009 A 
HETATM   23  C12 UNL     1      28.682   5.181  48.378  1.00  0.00     0.001 A 
HETATM   24  C13 UNL     1      29.603   6.060  47.847  1.00  0.00     0.000 A 
HETATM   25  C14 UNL     1      29.133   7.319  47.507  1.00  0.00     0.001 A 
HETATM   26  C15 UNL     1      27.815   7.651  47.700  1.00  0.00     0.009 A 
ENDBRANCH  20  21
ENDBRANCH  19  20
ENDBRANCH  18  19
ENDBRANCH  16  18
ENDBRANCH  15  16
ENDBRANCH   4  15
BRANCH   1  27
HETATM   27  N2  UNL     1      21.423   1.126  53.153  1.00  0.00    -0.310 N 
HETATM   28  C1  UNL     1      20.480   0.464  52.346  1.00  0.00     0.348 C 
HETATM   29  O1  UNL     1      20.642   0.421  51.112  1.00  0.00    -0.245 OA
HETATM   30  N1  UNL     1      19.278  -0.231  52.635  1.00  0.00    -0.173 N 
HETATM   31  F1  UNL     1      18.563  -0.780  51.601  1.00  0.00    -0.097 F 
HETATM   32  H1  UNL     1      19.047  -0.252  53.668  1.00  0.00     0.204 HD
HETATM   33  H2  UNL     1      20.979   0.965  54.110  1.00  0.00     0.170 HD
ENDBRANCH   1  27
TORSDOF 7
ENDMDL
MODEL 5
REMARK VINA RESULT:      -7.6      1.733      2.426
REMARK  7 active torsions:
REMARK  status: ('A' for Active; 'I' for Inactive)
REMARK       I    between atoms: C1_2  and  N1_3 
REMARK       I    between atoms: C1_2  and  N2_5 
REMARK    1  A    between atoms: N2_5  and  C2_6 
REMARK    2  A    between atoms: C5_9  and  C6_10 
REMARK    3  A    between atoms: C6_10  and  C7_11 
REMARK    4  A    between atoms: C7_11  and  C8_13 
REMARK    5  A    between atoms: C8_13  and  O2_14 
REMARK    6  A    between atoms: O2_14  and  C9_15 
REMARK    7  A    between atoms: C9_15  and  C10_16 
ROOT
HETATM    1  C2  UNL     1      25.327   2.584  51.532  1.00  0.00     0.019 C 
HETATM    2  C3  UNL     1      24.117   1.984  51.325  1.00  0.00    -0.000 C 
HETATM    3  C4  UNL     1      24.178   0.656  51.918  1.00  0.00     0.039 C 
HETATM    4  C5  UNL     1      23.650   0.614  53.354  1.00  0.00     0.031 C 
HETATM    5  C16 UNL     1      24.327  -0.656  53.933  1.00  0.00     0.130 C 
HETATM    6  N3  UNL     1      25.693  -0.655  53.424  1.00  0.00    -0.374 N 
HETATM    7  C17 UNL     1      26.791   0.191  53.623  1.00  0.00     0.129 C 
HETATM    8  N4  UNL     1      27.305  -0.381  54.625  1.00  0.00    -0.225 NA
HETATM    9  C18 UNL     1      28.536   0.188  55.159  1.00  0.00     0.229 C 
HETATM   10  N5  UNL     1      29.038   1.213  54.567  1.00  0.00    -0.278 NA
HETATM   11  C19 UNL     1      28.567   1.903  53.415  1.00  0.00     0.189 C 
HETATM   12  C20 UNL     1      27.223   1.505  53.015  1.00  0.00    -0.004 C 
HETATM   13  C21 UNL     1      26.648   2.434  52.220  1.00  0.00     0.084 C 
HETATM   14  H19 UNL     1      25.932  -1.455  52.757  1.00  0.00     0.161 HD
ENDROOT
BRANCH   4  15
HETATM   15  C6  UNL     1      22.241   0.717  53.435  1.00  0.00     0.001 C 
BRANCH  15  16
HETATM   16  C7  UNL     1      20.920   0.786  53.169  1.00  0.00     0.032 C 
HETATM   17 CL1  UNL     1      19.678  -0.443  53.561  1.00  0.00    -0.087 Cl
BRANCH  16  18
HETATM   18  C8  UNL     1      20.062   1.805  52.522  1.00  0.00     0.218 C 
BRANCH  18  19
HETATM   19  O2  UNL     1      20.549   2.106  51.236  1.00  0.00    -0.381 OA
BRANCH  19  20
HETATM   20  C9  UNL     1      20.162   1.011  50.448  1.00  0.00     0.206 C 
BRANCH  20  21
HETATM   21  C10 UNL     1      18.769   1.138  49.988  1.00  0.00    -0.035 A 
HETATM   22  C11 UNL     1      18.219   2.206  49.327  1.00  0.00     0.009 A 
HETATM   23  C12 UNL     1      16.882   2.138  48.976  1.00  0.00     0.001 A 
HETATM   24  C13 UNL     1      16.067   1.060  49.250  1.00  0.00     0.000 A 
HETATM   25  C14 UNL     1      16.651  -0.005  49.918  1.00  0.00     0.001 A 
HETATM   26  C15 UNL     1      17.975   0.037  50.280  1.00  0.00     0.009 A 
ENDBRANCH  20  21
ENDBRANCH  19  20
ENDBRANCH  18  19
ENDBRANCH  16  18
ENDBRANCH  15  16
ENDBRANCH   4  15
BRANCH   1  27
HETATM   27  N2  UNL     1      25.573   3.907  51.050  1.00  0.00    -0.310 N 
HETATM   28  C1  UNL     1      26.272   4.295  49.893  1.00  0.00     0.348 C 
HETATM   29  O1  UNL     1      26.758   3.429  49.143  1.00  0.00    -0.245 OA
HETATM   30  N1  UNL     1      26.581   5.560  49.328  1.00  0.00    -0.173 N 
HETATM   31  F1  UNL     1      27.298   5.607  48.160  1.00  0.00    -0.097 F 
HETATM   32  H1  UNL     1      26.209   6.372  49.897  1.00  0.00     0.204 HD
HETATM   33  H2  UNL     1      25.311   4.871  51.429  1.00  0.00     0.170 HD
ENDBRANCH   1  27
TORSDOF 7
ENDMDL
MODEL 6
REMARK VINA RESULT:      -7.4      2.338      3.708
REMARK  7 active torsions:
REMARK  status: ('A' for Active; 'I' for Inactive)
REMARK       I    between atoms: C1_2  and  N1_3 
REMARK       I    between atoms: C1_2  and  N2_5 
REMARK    1  A    between atoms: N2_5  and  C2_6 
REMARK    2  A    between atoms: C5_9  and  C6_10 
REMARK    3  A    between atoms: C6_10  and  C7_11 
REMARK    4  A    between atoms: C7_11  and  C8_13 
REMARK    5  A    between atoms: C8_13  and  O2_14 
REMARK    6  A    between atoms: O2_14  and  C9_15 
REMARK    7  A    between atoms: C9_15  and  C10_16 
ROOT
HETATM    1  C2  UNL     1      24.318   1.936  51.527  1.00  0.00     0.019 C 
HETATM    2  C3  UNL     1      23.168   2.250  50.859  1.00  0.00    -0.000 C 
HETATM    3  C4  UNL     1      22.148   1.293  51.269  1.00  0.00     0.039 C 
HETATM    4  C5  UNL     1      21.290   1.792  52.433  1.00  0.00     0.031 C 
HETATM    5  C16 UNL     1      20.734   0.477  53.039  1.00  0.00     0.130 C 
HETATM    6  N3  UNL     1      21.835  -0.478  53.013  1.00  0.00    -0.374 N 
HETATM    7  C17 UNL     1      23.072  -0.536  53.668  1.00  0.00     0.129 C 
HETATM    8  N4  UNL     1      22.722  -1.167  54.703  1.00  0.00    -0.225 NA
HETATM    9  C18 UNL     1      23.759  -1.475  55.680  1.00  0.00     0.229 C 
HETATM   10  N5  UNL     1      24.965  -1.112  55.419  1.00  0.00    -0.278 NA
HETATM   11  C19 UNL     1      25.471  -0.440  54.272  1.00  0.00     0.189 C 
HETATM   12  C20 UNL     1      24.423   0.087  53.405  1.00  0.00    -0.004 C 
HETATM   13  C21 UNL     1      24.898   1.052  52.588  1.00  0.00     0.084 C 
HETATM   14  H19 UNL     1      21.695  -1.318  52.368  1.00  0.00     0.161 HD
ENDROOT
BRANCH   4  15
HETATM   15  C6  UNL     1      20.368   2.798  52.057  1.00  0.00     0.001 C 
BRANCH  15  16
HETATM   16  C7  UNL     1      19.663   3.743  51.401  1.00  0.00     0.032 C 
HETATM   17 CL1  UNL     1      17.880   3.907  51.340  1.00  0.00    -0.087 Cl
BRANCH  16  18
HETATM   18  C8  UNL     1      20.045   4.903  50.565  1.00  0.00     0.218 C 
BRANCH  18  19
HETATM   19  O2  UNL     1      21.391   5.246  50.794  1.00  0.00    -0.381 OA
BRANCH  19  20
HETATM   20  C9  UNL     1      21.904   5.529  49.519  1.00  0.00     0.206 C 
BRANCH  20  21
HETATM   21  C10 UNL     1      23.238   6.147  49.596  1.00  0.00    -0.035 A 
HETATM   22  C11 UNL     1      23.924   6.475  50.737  1.00  0.00     0.009 A 
HETATM   23  C12 UNL     1      25.175   7.053  50.604  1.00  0.00     0.001 A 
HETATM   24  C13 UNL     1      25.775   7.320  49.391  1.00  0.00     0.000 A 
HETATM   25  C14 UNL     1      25.057   6.977  48.255  1.00  0.00     0.001 A 
HETATM   26  C15 UNL     1      23.814   6.404  48.359  1.00  0.00     0.009 A 
ENDBRANCH  20  21
ENDBRANCH  19  20
ENDBRANCH  18  19
ENDBRANCH  16  18
ENDBRANCH  15  16
ENDBRANCH   4  15
BRANCH   1  27
HETATM   27  N2  UNL     1      25.507   2.702  51.323  1.00  0.00    -0.310 N 
HETATM   28  C1  UNL     1      25.953   3.318  50.139  1.00  0.00     0.348 C 
HETATM   29  O1  UNL     1      25.270   3.233  49.102  1.00  0.00    -0.245 OA
HETATM   30  N1  UNL     1      27.103   4.085  49.821  1.00  0.00    -0.173 N 
HETATM   31  F1  UNL     1      27.254   4.557  48.542  1.00  0.00    -0.097 F 
HETATM   32  H1  UNL     1      27.756   4.218  50.645  1.00  0.00     0.204 HD
HETATM   33  H2  UNL     1      26.308   2.975  51.975  1.00  0.00     0.170 HD
ENDBRANCH   1  27
TORSDOF 7
ENDMDL
MODEL 7
REMARK VINA RESULT:      -7.4      2.982      5.819
REMARK  7 active torsions:
REMARK  status: ('A' for Active; 'I' for Inactive)
REMARK       I    between atoms: C1_2  and  N1_3 
REMARK       I    between atoms: C1_2  and  N2_5 
REMARK    1  A    between atoms: N2_5  and  C2_6 
REMARK    2  A    between atoms: C5_9  and  C6_10 
REMARK    3  A    between atoms: C6_10  and  C7_11 
REMARK    4  A    between atoms: C7_11  and  C8_13 
REMARK    5  A    between atoms: C8_13  and  O2_14 
REMARK    6  A    between atoms: O2_14  and  C9_15 
REMARK    7  A    between atoms: C9_15  and  C10_16 
ROOT
HETATM    1  C2  UNL     1      24.410   3.175  51.425  1.00  0.00     0.019 C 
HETATM    2  C3  UNL     1      23.289   3.195  52.206  1.00  0.00    -0.000 C 
HETATM    3  C4  UNL     1      22.811   4.570  52.252  1.00  0.00     0.039 C 
HETATM    4  C5  UNL     1      21.751   4.874  51.190  1.00  0.00     0.031 C 
HETATM    5  C16 UNL     1      21.837   6.416  51.049  1.00  0.00     0.130 C 
HETATM    6  N3  UNL     1      23.256   6.748  51.096  1.00  0.00    -0.374 N 
HETATM    7  C17 UNL     1      24.336   6.470  50.248  1.00  0.00     0.129 C 
HETATM    8  N4  UNL     1      24.260   7.477  49.490  1.00  0.00    -0.225 NA
HETATM    9  C18 UNL     1      25.261   7.596  48.437  1.00  0.00     0.229 C 
HETATM   10  N5  UNL     1      26.171   6.691  48.360  1.00  0.00    -0.278 NA
HETATM   11  C19 UNL     1      26.373   5.549  49.184  1.00  0.00     0.189 C 
HETATM   12  C20 UNL     1      25.254   5.282  50.080  1.00  0.00    -0.004 C 
HETATM   13  C21 UNL     1      25.271   4.006  50.525  1.00  0.00     0.084 C 
HETATM   14  H19 UNL     1      23.563   7.322  51.943  1.00  0.00     0.161 HD
ENDROOT
BRANCH   4  15
HETATM   15  C6  UNL     1      20.491   4.298  51.478  1.00  0.00     0.001 C 
BRANCH  15  16
HETATM   16  C7  UNL     1      19.287   3.690  51.412  1.00  0.00     0.032 C 
HETATM   17 CL1  UNL     1      17.748   4.409  50.844  1.00  0.00    -0.087 Cl
BRANCH  16  18
HETATM   18  C8  UNL     1      18.815   2.327  51.742  1.00  0.00     0.218 C 
BRANCH  18  19
HETATM   19  O2  UNL     1      19.761   1.370  51.329  1.00  0.00    -0.381 OA
BRANCH  19  20
HETATM   20  C9  UNL     1      19.578   0.291  52.206  1.00  0.00     0.206 C 
BRANCH  20  21
HETATM   21  C10 UNL     1      20.836  -0.091  52.869  1.00  0.00    -0.035 A 
HETATM   22  C11 UNL     1      22.087  -0.102  52.306  1.00  0.00     0.009 A 
HETATM   23  C12 UNL     1      23.154  -0.495  53.096  1.00  0.00     0.001 A 
HETATM   24  C13 UNL     1      23.036  -0.877  54.415  1.00  0.00     0.000 A 
HETATM   25  C14 UNL     1      21.760  -0.856  54.956  1.00  0.00     0.001 A 
HETATM   26  C15 UNL     1      20.683  -0.471  54.195  1.00  0.00     0.009 A 
ENDBRANCH  20  21
ENDBRANCH  19  20
ENDBRANCH  18  19
ENDBRANCH  16  18
ENDBRANCH  15  16
ENDBRANCH   4  15
BRANCH   1  27
HETATM   27  N2  UNL     1      25.115   1.953  51.198  1.00  0.00    -0.310 N 
HETATM   28  C1  UNL     1      26.049   1.318  52.037  1.00  0.00     0.348 C 
HETATM   29  O1  UNL     1      26.340   1.826  53.136  1.00  0.00    -0.245 OA
HETATM   30  N1  UNL     1      26.806   0.125  51.914  1.00  0.00    -0.173 N 
HETATM   31  F1  UNL     1      27.653  -0.233  52.932  1.00  0.00    -0.097 F 
HETATM   32  H1  UNL     1      26.629  -0.389  51.004  1.00  0.00     0.204 HD
HETATM   33  H2  UNL     1      25.114   1.262  50.383  1.00  0.00     0.170 HD
ENDBRANCH   1  27
TORSDOF 7
ENDMDL
MODEL 8
REMARK VINA RESULT:      -7.4      3.725      5.178
REMARK  7 active torsions:
REMARK  status: ('A' for Active; 'I' for Inactive)
REMARK       I    between atoms: C1_2  and  N1_3 
REMARK       I    between atoms: C1_2  and  N2_5 
REMARK    1  A    between atoms: N2_5  and  C2_6 
REMARK    2  A    between atoms: C5_9  and  C6_10 
REMARK    3  A    between atoms: C6_10  and  C7_11 
REMARK    4  A    between atoms: C7_11  and  C8_13 
REMARK    5  A    between atoms: C8_13  and  O2_14 
REMARK    6  A    between atoms: O2_14  and  C9_15 
REMARK    7  A    between atoms: C9_15  and  C10_16 
ROOT
HETATM    1  C2  UNL     1      23.940   1.694  51.237  1.00  0.00     0.019 C 
HETATM    2  C3  UNL     1      22.665   1.760  50.749  1.00  0.00    -0.000 C 
HETATM    3  C4  UNL     1      21.885   0.727  51.418  1.00  0.00     0.039 C 
HETATM    4  C5  UNL     1      21.149   1.239  52.658  1.00  0.00     0.031 C 
HETATM    5  C16 UNL     1      20.908  -0.057  53.475  1.00  0.00     0.130 C 
HETATM    6  N3  UNL     1      22.128  -0.845  53.354  1.00  0.00    -0.374 N 
HETATM    7  C17 UNL     1      23.445  -0.648  53.790  1.00  0.00     0.129 C 
HETATM    8  N4  UNL     1      23.364  -1.192  54.926  1.00  0.00    -0.225 NA
HETATM    9  C18 UNL     1      24.575  -1.230  55.736  1.00  0.00     0.229 C 
HETATM   10  N5  UNL     1      25.653  -0.737  55.239  1.00  0.00    -0.278 NA
HETATM   11  C19 UNL     1      25.863  -0.145  53.962  1.00  0.00     0.189 C 
HETATM   12  C20 UNL     1      24.624   0.120  53.240  1.00  0.00    -0.004 C 
HETATM   13  C21 UNL     1      24.808   1.036  52.263  1.00  0.00     0.084 C 
HETATM   14  H19 UNL     1      22.025  -1.768  52.827  1.00  0.00     0.161 HD
ENDROOT
BRANCH   4  15
HETATM   15  C6  UNL     1      20.033   2.053  52.349  1.00  0.00     0.001 C 
BRANCH  15  16
HETATM   16  C7  UNL     1      19.120   2.843  51.745  1.00  0.00     0.032 C 
HETATM   17 CL1  UNL     1      19.442   4.318  50.782  1.00  0.00    -0.087 Cl
BRANCH  16  18
HETATM   18  C8  UNL     1      17.644   2.800  51.643  1.00  0.00     0.218 C 
BRANCH  18  19
HETATM   19  O2  UNL     1      17.086   3.987  52.155  1.00  0.00    -0.381 OA
BRANCH  19  20
HETATM   20  C9  UNL     1      15.937   4.199  51.380  1.00  0.00     0.206 C 
BRANCH  20  21
HETATM   21  C10 UNL     1      14.712   4.129  52.195  1.00  0.00    -0.035 A 
HETATM   22  C11 UNL     1      14.594   4.446  53.524  1.00  0.00     0.009 A 
HETATM   23  C12 UNL     1      13.350   4.315  54.118  1.00  0.00     0.001 A 
HETATM   24  C13 UNL     1      12.221   3.884  53.454  1.00  0.00     0.000 A 
HETATM   25  C14 UNL     1      12.372   3.572  52.112  1.00  0.00     0.001 A 
HETATM   26  C15 UNL     1      13.594   3.692  51.498  1.00  0.00     0.009 A 
ENDBRANCH  20  21
ENDBRANCH  19  20
ENDBRANCH  18  19
ENDBRANCH  16  18
ENDBRANCH  15  16
ENDBRANCH   4  15
BRANCH   1  27
HETATM   27  N2  UNL     1      24.947   2.588  50.759  1.00  0.00    -0.310 N 
HETATM   28  C1  UNL     1      24.950   3.994  50.795  1.00  0.00     0.348 C 
HETATM   29  O1  UNL     1      23.990   4.603  51.301  1.00  0.00    -0.245 OA
HETATM   30  N1  UNL     1      25.878   4.971  50.349  1.00  0.00    -0.173 N 
HETATM   31  F1  UNL     1      25.584   6.298  50.534  1.00  0.00    -0.097 F 
HETATM   32  H1  UNL     1      26.740   4.552  49.898  1.00  0.00     0.204 HD
HETATM   33  H2  UNL     1      25.886   2.422  50.278  1.00  0.00     0.170 HD
ENDBRANCH   1  27
TORSDOF 7
ENDMDL
MODEL 9
REMARK VINA RESULT:      -7.1      2.254      2.934
REMARK  7 active torsions:
REMARK  status: ('A' for Active; 'I' for Inactive)
REMARK       I    between atoms: C1_2  and  N1_3 
REMARK       I    between atoms: C1_2  and  N2_5 
REMARK    1  A    between atoms: N2_5  and  C2_6 
REMARK    2  A    between atoms: C5_9  and  C6_10 
REMARK    3  A    between atoms: C6_10  and  C7_11 
REMARK    4  A    between atoms: C7_11  and  C8_13 
REMARK    5  A    between atoms: C8_13  and  O2_14 
REMARK    6  A    between atoms: O2_14  and  C9_15 
REMARK    7  A    between atoms: C9_15  and  C10_16 
ROOT
HETATM    1  C2  UNL     1      25.691   3.064  50.949  1.00  0.00     0.019 C 
HETATM    2  C3  UNL     1      24.391   2.933  50.547  1.00  0.00    -0.000 C 
HETATM    3  C4  UNL     1      23.855   1.735  51.178  1.00  0.00     0.039 C 
HETATM    4  C5  UNL     1      23.137   2.020  52.499  1.00  0.00     0.031 C 
HETATM    5  C16 UNL     1      23.187   0.649  53.221  1.00  0.00     0.130 C 
HETATM    6  N3  UNL     1      24.513   0.102  52.961  1.00  0.00    -0.374 N 
HETATM    7  C17 UNL     1      25.805   0.501  53.329  1.00  0.00     0.129 C 
HETATM    8  N4  UNL     1      25.905  -0.125  54.421  1.00  0.00    -0.225 NA
HETATM    9  C18 UNL     1      27.162  -0.001  55.148  1.00  0.00     0.229 C 
HETATM   10  N5  UNL     1      28.097   0.710  54.626  1.00  0.00    -0.278 NA
HETATM   11  C19 UNL     1      28.105   1.416  53.392  1.00  0.00     0.189 C 
HETATM   12  C20 UNL     1      26.788   1.504  52.772  1.00  0.00    -0.004 C 
HETATM   13  C21 UNL     1      26.735   2.503  51.863  1.00  0.00     0.084 C 
HETATM   14  H19 UNL     1      24.533  -0.787  52.369  1.00  0.00     0.161 HD
ENDROOT
BRANCH   4  15
HETATM   15  C6  UNL     1      21.876   2.640  52.326  1.00  0.00     0.001 C 
BRANCH  15  16
HETATM   16  C7  UNL     1      20.673   3.047  51.871  1.00  0.00     0.032 C 
HETATM   17 CL1  UNL     1      19.147   2.109  51.875  1.00  0.00    -0.087 Cl
BRANCH  16  18
HETATM   18  C8  UNL     1      20.187   4.304  51.259  1.00  0.00     0.218 C 
BRANCH  18  19
HETATM   19  O2  UNL     1      21.184   5.295  51.325  1.00  0.00    -0.381 OA
BRANCH  19  20
HETATM   20  C9  UNL     1      21.519   5.548  49.987  1.00  0.00     0.206 C 
BRANCH  20  21
HETATM   21  C10 UNL     1      22.516   6.627  49.871  1.00  0.00    -0.035 A 
HETATM   22  C11 UNL     1      23.380   7.050  50.848  1.00  0.00     0.009 A 
HETATM   23  C12 UNL     1      24.249   8.086  50.546  1.00  0.00     0.001 A 
HETATM   24  C13 UNL     1      24.297   8.718  49.322  1.00  0.00     0.000 A 
HETATM   25  C14 UNL     1      23.411   8.268  48.355  1.00  0.00     0.001 A 
HETATM   26  C15 UNL     1      22.539   7.244  48.628  1.00  0.00     0.009 A 
ENDBRANCH  20  21
ENDBRANCH  19  20
ENDBRANCH  18  19
ENDBRANCH  16  18
ENDBRANCH  15  16
ENDBRANCH   4  15
BRANCH   1  27
HETATM   27  N2  UNL     1      26.488   4.155  50.483  1.00  0.00    -0.310 N 
HETATM   28  C1  UNL     1      26.229   5.024  49.408  1.00  0.00     0.348 C 
HETATM   29  O1  UNL     1      25.188   4.890  48.739  1.00  0.00    -0.245 OA
HETATM   30  N1  UNL     1      26.942   6.120  48.857  1.00  0.00    -0.173 N 
HETATM   31  F1  UNL     1      26.412   6.783  47.780  1.00  0.00    -0.097 F 
HETATM   32  H1  UNL     1      27.853   6.320  49.360  1.00  0.00     0.204 HD
HETATM   33  H2  UNL     1      27.424   4.552  50.809  1.00  0.00     0.170 HD
ENDBRANCH   1  27
TORSDOF 7
ENDMDL
