MODEL 1
REMARK VINA RESULT:      -8.0      0.000      0.000
REMARK  3 active torsions:
REMARK  status: ('A' for Active; 'I' for Inactive)
REMARK    1  A    between atoms: C2_2  and  O1_3 
REMARK    2  A    between atoms: O1_3  and  N1_4 
REMARK    3  A    between atoms: N1_4  and  C3_5 
ROOT
HETATM    1  C3  UNL     1      25.359   1.630  53.332  1.00  0.00     0.151 C 
HETATM    2  C4  UNL     1      24.412   2.594  53.086  1.00  0.00     0.089 C 
HETATM    3  C5  UNL     1      23.199   2.452  52.453  1.00  0.00     0.077 C 
HETATM    4  C6  UNL     1      22.223   1.568  52.859  1.00  0.00     0.073 C 
HETATM    5  C7  UNL     1      21.264   0.702  53.262  1.00  0.00     0.072 C 
HETATM    6  C8  UNL     1      21.385  -0.182  54.340  1.00  0.00     0.056 C 
HETATM    7  C9  UNL     1      22.406  -1.088  54.104  1.00  0.00     0.120 C 
HETATM    8  N2  UNL     1      23.602  -0.473  54.193  1.00  0.00    -0.254 NA
HETATM    9  C10 UNL     1      24.528  -0.533  53.218  1.00  0.00     0.234 C 
HETATM   10  N3  UNL     1      25.228   0.486  52.648  1.00  0.00    -0.223 NA
HETATM   11  O2  UNL     1      20.006   0.403  52.839  1.00  0.00    -0.349 OA
HETATM   12  C11 UNL     1      19.372   0.984  51.752  1.00  0.00     0.201 C 
HETATM   13  C12 UNL     1      19.325   2.506  51.938  1.00  0.00     0.197 C 
HETATM   14  O3  UNL     1      20.648   2.953  52.040  1.00  0.00    -0.364 OA
HETATM   15  C13 UNL     1      21.394   2.720  50.883  1.00  0.00     0.344 C 
HETATM   16  O4  UNL     1      22.736   3.172  51.300  1.00  0.00    -0.326 OA
ENDROOT
BRANCH   1  17
HETATM   17  N1  UNL     1      26.344   1.983  54.279  1.00  0.00    -0.243 N 
HETATM   18  H2  UNL     1      26.493   3.004  54.501  1.00  0.00     0.196 HD
BRANCH  17  19
HETATM   19  O1  UNL     1      27.036   0.936  54.834  1.00  0.00    -0.241 OA
BRANCH  19  20
HETATM   20  C2  UNL     1      28.232   0.484  54.311  1.00  0.00     0.073 A 
HETATM   21  C1  UNL     1      29.448   0.918  54.199  1.00  0.00     0.008 A 
HETATM   22  C15 UNL     1      29.900  -0.292  53.515  1.00  0.00     0.036 A 
HETATM   23  C14 UNL     1      28.514  -0.785  53.644  1.00  0.00     0.071 A 
ENDBRANCH  19  20
ENDBRANCH  17  19
ENDBRANCH   1  17
TORSDOF 3
ENDMDL
MODEL 2
REMARK VINA RESULT:      -7.8      2.250      3.571
REMARK  3 active torsions:
REMARK  status: ('A' for Active; 'I' for Inactive)
REMARK    1  A    between atoms: C2_2  and  O1_3 
REMARK    2  A    between atoms: O1_3  and  N1_4 
REMARK    3  A    between atoms: N1_4  and  C3_5 
ROOT
HETATM    1  C3  UNL     1      26.058   1.005  53.490  1.00  0.00     0.151 C 
HETATM    2  C4  UNL     1      26.571   2.127  52.887  1.00  0.00     0.089 C 
HETATM    3  C5  UNL     1      26.171   2.717  51.710  1.00  0.00     0.077 C 
HETATM    4  C6  UNL     1      24.886   3.148  51.467  1.00  0.00     0.073 C 
HETATM    5  C7  UNL     1      23.623   3.574  51.232  1.00  0.00     0.072 C 
HETATM    6  C8  UNL     1      22.554   3.444  52.127  1.00  0.00     0.056 C 
HETATM    7  C9  UNL     1      22.287   2.106  52.363  1.00  0.00     0.120 C 
HETATM    8  N2  UNL     1      23.266   1.563  53.114  1.00  0.00    -0.254 NA
HETATM    9  C10 UNL     1      23.929   0.449  52.754  1.00  0.00     0.234 C 
HETATM   10  N3  UNL     1      25.273   0.231  52.728  1.00  0.00    -0.223 NA
HETATM   11  O2  UNL     1      23.001   4.198  50.195  1.00  0.00    -0.349 OA
HETATM   12  C11 UNL     1      23.607   4.551  48.999  1.00  0.00     0.201 C 
HETATM   13  C12 UNL     1      24.810   5.460  49.283  1.00  0.00     0.197 C 
HETATM   14  O3  UNL     1      25.694   4.739  50.094  1.00  0.00    -0.364 OA
HETATM   15  C13 UNL     1      26.200   3.597  49.470  1.00  0.00     0.344 C 
HETATM   16  O4  UNL     1      26.988   2.988  50.560  1.00  0.00    -0.326 OA
ENDROOT
BRANCH   1  17
HETATM   17  N1  UNL     1      26.434   0.822  54.838  1.00  0.00    -0.243 N 
HETATM   18  H2  UNL     1      26.006   1.445  55.575  1.00  0.00     0.196 HD
BRANCH  17  19
HETATM   19  O1  UNL     1      27.348  -0.175  55.069  1.00  0.00    -0.241 OA
BRANCH  19  20
HETATM   20  C2  UNL     1      28.545  -0.251  54.383  1.00  0.00     0.073 A 
HETATM   21  C1  UNL     1      29.596   0.488  54.216  1.00  0.00     0.008 A 
HETATM   22  C15 UNL     1      30.240  -0.489  53.341  1.00  0.00     0.036 A 
HETATM   23  C14 UNL     1      29.043  -1.331  53.533  1.00  0.00     0.071 A 
ENDBRANCH  19  20
ENDBRANCH  17  19
ENDBRANCH   1  17
TORSDOF 3
ENDMDL
MODEL 3
REMARK VINA RESULT:      -7.6      1.326      2.866
REMARK  3 active torsions:
REMARK  status: ('A' for Active; 'I' for Inactive)
REMARK    1  A    between atoms: C2_2  and  O1_3 
REMARK    2  A    between atoms: O1_3  and  N1_4 
REMARK    3  A    between atoms: N1_4  and  C3_5 
ROOT
HETATM    1  C3  UNL     1      25.057  -0.124  53.790  1.00  0.00     0.151 C 
HETATM    2  C4  UNL     1      23.857  -0.790  53.862  1.00  0.00     0.089 C 
HETATM    3  C5  UNL     1      22.589  -0.272  53.730  1.00  0.00     0.077 C 
HETATM    4  C6  UNL     1      22.159   0.426  52.623  1.00  0.00     0.073 C 
HETATM    5  C7  UNL     1      21.738   1.109  51.533  1.00  0.00     0.072 C 
HETATM    6  C8  UNL     1      22.532   1.411  50.420  1.00  0.00     0.056 C 
HETATM    7  C9  UNL     1      23.585   2.230  50.791  1.00  0.00     0.120 C 
HETATM    8  N2  UNL     1      24.482   1.532  51.515  1.00  0.00    -0.254 NA
HETATM    9  C10 UNL     1      24.912   1.932  52.726  1.00  0.00     0.234 C 
HETATM   10  N3  UNL     1      24.998   1.211  53.878  1.00  0.00    -0.223 NA
HETATM   11  O2  UNL     1      20.560   1.678  51.156  1.00  0.00    -0.349 OA
HETATM   12  C11 UNL     1      19.405   1.698  51.922  1.00  0.00     0.201 C 
HETATM   13  C12 UNL     1      19.000   0.262  52.278  1.00  0.00     0.197 C 
HETATM   14  O3  UNL     1      20.062  -0.303  52.995  1.00  0.00    -0.364 OA
HETATM   15  C13 UNL     1      20.312   0.348  54.205  1.00  0.00     0.344 C 
HETATM   16  O4  UNL     1      21.516  -0.363  54.680  1.00  0.00    -0.326 OA
ENDROOT
BRANCH   1  17
HETATM   17  N1  UNL     1      26.192  -0.948  53.632  1.00  0.00    -0.243 N 
HETATM   18  H2  UNL     1      26.174  -1.704  52.896  1.00  0.00     0.196 HD
BRANCH  17  19
HETATM   19  O1  UNL     1      27.240  -0.682  54.477  1.00  0.00    -0.241 OA
BRANCH  19  20
HETATM   20  C2  UNL     1      28.543  -0.584  54.027  1.00  0.00     0.073 A 
HETATM   21  C1  UNL     1      29.415  -1.355  53.459  1.00  0.00     0.008 A 
HETATM   22  C15 UNL     1      30.432  -0.305  53.418  1.00  0.00     0.036 A 
HETATM   23  C14 UNL     1      29.435   0.572  54.064  1.00  0.00     0.071 A 
ENDBRANCH  19  20
ENDBRANCH  17  19
ENDBRANCH   1  17
TORSDOF 3
ENDMDL
MODEL 4
REMARK VINA RESULT:      -7.5      2.307      6.628
REMARK  3 active torsions:
REMARK  status: ('A' for Active; 'I' for Inactive)
REMARK    1  A    between atoms: C2_2  and  O1_3 
REMARK    2  A    between atoms: O1_3  and  N1_4 
REMARK    3  A    between atoms: N1_4  and  C3_5 
ROOT
HETATM    1  C3  UNL     1      24.941   3.057  50.819  1.00  0.00     0.151 C 
HETATM    2  C4  UNL     1      26.256   2.659  50.837  1.00  0.00     0.089 C 
HETATM    3  C5  UNL     1      26.997   2.224  51.912  1.00  0.00     0.077 C 
HETATM    4  C6  UNL     1      26.640   1.156  52.705  1.00  0.00     0.073 C 
HETATM    5  C7  UNL     1      26.290   0.105  53.482  1.00  0.00     0.072 C 
HETATM    6  C8  UNL     1      25.124  -0.653  53.326  1.00  0.00     0.056 C 
HETATM    7  C9  UNL     1      24.006   0.140  53.524  1.00  0.00     0.120 C 
HETATM    8  N2  UNL     1      23.853   0.991  52.490  1.00  0.00    -0.254 NA
HETATM    9  C10 UNL     1      23.725   2.321  52.652  1.00  0.00     0.234 C 
HETATM   10  N3  UNL     1      24.388   3.322  52.009  1.00  0.00    -0.223 NA
HETATM   11  O2  UNL     1      26.850  -0.524  54.551  1.00  0.00    -0.349 OA
HETATM   12  C11 UNL     1      28.040  -0.155  55.158  1.00  0.00     0.201 C 
HETATM   13  C12 UNL     1      29.170  -0.158  54.119  1.00  0.00     0.197 C 
HETATM   14  O3  UNL     1      28.817   0.755  53.119  1.00  0.00    -0.364 OA
HETATM   15  C13 UNL     1      28.717   2.067  53.588  1.00  0.00     0.344 C 
HETATM   16  O4  UNL     1      28.235   2.776  52.386  1.00  0.00    -0.326 OA
ENDROOT
BRANCH   1  17
HETATM   17  N1  UNL     1      24.354   3.133  49.537  1.00  0.00    -0.243 N 
HETATM   18  H2  UNL     1      24.945   2.907  48.693  1.00  0.00     0.196 HD
BRANCH  17  19
HETATM   19  O1  UNL     1      23.034   3.506  49.511  1.00  0.00    -0.241 OA
BRANCH  19  20
HETATM   20  C2  UNL     1      22.011   2.585  49.391  1.00  0.00     0.073 A 
HETATM   21  C1  UNL     1      21.863   1.303  49.511  1.00  0.00     0.008 A 
HETATM   22  C15 UNL     1      20.439   1.357  49.186  1.00  0.00     0.036 A 
HETATM   23  C14 UNL     1      20.609   2.818  49.050  1.00  0.00     0.071 A 
ENDBRANCH  19  20
ENDBRANCH  17  19
ENDBRANCH   1  17
TORSDOF 3
ENDMDL
MODEL 5
REMARK VINA RESULT:      -7.4      1.847      3.543
REMARK  3 active torsions:
REMARK  status: ('A' for Active; 'I' for Inactive)
REMARK    1  A    between atoms: C2_2  and  O1_3 
REMARK    2  A    between atoms: O1_3  and  N1_4 
REMARK    3  A    between atoms: N1_4  and  C3_5 
ROOT
HETATM    1  C3  UNL     1      25.337   0.560  53.388  1.00  0.00     0.151 C 
HETATM    2  C4  UNL     1      24.089   0.515  52.815  1.00  0.00     0.089 C 
HETATM    3  C5  UNL     1      23.375   1.549  52.254  1.00  0.00     0.077 C 
HETATM    4  C6  UNL     1      23.844   2.331  51.221  1.00  0.00     0.073 C 
HETATM    5  C7  UNL     1      24.305   3.097  50.205  1.00  0.00     0.072 C 
HETATM    6  C8  UNL     1      25.569   2.970  49.616  1.00  0.00     0.056 C 
HETATM    7  C9  UNL     1      26.560   3.232  50.548  1.00  0.00     0.120 C 
HETATM    8  N2  UNL     1      26.634   2.225  51.441  1.00  0.00    -0.254 NA
HETATM    9  C10 UNL     1      26.573   2.423  52.771  1.00  0.00     0.234 C 
HETATM   10  N3  UNL     1      25.804   1.778  53.691  1.00  0.00    -0.223 NA
HETATM   11  O2  UNL     1      23.797   4.127  49.476  1.00  0.00    -0.349 OA
HETATM   12  C11 UNL     1      22.545   4.694  49.663  1.00  0.00     0.201 C 
HETATM   13  C12 UNL     1      21.467   3.610  49.536  1.00  0.00     0.197 C 
HETATM   14  O3  UNL     1      21.728   2.647  50.517  1.00  0.00    -0.364 OA
HETATM   15  C13 UNL     1      21.631   3.150  51.817  1.00  0.00     0.344 C 
HETATM   16  O4  UNL     1      22.056   1.985  52.618  1.00  0.00    -0.326 OA
ENDROOT
BRANCH   1  17
HETATM   17  N1  UNL     1      25.955  -0.694  53.579  1.00  0.00    -0.243 N 
HETATM   18  H2  UNL     1      25.599  -1.525  53.036  1.00  0.00     0.196 HD
BRANCH  17  19
HETATM   19  O1  UNL     1      26.989  -0.715  54.481  1.00  0.00    -0.241 OA
BRANCH  19  20
HETATM   20  C2  UNL     1      28.306  -0.557  54.095  1.00  0.00     0.073 A 
HETATM   21  C1  UNL     1      29.235   0.338  54.218  1.00  0.00     0.008 A 
HETATM   22  C15 UNL     1      30.209  -0.458  53.474  1.00  0.00     0.036 A 
HETATM   23  C14 UNL     1      29.151  -1.477  53.336  1.00  0.00     0.071 A 
ENDBRANCH  19  20
ENDBRANCH  17  19
ENDBRANCH   1  17
TORSDOF 3
ENDMDL
MODEL 6
REMARK VINA RESULT:      -7.2      2.599      6.570
REMARK  3 active torsions:
REMARK  status: ('A' for Active; 'I' for Inactive)
REMARK    1  A    between atoms: C2_2  and  O1_3 
REMARK    2  A    between atoms: O1_3  and  N1_4 
REMARK    3  A    between atoms: N1_4  and  C3_5 
ROOT
HETATM    1  C3  UNL     1      24.464   2.669  51.126  1.00  0.00     0.151 C 
HETATM    2  C4  UNL     1      25.818   2.491  50.972  1.00  0.00     0.089 C 
HETATM    3  C5  UNL     1      26.746   2.162  51.932  1.00  0.00     0.077 C 
HETATM    4  C6  UNL     1      26.666   1.033  52.719  1.00  0.00     0.073 C 
HETATM    5  C7  UNL     1      26.588  -0.077  53.488  1.00  0.00     0.072 C 
HETATM    6  C8  UNL     1      25.548  -1.013  53.440  1.00  0.00     0.056 C 
HETATM    7  C9  UNL     1      24.351  -0.418  53.802  1.00  0.00     0.120 C 
HETATM    8  N2  UNL     1      23.936   0.418  52.829  1.00  0.00    -0.254 NA
HETATM    9  C10 UNL     1      23.618   1.705  53.059  1.00  0.00     0.234 C 
HETATM   10  N3  UNL     1      24.027   2.814  52.384  1.00  0.00    -0.223 NA
HETATM   11  O2  UNL     1      27.369  -0.628  54.456  1.00  0.00    -0.349 OA
HETATM   12  C11 UNL     1      28.551  -0.082  54.932  1.00  0.00     0.201 C 
HETATM   13  C12 UNL     1      29.529   0.121  53.767  1.00  0.00     0.197 C 
HETATM   14  O3  UNL     1      28.914   0.985  52.854  1.00  0.00    -0.364 OA
HETATM   15  C13 UNL     1      28.663   2.253  53.385  1.00  0.00     0.344 C 
HETATM   16  O4  UNL     1      27.929   2.898  52.278  1.00  0.00    -0.326 OA
ENDROOT
BRANCH   1  17
HETATM   17  N1  UNL     1      23.719   2.675  49.928  1.00  0.00    -0.243 N 
HETATM   18  H2  UNL     1      23.840   1.876  49.250  1.00  0.00     0.196 HD
BRANCH  17  19
HETATM   19  O1  UNL     1      22.886   3.750  49.753  1.00  0.00    -0.241 OA
BRANCH  19  20
HETATM   20  C2  UNL     1      23.359   5.048  49.696  1.00  0.00     0.073 A 
HETATM   21  C1  UNL     1      23.289   6.120  50.420  1.00  0.00     0.008 A 
HETATM   22  C15 UNL     1      24.107   6.895  49.490  1.00  0.00     0.036 A 
HETATM   23  C14 UNL     1      24.186   5.672  48.666  1.00  0.00     0.071 A 
ENDBRANCH  19  20
ENDBRANCH  17  19
ENDBRANCH   1  17
TORSDOF 3
ENDMDL
MODEL 7
REMARK VINA RESULT:      -7.1      4.092      6.237
REMARK  3 active torsions:
REMARK  status: ('A' for Active; 'I' for Inactive)
REMARK    1  A    between atoms: C2_2  and  O1_3 
REMARK    2  A    between atoms: O1_3  and  N1_4 
REMARK    3  A    between atoms: N1_4  and  C3_5 
ROOT
HETATM    1  C3  UNL     1      24.907   4.334  50.278  1.00  0.00     0.151 C 
HETATM    2  C4  UNL     1      25.863   3.347  50.268  1.00  0.00     0.089 C 
HETATM    3  C5  UNL     1      26.186   2.467  51.276  1.00  0.00     0.077 C 
HETATM    4  C6  UNL     1      25.279   1.613  51.865  1.00  0.00     0.073 C 
HETATM    5  C7  UNL     1      24.389   0.772  52.440  1.00  0.00     0.072 C 
HETATM    6  C8  UNL     1      23.027   0.707  52.121  1.00  0.00     0.056 C 
HETATM    7  C9  UNL     1      22.407   1.910  52.417  1.00  0.00     0.120 C 
HETATM    8  N2  UNL     1      22.792   2.857  51.539  1.00  0.00    -0.254 NA
HETATM    9  C10 UNL     1      23.295   4.046  51.921  1.00  0.00     0.234 C 
HETATM   10  N3  UNL     1      24.420   4.672  51.479  1.00  0.00    -0.223 NA
HETATM   11  O2  UNL     1      24.461  -0.187  53.403  1.00  0.00    -0.349 OA
HETATM   12  C11 UNL     1      25.609  -0.529  54.101  1.00  0.00     0.201 C 
HETATM   13  C12 UNL     1      26.706  -0.944  53.111  1.00  0.00     0.197 C 
HETATM   14  O3  UNL     1      26.943   0.150  52.271  1.00  0.00    -0.364 OA
HETATM   15  C13 UNL     1      27.428   1.269  52.953  1.00  0.00     0.344 C 
HETATM   16  O4  UNL     1      27.477   2.276  51.875  1.00  0.00    -0.326 OA
ENDROOT
BRANCH   1  17
HETATM   17  N1  UNL     1      24.572   4.857  49.011  1.00  0.00    -0.243 N 
HETATM   18  H2  UNL     1      24.134   4.216  48.296  1.00  0.00     0.196 HD
BRANCH  17  19
HETATM   19  O1  UNL     1      24.856   6.186  48.824  1.00  0.00    -0.241 OA
BRANCH  19  20
HETATM   20  C2  UNL     1      26.077   6.618  48.342  1.00  0.00     0.073 A 
HETATM   21  C1  UNL     1      27.320   6.269  48.447  1.00  0.00     0.008 A 
HETATM   22  C15 UNL     1      27.778   7.348  47.573  1.00  0.00     0.036 A 
HETATM   23  C14 UNL     1      26.361   7.743  47.454  1.00  0.00     0.071 A 
ENDBRANCH  19  20
ENDBRANCH  17  19
ENDBRANCH   1  17
TORSDOF 3
ENDMDL
MODEL 8
REMARK VINA RESULT:      -7.0      8.065      9.813
REMARK  3 active torsions:
REMARK  status: ('A' for Active; 'I' for Inactive)
REMARK    1  A    between atoms: C2_2  and  O1_3 
REMARK    2  A    between atoms: O1_3  and  N1_4 
REMARK    3  A    between atoms: N1_4  and  C3_5 
ROOT
HETATM    1  C3  UNL     1      31.688   5.303  48.287  1.00  0.00     0.151 C 
HETATM    2  C4  UNL     1      30.447   5.131  47.722  1.00  0.00     0.089 C 
HETATM    3  C5  UNL     1      29.234   5.591  48.180  1.00  0.00     0.077 C 
HETATM    4  C6  UNL     1      28.962   6.920  48.424  1.00  0.00     0.073 C 
HETATM    5  C7  UNL     1      28.696   8.225  48.659  1.00  0.00     0.072 C 
HETATM    6  C8  UNL     1      29.615   9.271  48.508  1.00  0.00     0.056 C 
HETATM    7  C9  UNL     1      30.675   9.107  49.383  1.00  0.00     0.120 C 
HETATM    8  N2  UNL     1      31.449   8.078  48.987  1.00  0.00    -0.254 NA
HETATM    9  C10 UNL     1      31.781   7.058  49.801  1.00  0.00     0.234 C 
HETATM   10  N3  UNL     1      31.705   5.720  49.559  1.00  0.00    -0.223 NA
HETATM   11  O2  UNL     1      27.601   8.920  49.072  1.00  0.00    -0.349 OA
HETATM   12  C11 UNL     1      26.378   8.356  49.400  1.00  0.00     0.201 C 
HETATM   13  C12 UNL     1      25.850   7.545  48.209  1.00  0.00     0.197 C 
HETATM   14  O3  UNL     1      26.796   6.553  47.930  1.00  0.00    -0.364 OA
HETATM   15  C13 UNL     1      26.965   5.647  48.980  1.00  0.00     0.344 C 
HETATM   16  O4  UNL     1      28.068   4.807  48.473  1.00  0.00    -0.326 OA
ENDROOT
BRANCH   1  17
HETATM   17  N1  UNL     1      32.778   5.012  47.440  1.00  0.00    -0.243 N 
HETATM   18  H2  UNL     1      32.997   5.673  46.646  1.00  0.00     0.196 HD
BRANCH  17  19
HETATM   19  O1  UNL     1      33.470   3.865  47.736  1.00  0.00    -0.241 OA
BRANCH  19  20
HETATM   20  C2  UNL     1      32.973   2.609  47.444  1.00  0.00     0.073 A 
HETATM   21  C1  UNL     1      32.263   2.058  46.510  1.00  0.00     0.008 A 
HETATM   22  C15 UNL     1      32.314   0.741  47.141  1.00  0.00     0.036 A 
HETATM   23  C14 UNL     1      33.124   1.369  48.203  1.00  0.00     0.071 A 
ENDBRANCH  19  20
ENDBRANCH  17  19
ENDBRANCH   1  17
TORSDOF 3
ENDMDL
MODEL 9
REMARK VINA RESULT:      -6.9      9.628     12.231
REMARK  3 active torsions:
REMARK  status: ('A' for Active; 'I' for Inactive)
REMARK    1  A    between atoms: C2_2  and  O1_3 
REMARK    2  A    between atoms: O1_3  and  N1_4 
REMARK    3  A    between atoms: N1_4  and  C3_5 
ROOT
HETATM    1  C3  UNL     1      30.921   7.509  48.368  1.00  0.00     0.151 C 
HETATM    2  C4  UNL     1      30.970   7.718  47.011  1.00  0.00     0.089 C 
HETATM    3  C5  UNL     1      31.953   7.335  46.128  1.00  0.00     0.077 C 
HETATM    4  C6  UNL     1      32.370   6.032  45.965  1.00  0.00     0.073 C 
HETATM    5  C7  UNL     1      32.777   4.752  45.803  1.00  0.00     0.072 C 
HETATM    6  C8  UNL     1      32.287   3.658  46.527  1.00  0.00     0.056 C 
HETATM    7  C9  UNL     1      32.576   3.806  47.873  1.00  0.00     0.120 C 
HETATM    8  N2  UNL     1      31.813   4.780  48.407  1.00  0.00    -0.254 NA
HETATM    9  C10 UNL     1      32.328   5.815  49.097  1.00  0.00     0.234 C 
HETATM   10  N3  UNL     1      32.070   7.144  48.952  1.00  0.00    -0.223 NA
HETATM   11  O2  UNL     1      33.680   4.128  44.998  1.00  0.00    -0.349 OA
HETATM   12  C11 UNL     1      34.493   4.763  44.072  1.00  0.00     0.201 C 
HETATM   13  C12 UNL     1      33.625   5.549  43.081  1.00  0.00     0.197 C 
HETATM   14  O3  UNL     1      32.890   6.483  43.820  1.00  0.00    -0.364 OA
HETATM   15  C13 UNL     1      33.696   7.421  44.470  1.00  0.00     0.344 C 
HETATM   16  O4  UNL     1      32.696   8.186  45.241  1.00  0.00    -0.326 OA
ENDROOT
BRANCH   1  17
HETATM   17  N1  UNL     1      29.657   7.713  48.961  1.00  0.00    -0.243 N 
HETATM   18  H2  UNL     1      29.609   8.141  49.924  1.00  0.00     0.196 HD
BRANCH  17  19
HETATM   19  O1  UNL     1      28.578   7.321  48.209  1.00  0.00    -0.241 OA
BRANCH  19  20
HETATM   20  C2  UNL     1      27.835   6.196  48.515  1.00  0.00     0.073 A 
HETATM   21  C1  UNL     1      28.015   4.913  48.539  1.00  0.00     0.008 A 
HETATM   22  C15 UNL     1      26.649   4.652  48.988  1.00  0.00     0.036 A 
HETATM   23  C14 UNL     1      26.446   6.114  48.960  1.00  0.00     0.071 A 
ENDBRANCH  19  20
ENDBRANCH  17  19
ENDBRANCH   1  17
TORSDOF 3
ENDMDL
