MODEL 1
REMARK VINA RESULT:      -7.3      0.000      0.000
REMARK  7 active torsions:
REMARK  status: ('A' for Active; 'I' for Inactive)
REMARK    1  A    between atoms: C2_2  and  C3_3 
REMARK    2  A    between atoms: C3_3  and  C4_4 
REMARK    3  A    between atoms: C4_4  and  N1_5 
REMARK    4  A    between atoms: N1_5  and  C5_6 
REMARK       I    between atoms: N1_5  and  C11_16 
REMARK    5  A    between atoms: C5_6  and  C6_7 
REMARK    6  A    between atoms: C10_13  and  O1_14 
REMARK       I    between atoms: C11_16  and  N2_18 
REMARK    7  A    between atoms: N2_18  and  C12_19 
ROOT
HETATM    1  N1  UNL     1      23.838   0.899  52.392  1.00  0.00    -0.330 N 
HETATM    2  C11 UNL     1      25.265   0.657  52.512  1.00  0.00     0.323 C 
HETATM    3  O2  UNL     1      26.132   1.073  51.664  1.00  0.00    -0.247 OA
HETATM    4  N2  UNL     1      25.906  -0.054  53.554  1.00  0.00    -0.309 N 
HETATM    5  H15 UNL     1      25.313  -0.447  54.318  1.00  0.00     0.170 HD
ENDROOT
BRANCH   1   6
HETATM    6  C4  UNL     1      23.033   0.350  53.428  1.00  0.00     0.128 C 
BRANCH   6   7
HETATM    7  C3  UNL     1      22.419  -0.969  53.190  1.00  0.00     0.020 C 
BRANCH   7   8
HETATM    8  C2  UNL     1      21.272  -1.180  54.182  1.00  0.00    -0.003 C 
HETATM    9  C1  UNL     1      20.668   0.146  54.607  1.00  0.00     0.005 C 
ENDBRANCH   7   8
ENDBRANCH   6   7
ENDBRANCH   1   6
BRANCH   1  10
HETATM   10  C5  UNL     1      23.466   1.677  51.238  1.00  0.00     0.165 C 
BRANCH  10  11
HETATM   11  C6  UNL     1      21.993   1.875  51.073  1.00  0.00    -0.021 C 
HETATM   12  C7  UNL     1      21.521   2.925  51.745  1.00  0.00     0.058 C 
HETATM   13  S1  UNL     1      19.774   3.252  51.621  1.00  0.00    -0.100 SA
HETATM   14  C8  UNL     1      19.028   1.629  51.549  1.00  0.00     0.021 A 
HETATM   15  C9  UNL     1      19.769   0.747  50.896  1.00  0.00     0.002 A 
HETATM   16  P1  UNL     1      18.238   0.040  51.512  1.00  0.00    -0.052 P 
HETATM   17  C10 UNL     1      21.073   1.090  50.297  1.00  0.00     0.211 C 
HETATM   18  H13 UNL     1      17.119  -0.133  50.590  1.00  0.00     0.068 HD
BRANCH  17  19
HETATM   19  O1  UNL     1      20.813   1.883  49.141  1.00  0.00    -0.269 OA
HETATM   20 CL1  UNL     1      21.987   1.413  48.002  1.00  0.00     0.062 Cl
ENDBRANCH  17  19
ENDBRANCH  10  11
ENDBRANCH   1  10
BRANCH   4  21
HETATM   21  C12 UNL     1      27.299  -0.222  53.559  1.00  0.00     0.036 A 
HETATM   22  C13 UNL     1      27.818  -1.444  53.166  1.00  0.00     0.029 A 
HETATM   23  C14 UNL     1      29.171  -1.692  53.141  1.00  0.00     0.002 A 
HETATM   24  C15 UNL     1      30.047  -0.690  53.522  1.00  0.00     0.000 A 
HETATM   25  C16 UNL     1      29.560   0.543  53.920  1.00  0.00     0.002 A 
HETATM   26  C17 UNL     1      28.190   0.770  53.936  1.00  0.00     0.029 A 
ENDBRANCH   4  21
TORSDOF 7
ENDMDL
MODEL 2
REMARK VINA RESULT:      -7.2      2.804      3.262
REMARK  7 active torsions:
REMARK  status: ('A' for Active; 'I' for Inactive)
REMARK    1  A    between atoms: C2_2  and  C3_3 
REMARK    2  A    between atoms: C3_3  and  C4_4 
REMARK    3  A    between atoms: C4_4  and  N1_5 
REMARK    4  A    between atoms: N1_5  and  C5_6 
REMARK       I    between atoms: N1_5  and  C11_16 
REMARK    5  A    between atoms: C5_6  and  C6_7 
REMARK    6  A    between atoms: C10_13  and  O1_14 
REMARK       I    between atoms: C11_16  and  N2_18 
REMARK    7  A    between atoms: N2_18  and  C12_19 
ROOT
HETATM    1  N1  UNL     1      23.666   0.897  52.335  1.00  0.00    -0.330 N 
HETATM    2  C11 UNL     1      25.090   0.647  52.480  1.00  0.00     0.323 C 
HETATM    3  O2  UNL     1      25.946   0.851  51.548  1.00  0.00    -0.247 OA
HETATM    4  N2  UNL     1      25.738   0.155  53.637  1.00  0.00    -0.309 N 
HETATM    5  H15 UNL     1      25.154  -0.051  54.477  1.00  0.00     0.170 HD
ENDROOT
BRANCH   1   6
HETATM    6  C4  UNL     1      22.873   0.601  53.478  1.00  0.00     0.128 C 
BRANCH   6   7
HETATM    7  C3  UNL     1      21.705  -0.279  53.290  1.00  0.00     0.020 C 
BRANCH   7   8
HETATM    8  C2  UNL     1      21.567  -1.204  54.502  1.00  0.00    -0.003 C 
HETATM    9  C1  UNL     1      22.874  -1.296  55.268  1.00  0.00     0.005 C 
ENDBRANCH   7   8
ENDBRANCH   6   7
ENDBRANCH   1   6
BRANCH   1  10
HETATM   10  C5  UNL     1      23.287   1.424  51.050  1.00  0.00     0.165 C 
BRANCH  10  11
HETATM   11  C6  UNL     1      23.572   2.881  50.869  1.00  0.00    -0.021 C 
HETATM   12  C7  UNL     1      22.990   3.652  51.789  1.00  0.00     0.058 C 
HETATM   13  S1  UNL     1      23.262   5.409  51.667  1.00  0.00    -0.100 SA
HETATM   14  C8  UNL     1      23.307   5.724  49.907  1.00  0.00     0.021 A 
HETATM   15  C9  UNL     1      23.857   4.736  49.219  1.00  0.00     0.002 A 
HETATM   16  P1  UNL     1      23.323   6.093  48.171  1.00  0.00    -0.052 P 
HETATM   17  C10 UNL     1      24.373   3.511  49.857  1.00  0.00     0.211 C 
HETATM   18  H13 UNL     1      24.315   7.053  47.697  1.00  0.00     0.068 HD
BRANCH  17  19
HETATM   19  O1  UNL     1      25.584   3.858  50.525  1.00  0.00    -0.269 OA
HETATM   20 CL1  UNL     1      26.796   3.767  49.334  1.00  0.00     0.062 Cl
ENDBRANCH  17  19
ENDBRANCH  10  11
ENDBRANCH   1  10
BRANCH   4  21
HETATM   21  C12 UNL     1      27.127  -0.046  53.653  1.00  0.00     0.036 A 
HETATM   22  C13 UNL     1      27.625  -1.248  53.182  1.00  0.00     0.029 A 
HETATM   23  C14 UNL     1      28.972  -1.526  53.162  1.00  0.00     0.002 A 
HETATM   24  C15 UNL     1      29.863  -0.576  53.629  1.00  0.00     0.000 A 
HETATM   25  C16 UNL     1      29.397   0.638  54.107  1.00  0.00     0.002 A 
HETATM   26  C17 UNL     1      28.032   0.895  54.116  1.00  0.00     0.029 A 
ENDBRANCH   4  21
TORSDOF 7
ENDMDL
MODEL 3
REMARK VINA RESULT:      -6.9      2.514      3.916
REMARK  7 active torsions:
REMARK  status: ('A' for Active; 'I' for Inactive)
REMARK    1  A    between atoms: C2_2  and  C3_3 
REMARK    2  A    between atoms: C3_3  and  C4_4 
REMARK    3  A    between atoms: C4_4  and  N1_5 
REMARK    4  A    between atoms: N1_5  and  C5_6 
REMARK       I    between atoms: N1_5  and  C11_16 
REMARK    5  A    between atoms: C5_6  and  C6_7 
REMARK    6  A    between atoms: C10_13  and  O1_14 
REMARK       I    between atoms: C11_16  and  N2_18 
REMARK    7  A    between atoms: N2_18  and  C12_19 
ROOT
HETATM    1  N1  UNL     1      24.570   3.617  51.171  1.00  0.00    -0.330 N 
HETATM    2  C11 UNL     1      25.427   2.756  51.968  1.00  0.00     0.323 C 
HETATM    3  O2  UNL     1      25.226   2.504  53.209  1.00  0.00    -0.247 OA
HETATM    4  N2  UNL     1      26.584   2.080  51.515  1.00  0.00    -0.309 N 
HETATM    5  H15 UNL     1      26.861   2.197  50.515  1.00  0.00     0.170 HD
ENDROOT
BRANCH   1   6
HETATM    6  C4  UNL     1      24.959   3.783  49.813  1.00  0.00     0.128 C 
BRANCH   6   7
HETATM    7  C3  UNL     1      25.794   4.952  49.481  1.00  0.00     0.020 C 
BRANCH   7   8
HETATM    8  C2  UNL     1      27.144   4.474  48.940  1.00  0.00    -0.003 C 
HETATM    9  C1  UNL     1      27.961   5.638  48.410  1.00  0.00     0.005 C 
ENDBRANCH   7   8
ENDBRANCH   6   7
ENDBRANCH   1   6
BRANCH   1  10
HETATM   10  C5  UNL     1      23.443   4.155  51.889  1.00  0.00     0.165 C 
BRANCH  10  11
HETATM   11  C6  UNL     1      22.128   3.543  51.526  1.00  0.00    -0.021 C 
HETATM   12  C7  UNL     1      21.090   4.354  51.733  1.00  0.00     0.058 C 
HETATM   13  S1  UNL     1      19.472   3.723  51.336  1.00  0.00    -0.100 SA
HETATM   14  C8  UNL     1      19.556   1.992  51.776  1.00  0.00     0.021 A 
HETATM   15  C9  UNL     1      20.747   1.459  51.552  1.00  0.00     0.002 A 
HETATM   16  P1  UNL     1      19.579   0.276  52.232  1.00  0.00    -0.052 P 
HETATM   17  C10 UNL     1      21.874   2.231  50.996  1.00  0.00     0.211 C 
HETATM   18  H13 UNL     1      18.924  -0.667  51.331  1.00  0.00     0.068 HD
BRANCH  17  19
HETATM   19  O1  UNL     1      21.598   2.451  49.615  1.00  0.00    -0.269 OA
HETATM   20 CL1  UNL     1      21.480   0.898  48.929  1.00  0.00     0.062 Cl
ENDBRANCH  17  19
ENDBRANCH  10  11
ENDBRANCH   1  10
BRANCH   4  21
HETATM   21  C12 UNL     1      27.333   1.274  52.386  1.00  0.00     0.036 A 
HETATM   22  C13 UNL     1      27.090  -0.088  52.397  1.00  0.00     0.029 A 
HETATM   23  C14 UNL     1      27.780  -0.949  53.220  1.00  0.00     0.002 A 
HETATM   24  C15 UNL     1      28.749  -0.440  54.067  1.00  0.00     0.000 A 
HETATM   25  C16 UNL     1      29.015   0.919  54.080  1.00  0.00     0.002 A 
HETATM   26  C17 UNL     1      28.306   1.767  53.239  1.00  0.00     0.029 A 
ENDBRANCH   4  21
TORSDOF 7
ENDMDL
MODEL 4
REMARK VINA RESULT:      -6.8      2.528      2.935
REMARK  7 active torsions:
REMARK  status: ('A' for Active; 'I' for Inactive)
REMARK    1  A    between atoms: C2_2  and  C3_3 
REMARK    2  A    between atoms: C3_3  and  C4_4 
REMARK    3  A    between atoms: C4_4  and  N1_5 
REMARK    4  A    between atoms: N1_5  and  C5_6 
REMARK       I    between atoms: N1_5  and  C11_16 
REMARK    5  A    between atoms: C5_6  and  C6_7 
REMARK    6  A    between atoms: C10_13  and  O1_14 
REMARK       I    between atoms: C11_16  and  N2_18 
REMARK    7  A    between atoms: N2_18  and  C12_19 
ROOT
HETATM    1  N1  UNL     1      23.474   1.684  52.870  1.00  0.00    -0.330 N 
HETATM    2  C11 UNL     1      24.848   1.297  53.139  1.00  0.00     0.323 C 
HETATM    3  O2  UNL     1      25.813   2.133  53.259  1.00  0.00    -0.247 OA
HETATM    4  N2  UNL     1      25.326  -0.024  53.308  1.00  0.00    -0.309 N 
HETATM    5  H15 UNL     1      24.639  -0.807  53.238  1.00  0.00     0.170 HD
ENDROOT
BRANCH   1   6
HETATM    6  C4  UNL     1      22.545   0.613  52.763  1.00  0.00     0.128 C 
BRANCH   6   7
HETATM    7  C3  UNL     1      21.329   0.678  53.594  1.00  0.00     0.020 C 
BRANCH   7   8
HETATM    8  C2  UNL     1      21.482  -0.262  54.792  1.00  0.00    -0.003 C 
HETATM    9  C1  UNL     1      21.478  -1.714  54.349  1.00  0.00     0.005 C 
ENDBRANCH   7   8
ENDBRANCH   6   7
ENDBRANCH   1   6
BRANCH   1  10
HETATM   10  C5  UNL     1      23.270   3.106  52.770  1.00  0.00     0.165 C 
BRANCH  10  11
HETATM   11  C6  UNL     1      23.157   3.618  51.370  1.00  0.00    -0.021 C 
HETATM   12  C7  UNL     1      22.333   4.660  51.251  1.00  0.00     0.058 C 
HETATM   13  S1  UNL     1      22.122   5.349  49.622  1.00  0.00    -0.100 SA
HETATM   14  C8  UNL     1      22.186   3.931  48.534  1.00  0.00     0.021 A 
HETATM   15  C9  UNL     1      23.026   2.997  48.952  1.00  0.00     0.002 A 
HETATM   16  P1  UNL     1      22.207   2.552  47.417  1.00  0.00    -0.052 P 
HETATM   17  C10 UNL     1      23.817   3.132  50.190  1.00  0.00     0.211 C 
HETATM   18  H13 UNL     1      22.927   2.717  46.158  1.00  0.00     0.068 HD
BRANCH  17  19
HETATM   19  O1  UNL     1      24.844   4.087  49.935  1.00  0.00    -0.269 OA
HETATM   20 CL1  UNL     1      26.222   3.170  49.539  1.00  0.00     0.062 Cl
ENDBRANCH  17  19
ENDBRANCH  10  11
ENDBRANCH   1  10
BRANCH   4  21
HETATM   21  C12 UNL     1      26.683  -0.271  53.565  1.00  0.00     0.036 A 
HETATM   22  C13 UNL     1      27.272   0.349  54.652  1.00  0.00     0.029 A 
HETATM   23  C14 UNL     1      28.597   0.162  54.974  1.00  0.00     0.002 A 
HETATM   24  C15 UNL     1      29.370  -0.673  54.186  1.00  0.00     0.000 A 
HETATM   25  C16 UNL     1      28.810  -1.309  53.091  1.00  0.00     0.002 A 
HETATM   26  C17 UNL     1      27.471  -1.104  52.787  1.00  0.00     0.029 A 
ENDBRANCH   4  21
TORSDOF 7
ENDMDL
MODEL 5
REMARK VINA RESULT:      -6.7      3.015      3.459
REMARK  7 active torsions:
REMARK  status: ('A' for Active; 'I' for Inactive)
REMARK    1  A    between atoms: C2_2  and  C3_3 
REMARK    2  A    between atoms: C3_3  and  C4_4 
REMARK    3  A    between atoms: C4_4  and  N1_5 
REMARK    4  A    between atoms: N1_5  and  C5_6 
REMARK       I    between atoms: N1_5  and  C11_16 
REMARK    5  A    between atoms: C5_6  and  C6_7 
REMARK    6  A    between atoms: C10_13  and  O1_14 
REMARK       I    between atoms: C11_16  and  N2_18 
REMARK    7  A    between atoms: N2_18  and  C12_19 
ROOT
HETATM    1  N1  UNL     1      23.812   1.180  52.065  1.00  0.00    -0.330 N 
HETATM    2  C11 UNL     1      25.208   0.852  52.297  1.00  0.00     0.323 C 
HETATM    3  O2  UNL     1      26.155   1.156  51.487  1.00  0.00    -0.247 OA
HETATM    4  N2  UNL     1      25.729   0.166  53.420  1.00  0.00    -0.309 N 
HETATM    5  H15 UNL     1      25.061  -0.138  54.163  1.00  0.00     0.170 HD
ENDROOT
BRANCH   1   6
HETATM    6  C4  UNL     1      22.906   0.753  53.074  1.00  0.00     0.128 C 
BRANCH   6   7
HETATM    7  C3  UNL     1      22.051  -0.411  52.775  1.00  0.00     0.020 C 
BRANCH   7   8
HETATM    8  C2  UNL     1      21.581  -1.045  54.087  1.00  0.00    -0.003 C 
HETATM    9  C1  UNL     1      22.735  -1.204  55.059  1.00  0.00     0.005 C 
ENDBRANCH   7   8
ENDBRANCH   6   7
ENDBRANCH   1   6
BRANCH   1  10
HETATM   10  C5  UNL     1      23.572   1.908  50.846  1.00  0.00     0.165 C 
BRANCH  10  11
HETATM   11  C6  UNL     1      23.083   3.307  51.046  1.00  0.00    -0.021 C 
HETATM   12  C7  UNL     1      21.902   3.543  50.473  1.00  0.00     0.058 C 
HETATM   13  S1  UNL     1      21.226   5.182  50.647  1.00  0.00    -0.100 SA
HETATM   14  C8  UNL     1      22.656   6.254  50.587  1.00  0.00     0.021 A 
HETATM   15  C9  UNL     1      23.727   5.720  51.152  1.00  0.00     0.002 A 
HETATM   16  P1  UNL     1      24.040   7.363  50.496  1.00  0.00    -0.052 P 
HETATM   17  C10 UNL     1      23.720   4.377  51.762  1.00  0.00     0.211 C 
HETATM   18  H13 UNL     1      24.052   8.499  51.413  1.00  0.00     0.068 HD
BRANCH  17  19
HETATM   19  O1  UNL     1      22.994   4.470  52.986  1.00  0.00    -0.269 OA
HETATM   20 CL1  UNL     1      23.907   5.515  53.971  1.00  0.00     0.062 Cl
ENDBRANCH  17  19
ENDBRANCH  10  11
ENDBRANCH   1  10
BRANCH   4  21
HETATM   21  C12 UNL     1      27.104  -0.094  53.529  1.00  0.00     0.036 A 
HETATM   22  C13 UNL     1      27.588  -1.296  53.044  1.00  0.00     0.029 A 
HETATM   23  C14 UNL     1      28.922  -1.629  53.112  1.00  0.00     0.002 A 
HETATM   24  C15 UNL     1      29.811  -0.737  53.684  1.00  0.00     0.000 A 
HETATM   25  C16 UNL     1      29.358   0.474  54.180  1.00  0.00     0.002 A 
HETATM   26  C17 UNL     1      28.007   0.788  54.099  1.00  0.00     0.029 A 
ENDBRANCH   4  21
TORSDOF 7
ENDMDL
MODEL 6
REMARK VINA RESULT:      -6.4      3.263      4.637
REMARK  7 active torsions:
REMARK  status: ('A' for Active; 'I' for Inactive)
REMARK    1  A    between atoms: C2_2  and  C3_3 
REMARK    2  A    between atoms: C3_3  and  C4_4 
REMARK    3  A    between atoms: C4_4  and  N1_5 
REMARK    4  A    between atoms: N1_5  and  C5_6 
REMARK       I    between atoms: N1_5  and  C11_16 
REMARK    5  A    between atoms: C5_6  and  C6_7 
REMARK    6  A    between atoms: C10_13  and  O1_14 
REMARK       I    between atoms: C11_16  and  N2_18 
REMARK    7  A    between atoms: N2_18  and  C12_19 
ROOT
HETATM    1  N1  UNL     1      24.480   4.101  51.295  1.00  0.00    -0.330 N 
HETATM    2  C11 UNL     1      25.212   3.023  51.937  1.00  0.00     0.323 C 
HETATM    3  O2  UNL     1      24.931   2.567  53.102  1.00  0.00    -0.247 OA
HETATM    4  N2  UNL     1      26.317   2.326  51.396  1.00  0.00    -0.309 N 
HETATM    5  H15 UNL     1      26.650   2.597  50.444  1.00  0.00     0.170 HD
ENDROOT
BRANCH   1   6
HETATM    6  C4  UNL     1      24.946   4.474  50.004  1.00  0.00     0.128 C 
BRANCH   6   7
HETATM    7  C3  UNL     1      25.420   5.859  49.824  1.00  0.00     0.020 C 
BRANCH   7   8
HETATM    8  C2  UNL     1      26.535   5.881  48.775  1.00  0.00    -0.003 C 
HETATM    9  C1  UNL     1      27.361   4.609  48.832  1.00  0.00     0.005 C 
ENDBRANCH   7   8
ENDBRANCH   6   7
ENDBRANCH   1   6
BRANCH   1  10
HETATM   10  C5  UNL     1      23.379   4.611  52.071  1.00  0.00     0.165 C 
BRANCH  10  11
HETATM   11  C6  UNL     1      22.034   4.402  51.449  1.00  0.00    -0.021 C 
HETATM   12  C7  UNL     1      21.227   3.631  52.178  1.00  0.00     0.058 C 
HETATM   13  S1  UNL     1      19.598   3.314  51.529  1.00  0.00    -0.100 SA
HETATM   14  C8  UNL     1      19.846   3.201  49.761  1.00  0.00     0.021 A 
HETATM   15  C9  UNL     1      20.786   4.020  49.317  1.00  0.00     0.002 A 
HETATM   16  P1  UNL     1      20.046   3.043  48.005  1.00  0.00    -0.052 P 
HETATM   17  C10 UNL     1      21.540   4.925  50.206  1.00  0.00     0.211 C 
HETATM   18  H13 UNL     1      19.030   3.656  47.155  1.00  0.00     0.068 HD
BRANCH  17  19
HETATM   19  O1  UNL     1      20.657   5.978  50.587  1.00  0.00    -0.269 OA
HETATM   20 CL1  UNL     1      21.635   7.366  50.695  1.00  0.00     0.062 Cl
ENDBRANCH  17  19
ENDBRANCH  10  11
ENDBRANCH   1  10
BRANCH   4  21
HETATM   21  C12 UNL     1      26.944   1.299  52.118  1.00  0.00     0.036 A 
HETATM   22  C13 UNL     1      27.986   1.630  52.967  1.00  0.00     0.029 A 
HETATM   23  C14 UNL     1      28.654   0.684  53.711  1.00  0.00     0.002 A 
HETATM   24  C15 UNL     1      28.275  -0.643  53.610  1.00  0.00     0.000 A 
HETATM   25  C16 UNL     1      27.236  -1.007  52.770  1.00  0.00     0.002 A 
HETATM   26  C17 UNL     1      26.577  -0.034  52.030  1.00  0.00     0.029 A 
ENDBRANCH   4  21
TORSDOF 7
ENDMDL
MODEL 7
REMARK VINA RESULT:      -6.4      2.970      6.508
REMARK  7 active torsions:
REMARK  status: ('A' for Active; 'I' for Inactive)
REMARK    1  A    between atoms: C2_2  and  C3_3 
REMARK    2  A    between atoms: C3_3  and  C4_4 
REMARK    3  A    between atoms: C4_4  and  N1_5 
REMARK    4  A    between atoms: N1_5  and  C5_6 
REMARK       I    between atoms: N1_5  and  C11_16 
REMARK    5  A    between atoms: C5_6  and  C6_7 
REMARK    6  A    between atoms: C10_13  and  O1_14 
REMARK       I    between atoms: C11_16  and  N2_18 
REMARK    7  A    between atoms: N2_18  and  C12_19 
ROOT
HETATM    1  N1  UNL     1      23.643   1.519  52.857  1.00  0.00    -0.330 N 
HETATM    2  C11 UNL     1      22.225   1.254  52.684  1.00  0.00     0.323 C 
HETATM    3  O2  UNL     1      21.314   2.148  52.810  1.00  0.00    -0.247 OA
HETATM    4  N2  UNL     1      21.642   0.007  52.358  1.00  0.00    -0.309 N 
HETATM    5  H15 UNL     1      22.276  -0.811  52.223  1.00  0.00     0.170 HD
ENDROOT
BRANCH   1   6
HETATM    6  C4  UNL     1      24.501   0.398  52.684  1.00  0.00     0.128 C 
BRANCH   6   7
HETATM    7  C3  UNL     1      25.835   0.458  53.308  1.00  0.00     0.020 C 
BRANCH   7   8
HETATM    8  C2  UNL     1      26.866   0.893  52.263  1.00  0.00    -0.003 C 
HETATM    9  C1  UNL     1      27.629   2.119  52.729  1.00  0.00     0.005 C 
ENDBRANCH   7   8
ENDBRANCH   6   7
ENDBRANCH   1   6
BRANCH   1  10
HETATM   10  C5  UNL     1      23.954   2.892  53.162  1.00  0.00     0.165 C 
BRANCH  10  11
HETATM   11  C6  UNL     1      23.953   3.805  51.978  1.00  0.00    -0.021 C 
HETATM   12  C7  UNL     1      23.502   5.030  52.253  1.00  0.00     0.058 C 
HETATM   13  S1  UNL     1      23.456   6.201  50.912  1.00  0.00    -0.100 SA
HETATM   14  C8  UNL     1      23.015   5.215  49.486  1.00  0.00     0.021 A 
HETATM   15  C9  UNL     1      23.527   3.996  49.522  1.00  0.00     0.002 A 
HETATM   16  P1  UNL     1      22.544   4.288  48.048  1.00  0.00    -0.052 P 
HETATM   17  C10 UNL     1      24.371   3.518  50.634  1.00  0.00     0.211 C 
HETATM   18  H13 UNL     1      23.225   4.598  46.794  1.00  0.00     0.068 HD
BRANCH  17  19
HETATM   19  O1  UNL     1      25.639   4.157  50.509  1.00  0.00    -0.269 OA
HETATM   20 CL1  UNL     1      26.518   3.201  49.410  1.00  0.00     0.062 Cl
ENDBRANCH  17  19
ENDBRANCH  10  11
ENDBRANCH   1  10
BRANCH   4  21
HETATM   21  C12 UNL     1      20.251  -0.122  52.219  1.00  0.00     0.036 A 
HETATM   22  C13 UNL     1      19.539  -0.724  53.242  1.00  0.00     0.029 A 
HETATM   23  C14 UNL     1      18.174  -0.890  53.185  1.00  0.00     0.002 A 
HETATM   24  C15 UNL     1      17.487  -0.443  52.071  1.00  0.00     0.000 A 
HETATM   25  C16 UNL     1      18.170   0.163  51.030  1.00  0.00     0.002 A 
HETATM   26  C17 UNL     1      19.548   0.320  51.111  1.00  0.00     0.029 A 
ENDBRANCH   4  21
TORSDOF 7
ENDMDL
MODEL 8
REMARK VINA RESULT:      -6.3      4.000      7.413
REMARK  7 active torsions:
REMARK  status: ('A' for Active; 'I' for Inactive)
REMARK    1  A    between atoms: C2_2  and  C3_3 
REMARK    2  A    between atoms: C3_3  and  C4_4 
REMARK    3  A    between atoms: C4_4  and  N1_5 
REMARK    4  A    between atoms: N1_5  and  C5_6 
REMARK       I    between atoms: N1_5  and  C11_16 
REMARK    5  A    between atoms: C5_6  and  C6_7 
REMARK    6  A    between atoms: C10_13  and  O1_14 
REMARK       I    between atoms: C11_16  and  N2_18 
REMARK    7  A    between atoms: N2_18  and  C12_19 
ROOT
HETATM    1  N1  UNL     1      24.311   2.441  52.081  1.00  0.00    -0.330 N 
HETATM    2  C11 UNL     1      23.228   1.495  52.288  1.00  0.00     0.323 C 
HETATM    3  O2  UNL     1      23.294   0.256  51.961  1.00  0.00    -0.247 OA
HETATM    4  N2  UNL     1      21.969   1.780  52.865  1.00  0.00    -0.309 N 
HETATM    5  H15 UNL     1      21.783   2.758  53.180  1.00  0.00     0.170 HD
ENDROOT
BRANCH   1   6
HETATM    6  C4  UNL     1      24.048   3.774  52.501  1.00  0.00     0.128 C 
BRANCH   6   7
HETATM    7  C3  UNL     1      23.384   4.674  51.540  1.00  0.00     0.020 C 
BRANCH   7   8
HETATM    8  C2  UNL     1      24.443   5.367  50.679  1.00  0.00    -0.003 C 
HETATM    9  C1  UNL     1      24.496   6.855  50.974  1.00  0.00     0.005 C 
ENDBRANCH   7   8
ENDBRANCH   6   7
ENDBRANCH   1   6
BRANCH   1  10
HETATM   10  C5  UNL     1      25.493   1.866  51.494  1.00  0.00     0.165 C 
BRANCH  10  11
HETATM   11  C6  UNL     1      26.526   1.428  52.483  1.00  0.00    -0.021 C 
HETATM   12  C7  UNL     1      27.456   2.353  52.723  1.00  0.00     0.058 C 
HETATM   13  S1  UNL     1      28.738   1.934  53.887  1.00  0.00    -0.100 SA
HETATM   14  C8  UNL     1      29.036   0.194  53.603  1.00  0.00     0.021 A 
HETATM   15  C9  UNL     1      27.939  -0.473  53.283  1.00  0.00     0.002 A 
HETATM   16  P1  UNL     1      29.394  -1.524  53.334  1.00  0.00    -0.052 P 
HETATM   17  C10 UNL     1      26.616   0.172  53.175  1.00  0.00     0.211 C 
HETATM   18  H13 UNL     1      29.624  -2.356  54.512  1.00  0.00     0.068 HD
BRANCH  17  19
HETATM   19  O1  UNL     1      26.177   0.462  54.500  1.00  0.00    -0.269 OA
HETATM   20 CL1  UNL     1      25.038  -0.746  54.870  1.00  0.00     0.062 Cl
ENDBRANCH  17  19
ENDBRANCH  10  11
ENDBRANCH   1  10
BRANCH   4  21
HETATM   21  C12 UNL     1      21.000   0.775  53.010  1.00  0.00     0.036 A 
HETATM   22  C13 UNL     1      21.206  -0.207  53.963  1.00  0.00     0.029 A 
HETATM   23  C14 UNL     1      20.306  -1.227  54.169  1.00  0.00     0.002 A 
HETATM   24  C15 UNL     1      19.156  -1.278  53.401  1.00  0.00     0.000 A 
HETATM   25  C16 UNL     1      18.921  -0.310  52.439  1.00  0.00     0.002 A 
HETATM   26  C17 UNL     1      19.843   0.710  52.250  1.00  0.00     0.029 A 
ENDBRANCH   4  21
TORSDOF 7
ENDMDL
MODEL 9
REMARK VINA RESULT:      -6.1      4.022      6.349
REMARK  7 active torsions:
REMARK  status: ('A' for Active; 'I' for Inactive)
REMARK    1  A    between atoms: C2_2  and  C3_3 
REMARK    2  A    between atoms: C3_3  and  C4_4 
REMARK    3  A    between atoms: C4_4  and  N1_5 
REMARK    4  A    between atoms: N1_5  and  C5_6 
REMARK       I    between atoms: N1_5  and  C11_16 
REMARK    5  A    between atoms: C5_6  and  C6_7 
REMARK    6  A    between atoms: C10_13  and  O1_14 
REMARK       I    between atoms: C11_16  and  N2_18 
REMARK    7  A    between atoms: N2_18  and  C12_19 
ROOT
HETATM    1  N1  UNL     1      24.323   2.780  50.955  1.00  0.00    -0.330 N 
HETATM    2  C11 UNL     1      23.360   1.872  51.556  1.00  0.00     0.323 C 
HETATM    3  O2  UNL     1      22.199   1.640  51.066  1.00  0.00    -0.247 OA
HETATM    4  N2  UNL     1      23.548   1.121  52.741  1.00  0.00    -0.309 N 
HETATM    5  H15 UNL     1      24.458   1.215  53.243  1.00  0.00     0.170 HD
ENDROOT
BRANCH   1   6
HETATM    6  C4  UNL     1      25.556   2.913  51.651  1.00  0.00     0.128 C 
BRANCH   6   7
HETATM    7  C3  UNL     1      26.695   2.103  51.181  1.00  0.00     0.020 C 
BRANCH   7   8
HETATM    8  C2  UNL     1      27.154   1.172  52.306  1.00  0.00    -0.003 C 
HETATM    9  C1  UNL     1      26.722  -0.258  52.040  1.00  0.00     0.005 C 
ENDBRANCH   7   8
ENDBRANCH   6   7
ENDBRANCH   1   6
BRANCH   1  10
HETATM   10  C5  UNL     1      23.872   3.392  49.732  1.00  0.00     0.165 C 
BRANCH  10  11
HETATM   11  C6  UNL     1      24.138   4.861  49.641  1.00  0.00    -0.021 C 
HETATM   12  C7  UNL     1      23.475   5.577  50.550  1.00  0.00     0.058 C 
HETATM   13  S1  UNL     1      23.716   7.342  50.530  1.00  0.00    -0.100 SA
HETATM   14  C8  UNL     1      23.881   7.742  48.795  1.00  0.00     0.021 A 
HETATM   15  C9  UNL     1      24.501   6.799  48.104  1.00  0.00     0.002 A 
HETATM   16  P1  UNL     1      24.014   8.194  47.084  1.00  0.00    -0.052 P 
HETATM   17  C10 UNL     1      24.997   5.553  48.721  1.00  0.00     0.211 C 
HETATM   18  H13 UNL     1      25.017   9.194  46.729  1.00  0.00     0.068 HD
BRANCH  17  19
HETATM   19  O1  UNL     1      26.148   5.890  49.491  1.00  0.00    -0.269 OA
HETATM   20 CL1  UNL     1      27.447   5.104  48.723  1.00  0.00     0.062 Cl
ENDBRANCH  17  19
ENDBRANCH  10  11
ENDBRANCH   1  10
BRANCH   4  21
HETATM   21  C12 UNL     1      22.537   0.275  53.223  1.00  0.00     0.036 A 
HETATM   22  C13 UNL     1      21.313   0.830  53.553  1.00  0.00     0.029 A 
HETATM   23  C14 UNL     1      20.270   0.071  54.032  1.00  0.00     0.002 A 
HETATM   24  C15 UNL     1      20.446  -1.292  54.192  1.00  0.00     0.000 A 
HETATM   25  C16 UNL     1      21.659  -1.878  53.871  1.00  0.00     0.002 A 
HETATM   26  C17 UNL     1      22.696  -1.091  53.388  1.00  0.00     0.029 A 
ENDBRANCH   4  21
TORSDOF 7
ENDMDL
