MODEL 1
REMARK VINA RESULT:      -8.7      0.000      0.000
REMARK  0 active torsions:
REMARK  status: ('A' for Active; 'I' for Inactive)
ROOT
HETATM    1  C1  UNL     1      24.138   1.970  51.396  1.00  0.00     0.048 C 
HETATM    2  C2  UNL     1      24.682   0.982  52.129  1.00  0.00     0.029 C 
HETATM    3  C3  UNL     1      26.154   1.039  51.969  1.00  0.00     0.018 C 
HETATM    4  C4  UNL     1      26.793  -0.315  52.221  1.00  0.00     0.027 C 
HETATM    5  C5  UNL     1      26.473  -0.821  53.612  1.00  0.00     0.171 C 
HETATM    6  O1  UNL     1      25.361  -0.094  54.083  1.00  0.00    -0.360 OA
HETATM    7  C6  UNL     1      24.413  -0.189  53.083  1.00  0.00     0.269 C 
HETATM    8  O2  UNL     1      23.175  -0.029  53.650  1.00  0.00    -0.360 OA
HETATM    9  C7  UNL     1      22.429  -1.136  53.906  1.00  0.00     0.175 C 
HETATM   10  C8  UNL     1      21.091  -0.676  54.491  1.00  0.00     0.067 C 
HETATM   11  C9  UNL     1      20.417   0.222  53.489  1.00  0.00    -0.025 A 
HETATM   12  C10 UNL     1      21.026   1.452  53.356  1.00  0.00     0.100 A 
HETATM   13  N1  UNL     1      20.411   2.210  52.433  1.00  0.00    -0.340 N 
HETATM   14  C11 UNL     1      19.376   1.453  51.958  1.00  0.00     0.143 A 
HETATM   15  N2  UNL     1      18.419   1.673  51.031  1.00  0.00    -0.223 NA
HETATM   16  C12 UNL     1      17.526   0.688  50.798  1.00  0.00     0.234 A 
HETATM   17  N3  UNL     1      17.523  -0.518  51.432  1.00  0.00    -0.253 NA
HETATM   18  C13 UNL     1      18.469  -0.792  52.379  1.00  0.00     0.134 A 
HETATM   19  C14 UNL     1      19.368   0.231  52.597  1.00  0.00     0.035 A 
HETATM   20  C15 UNL     1      20.831   3.542  52.055  1.00  0.00     0.133 C 
HETATM   21  C16 UNL     1      22.311   3.608  51.948  1.00  0.00     0.064 C 
HETATM   22  C17 UNL     1      22.932   2.674  50.937  1.00  0.00     0.190 A 
HETATM   23  C18 UNL     1      23.004   3.299  49.534  1.00  0.00     0.312 A 
HETATM   24  N4  UNL     1      22.154   2.192  49.813  1.00  0.00     0.098 N 
HETATM   25  H22 UNL     1      21.134   2.297  49.811  1.00  0.00     0.317 HD
ENDROOT
TORSDOF 0
ENDMDL
MODEL 2
REMARK VINA RESULT:      -8.4      2.682      5.634
REMARK  0 active torsions:
REMARK  status: ('A' for Active; 'I' for Inactive)
ROOT
HETATM    1  C1  UNL     1      22.712   1.440  52.314  1.00  0.00     0.048 C 
HETATM    2  C2  UNL     1      23.944   0.957  52.551  1.00  0.00     0.029 C 
HETATM    3  C3  UNL     1      23.817  -0.264  53.380  1.00  0.00     0.018 C 
HETATM    4  C4  UNL     1      25.078  -0.523  54.186  1.00  0.00     0.027 C 
HETATM    5  C5  UNL     1      26.284  -0.672  53.281  1.00  0.00     0.171 C 
HETATM    6  O1  UNL     1      25.947  -0.118  52.030  1.00  0.00    -0.360 OA
HETATM    7  C6  UNL     1      25.449   1.139  52.309  1.00  0.00     0.269 C 
HETATM    8  O2  UNL     1      25.632   1.927  51.202  1.00  0.00    -0.360 OA
HETATM    9  C7  UNL     1      26.683   2.790  51.184  1.00  0.00     0.175 C 
HETATM   10  C8  UNL     1      26.629   3.569  49.867  1.00  0.00     0.067 C 
HETATM   11  C9  UNL     1      25.316   4.300  49.801  1.00  0.00    -0.025 A 
HETATM   12  C10 UNL     1      24.232   3.470  49.602  1.00  0.00     0.100 A 
HETATM   13  N1  UNL     1      23.080   4.160  49.578  1.00  0.00    -0.340 N 
HETATM   14  C11 UNL     1      23.424   5.470  49.763  1.00  0.00     0.143 A 
HETATM   15  N2  UNL     1      22.709   6.613  49.831  1.00  0.00    -0.223 NA
HETATM   16  C12 UNL     1      23.379   7.768  50.028  1.00  0.00     0.234 A 
HETATM   17  N3  UNL     1      24.732   7.862  50.164  1.00  0.00    -0.253 NA
HETATM   18  C13 UNL     1      25.504   6.735  50.103  1.00  0.00     0.134 A 
HETATM   19  C14 UNL     1      24.792   5.571  49.901  1.00  0.00     0.035 A 
HETATM   20  C15 UNL     1      21.772   3.563  49.407  1.00  0.00     0.133 C 
HETATM   21  C16 UNL     1      21.668   2.310  50.199  1.00  0.00     0.064 C 
HETATM   22  C17 UNL     1      21.864   2.464  51.688  1.00  0.00     0.190 A 
HETATM   23  C18 UNL     1      20.551   2.796  52.417  1.00  0.00     0.312 A 
HETATM   24  N4  UNL     1      21.615   3.739  52.331  1.00  0.00     0.098 N 
HETATM   25  H22 UNL     1      21.519   4.590  51.765  1.00  0.00     0.317 HD
ENDROOT
TORSDOF 0
ENDMDL
MODEL 3
REMARK VINA RESULT:      -8.0      2.082      4.562
REMARK  0 active torsions:
REMARK  status: ('A' for Active; 'I' for Inactive)
ROOT
HETATM    1  C1  UNL     1      23.074   0.295  52.972  1.00  0.00     0.048 C 
HETATM    2  C2  UNL     1      24.408   0.461  52.984  1.00  0.00     0.029 C 
HETATM    3  C3  UNL     1      24.994  -0.527  53.920  1.00  0.00     0.018 C 
HETATM    4  C4  UNL     1      26.331  -0.054  54.462  1.00  0.00     0.027 C 
HETATM    5  C5  UNL     1      27.318   0.199  53.341  1.00  0.00     0.171 C 
HETATM    6  O1  UNL     1      26.580   0.322  52.146  1.00  0.00    -0.360 OA
HETATM    7  C6  UNL     1      25.596   1.252  52.419  1.00  0.00     0.269 C 
HETATM    8  O2  UNL     1      25.222   1.838  51.237  1.00  0.00    -0.360 OA
HETATM    9  C7  UNL     1      25.727   3.062  50.928  1.00  0.00     0.175 C 
HETATM   10  C8  UNL     1      25.119   3.498  49.592  1.00  0.00     0.067 C 
HETATM   11  C9  UNL     1      23.623   3.542  49.743  1.00  0.00    -0.025 A 
HETATM   12  C10 UNL     1      23.043   2.295  49.844  1.00  0.00     0.100 A 
HETATM   13  N1  UNL     1      21.712   2.383  50.004  1.00  0.00    -0.340 N 
HETATM   14  C11 UNL     1      21.421   3.718  50.005  1.00  0.00     0.143 A 
HETATM   15  N2  UNL     1      20.271   4.415  50.126  1.00  0.00    -0.223 NA
HETATM   16  C12 UNL     1      20.339   5.762  50.083  1.00  0.00     0.234 A 
HETATM   17  N3  UNL     1      21.492   6.472  49.925  1.00  0.00    -0.253 NA
HETATM   18  C13 UNL     1      22.684   5.817  49.797  1.00  0.00     0.134 A 
HETATM   19  C14 UNL     1      22.584   4.442  49.845  1.00  0.00     0.035 A 
HETATM   20  C15 UNL     1      20.830   1.245  50.161  1.00  0.00     0.133 C 
HETATM   21  C16 UNL     1      21.445   0.233  51.057  1.00  0.00     0.064 C 
HETATM   22  C17 UNL     1      21.762   0.709  52.455  1.00  0.00     0.190 A 
HETATM   23  C18 UNL     1      20.571   0.538  53.411  1.00  0.00     0.312 A 
HETATM   24  N4  UNL     1      21.039   1.827  53.028  1.00  0.00     0.098 N 
HETATM   25  H22 UNL     1      20.473   2.435  52.427  1.00  0.00     0.317 HD
ENDROOT
TORSDOF 0
ENDMDL
MODEL 4
REMARK VINA RESULT:      -7.8      1.969      4.801
REMARK  0 active torsions:
REMARK  status: ('A' for Active; 'I' for Inactive)
ROOT
HETATM    1  C1  UNL     1      21.355   0.056  52.474  1.00  0.00     0.048 C 
HETATM    2  C2  UNL     1      22.443  -0.162  53.231  1.00  0.00     0.029 C 
HETATM    3  C3  UNL     1      22.198  -1.359  54.069  1.00  0.00     0.018 C 
HETATM    4  C4  UNL     1      23.040  -1.337  55.332  1.00  0.00     0.027 C 
HETATM    5  C5  UNL     1      24.517  -1.267  55.004  1.00  0.00     0.171 C 
HETATM    6  O1  UNL     1      24.635  -0.828  53.670  1.00  0.00    -0.360 OA
HETATM    7  C6  UNL     1      23.859   0.312  53.590  1.00  0.00     0.269 C 
HETATM    8  O2  UNL     1      24.343   1.088  52.569  1.00  0.00    -0.360 OA
HETATM    9  C7  UNL     1      25.142   2.144  52.877  1.00  0.00     0.175 C 
HETATM   10  C8  UNL     1      25.502   2.858  51.571  1.00  0.00     0.067 C 
HETATM   11  C9  UNL     1      24.228   3.308  50.910  1.00  0.00    -0.025 A 
HETATM   12  C10 UNL     1      23.483   2.272  50.388  1.00  0.00     0.100 A 
HETATM   13  N1  UNL     1      22.343   2.715  49.832  1.00  0.00    -0.340 N 
HETATM   14  C11 UNL     1      22.349   4.072  49.996  1.00  0.00     0.143 A 
HETATM   15  N2  UNL     1      21.485   5.050  49.650  1.00  0.00    -0.223 NA
HETATM   16  C12 UNL     1      21.806   6.321  49.970  1.00  0.00     0.234 A 
HETATM   17  N3  UNL     1      22.945   6.689  50.623  1.00  0.00    -0.253 NA
HETATM   18  C13 UNL     1      23.854   5.739  50.996  1.00  0.00     0.134 A 
HETATM   19  C14 UNL     1      23.500   4.450  50.655  1.00  0.00     0.035 A 
HETATM   20  C15 UNL     1      21.345   1.863  49.221  1.00  0.00     0.133 C 
HETATM   21  C16 UNL     1      21.140   0.638  50.036  1.00  0.00     0.064 C 
HETATM   22  C17 UNL     1      20.677   0.871  51.454  1.00  0.00     0.190 A 
HETATM   23  C18 UNL     1      19.145   0.953  51.560  1.00  0.00     0.312 A 
HETATM   24  N4  UNL     1      19.971   2.088  51.803  1.00  0.00     0.098 N 
HETATM   25  H22 UNL     1      19.972   2.885  51.158  1.00  0.00     0.317 HD
ENDROOT
TORSDOF 0
ENDMDL
MODEL 5
REMARK VINA RESULT:      -7.6      2.758      4.541
REMARK  0 active torsions:
REMARK  status: ('A' for Active; 'I' for Inactive)
ROOT
HETATM    1  C1  UNL     1      23.570   1.474  52.811  1.00  0.00     0.048 C 
HETATM    2  C2  UNL     1      22.503   0.717  53.120  1.00  0.00     0.029 C 
HETATM    3  C3  UNL     1      22.967  -0.440  53.922  1.00  0.00     0.018 C 
HETATM    4  C4  UNL     1      22.016  -1.617  53.801  1.00  0.00     0.027 C 
HETATM    5  C5  UNL     1      20.620  -1.241  54.253  1.00  0.00     0.171 C 
HETATM    6  O1  UNL     1      20.537   0.166  54.246  1.00  0.00    -0.360 OA
HETATM    7  C6  UNL     1      20.982   0.553  52.997  1.00  0.00     0.269 C 
HETATM    8  O2  UNL     1      20.423   1.770  52.702  1.00  0.00    -0.360 OA
HETATM    9  C7  UNL     1      19.341   1.806  51.880  1.00  0.00     0.175 C 
HETATM   10  C8  UNL     1      18.949   3.273  51.682  1.00  0.00     0.067 C 
HETATM   11  C9  UNL     1      20.121   4.000  51.081  1.00  0.00    -0.025 A 
HETATM   12  C10 UNL     1      21.170   4.176  51.959  1.00  0.00     0.100 A 
HETATM   13  N1  UNL     1      22.203   4.804  51.373  1.00  0.00    -0.340 N 
HETATM   14  C11 UNL     1      21.814   5.043  50.085  1.00  0.00     0.143 A 
HETATM   15  N2  UNL     1      22.416   5.635  49.031  1.00  0.00    -0.223 NA
HETATM   16  C12 UNL     1      21.733   5.708  47.870  1.00  0.00     0.234 A 
HETATM   17  N3  UNL     1      20.472   5.224  47.685  1.00  0.00    -0.253 NA
HETATM   18  C13 UNL     1      19.816   4.616  48.718  1.00  0.00     0.134 A 
HETATM   19  C14 UNL     1      20.538   4.556  49.891  1.00  0.00     0.035 A 
HETATM   20  C15 UNL     1      23.454   5.110  52.033  1.00  0.00     0.133 C 
HETATM   21  C16 UNL     1      23.889   3.968  52.877  1.00  0.00     0.064 C 
HETATM   22  C17 UNL     1      24.113   2.667  52.145  1.00  0.00     0.190 A 
HETATM   23  C18 UNL     1      25.545   2.546  51.598  1.00  0.00     0.312 A 
HETATM   24  N4  UNL     1      24.423   2.669  50.729  1.00  0.00     0.098 N 
HETATM   25  H22 UNL     1      24.279   3.518  50.173  1.00  0.00     0.317 HD
ENDROOT
TORSDOF 0
ENDMDL
MODEL 6
REMARK VINA RESULT:      -7.3     10.068     13.508
REMARK  0 active torsions:
REMARK  status: ('A' for Active; 'I' for Inactive)
ROOT
HETATM    1  C1  UNL     1      29.706   5.643  48.219  1.00  0.00     0.048 C 
HETATM    2  C2  UNL     1      28.644   6.450  48.385  1.00  0.00     0.029 C 
HETATM    3  C3  UNL     1      27.447   5.607  48.613  1.00  0.00     0.018 C 
HETATM    4  C4  UNL     1      26.173   6.329  48.211  1.00  0.00     0.027 C 
HETATM    5  C5  UNL     1      26.011   7.622  48.983  1.00  0.00     0.171 C 
HETATM    6  O1  UNL     1      27.272   7.959  49.516  1.00  0.00    -0.360 OA
HETATM    7  C6  UNL     1      28.147   7.901  48.449  1.00  0.00     0.269 C 
HETATM    8  O2  UNL     1      29.208   8.726  48.721  1.00  0.00    -0.360 OA
HETATM    9  C7  UNL     1      29.234   9.961  48.152  1.00  0.00     0.175 C 
HETATM   10  C8  UNL     1      30.533  10.648  48.581  1.00  0.00     0.067 C 
HETATM   11  C9  UNL     1      31.691   9.806  48.120  1.00  0.00    -0.025 A 
HETATM   12  C10 UNL     1      31.830   8.628  48.824  1.00  0.00     0.100 A 
HETATM   13  N1  UNL     1      32.857   7.896  48.362  1.00  0.00    -0.340 N 
HETATM   14  C11 UNL     1      33.399   8.616  47.335  1.00  0.00     0.143 A 
HETATM   15  N2  UNL     1      34.436   8.400  46.498  1.00  0.00    -0.223 NA
HETATM   16  C12 UNL     1      34.709   9.341  45.571  1.00  0.00     0.234 A 
HETATM   17  N3  UNL     1      34.009  10.500  45.418  1.00  0.00    -0.253 NA
HETATM   18  C13 UNL     1      32.949  10.770  46.238  1.00  0.00     0.134 A 
HETATM   19  C14 UNL     1      32.693   9.791  47.175  1.00  0.00     0.035 A 
HETATM   20  C15 UNL     1      33.239   6.601  48.884  1.00  0.00     0.133 C 
HETATM   21  C16 UNL     1      32.034   5.778  49.161  1.00  0.00     0.064 C 
HETATM   22  C17 UNL     1      31.148   5.501  47.970  1.00  0.00     0.190 A 
HETATM   23  C18 UNL     1      31.583   4.243  47.201  1.00  0.00     0.312 A 
HETATM   24  N4  UNL     1      31.694   5.542  46.628  1.00  0.00     0.098 N 
HETATM   25  H22 UNL     1      32.612   5.966  46.459  1.00  0.00     0.317 HD
ENDROOT
TORSDOF 0
ENDMDL
MODEL 7
REMARK VINA RESULT:      -6.9      2.858      4.521
REMARK  0 active torsions:
REMARK  status: ('A' for Active; 'I' for Inactive)
ROOT
HETATM    1  C1  UNL     1      24.573   2.486  51.691  1.00  0.00     0.048 C 
HETATM    2  C2  UNL     1      23.767   1.539  52.201  1.00  0.00     0.029 C 
HETATM    3  C3  UNL     1      24.514   0.801  53.245  1.00  0.00     0.018 C 
HETATM    4  C4  UNL     1      23.965  -0.602  53.436  1.00  0.00     0.027 C 
HETATM    5  C5  UNL     1      22.500  -0.567  53.819  1.00  0.00     0.171 C 
HETATM    6  O1  UNL     1      22.001   0.706  53.476  1.00  0.00    -0.360 OA
HETATM    7  C6  UNL     1      22.371   0.901  52.160  1.00  0.00     0.269 C 
HETATM    8  O2  UNL     1      21.490   1.786  51.595  1.00  0.00    -0.360 OA
HETATM    9  C7  UNL     1      20.488   1.299  50.817  1.00  0.00     0.175 C 
HETATM   10  C8  UNL     1      19.687   2.490  50.282  1.00  0.00     0.067 C 
HETATM   11  C9  UNL     1      20.616   3.371  49.493  1.00  0.00    -0.025 A 
HETATM   12  C10 UNL     1      21.521   4.057  50.276  1.00  0.00     0.100 A 
HETATM   13  N1  UNL     1      22.347   4.809  49.530  1.00  0.00    -0.340 N 
HETATM   14  C11 UNL     1      21.968   4.608  48.232  1.00  0.00     0.143 A 
HETATM   15  N2  UNL     1      22.417   5.086  47.052  1.00  0.00    -0.223 NA
HETATM   16  C12 UNL     1      21.800   4.673  45.925  1.00  0.00     0.234 A 
HETATM   17  N3  UNL     1      20.751   3.802  45.894  1.00  0.00    -0.253 NA
HETATM   18  C13 UNL     1      20.257   3.288  47.060  1.00  0.00     0.134 A 
HETATM   19  C14 UNL     1      20.906   3.728  48.195  1.00  0.00     0.035 A 
HETATM   20  C15 UNL     1      23.416   5.626  50.064  1.00  0.00     0.133 C 
HETATM   21  C16 UNL     1      24.130   4.901  51.147  1.00  0.00     0.064 C 
HETATM   22  C17 UNL     1      24.767   3.593  50.744  1.00  0.00     0.190 A 
HETATM   23  C18 UNL     1      26.195   3.783  50.205  1.00  0.00     0.312 A 
HETATM   24  N4  UNL     1      25.131   3.353  49.361  1.00  0.00     0.098 N 
HETATM   25  H22 UNL     1      24.768   3.962  48.621  1.00  0.00     0.317 HD
ENDROOT
TORSDOF 0
ENDMDL
MODEL 8
REMARK VINA RESULT:      -6.9      3.485      5.411
REMARK  0 active torsions:
REMARK  status: ('A' for Active; 'I' for Inactive)
ROOT
HETATM    1  C1  UNL     1      23.658   4.654  51.716  1.00  0.00     0.048 C 
HETATM    2  C2  UNL     1      23.619   3.321  51.885  1.00  0.00     0.029 C 
HETATM    3  C3  UNL     1      24.294   2.992  53.162  1.00  0.00     0.018 C 
HETATM    4  C4  UNL     1      24.835   1.573  53.156  1.00  0.00     0.027 C 
HETATM    5  C5  UNL     1      23.729   0.567  52.917  1.00  0.00     0.171 C 
HETATM    6  O1  UNL     1      22.633   1.263  52.366  1.00  0.00    -0.360 OA
HETATM    7  C6  UNL     1      23.151   1.979  51.305  1.00  0.00     0.269 C 
HETATM    8  O2  UNL     1      22.140   2.207  50.408  1.00  0.00    -0.360 OA
HETATM    9  C7  UNL     1      22.056   1.415  49.307  1.00  0.00     0.175 C 
HETATM   10  C8  UNL     1      20.878   1.908  48.462  1.00  0.00     0.067 C 
HETATM   11  C9  UNL     1      21.129   3.343  48.088  1.00  0.00    -0.025 A 
HETATM   12  C10 UNL     1      21.011   4.217  49.149  1.00  0.00     0.100 A 
HETATM   13  N1  UNL     1      21.270   5.481  48.777  1.00  0.00    -0.340 N 
HETATM   14  C11 UNL     1      21.561   5.427  47.443  1.00  0.00     0.143 A 
HETATM   15  N2  UNL     1      21.896   6.364  46.530  1.00  0.00    -0.223 NA
HETATM   16  C12 UNL     1      22.123   5.960  45.262  1.00  0.00     0.234 A 
HETATM   17  N3  UNL     1      22.039   4.668  44.837  1.00  0.00    -0.253 NA
HETATM   18  C13 UNL     1      21.705   3.680  45.720  1.00  0.00     0.134 A 
HETATM   19  C14 UNL     1      21.479   4.121  47.007  1.00  0.00     0.035 A 
HETATM   20  C15 UNL     1      21.248   6.618  49.673  1.00  0.00     0.133 C 
HETATM   21  C16 UNL     1      21.879   6.268  50.971  1.00  0.00     0.064 C 
HETATM   22  C17 UNL     1      23.321   5.826  50.896  1.00  0.00     0.190 A 
HETATM   23  C18 UNL     1      24.297   7.011  50.971  1.00  0.00     0.312 A 
HETATM   24  N4  UNL     1      24.154   6.239  49.784  1.00  0.00     0.098 N 
HETATM   25  H22 UNL     1      23.727   6.641  48.943  1.00  0.00     0.317 HD
ENDROOT
TORSDOF 0
ENDMDL
MODEL 9
REMARK VINA RESULT:      -6.8     11.231     13.600
REMARK  0 active torsions:
REMARK  status: ('A' for Active; 'I' for Inactive)
ROOT
HETATM    1  C1  UNL     1      32.295   5.343  47.524  1.00  0.00     0.048 C 
HETATM    2  C2  UNL     1      32.868   5.318  46.309  1.00  0.00     0.029 C 
HETATM    3  C3  UNL     1      33.660   4.072  46.191  1.00  0.00     0.018 C 
HETATM    4  C4  UNL     1      34.784   4.220  45.181  1.00  0.00     0.027 C 
HETATM    5  C5  UNL     1      34.245   4.586  43.813  1.00  0.00     0.171 C 
HETATM    6  O1  UNL     1      32.936   5.078  43.990  1.00  0.00    -0.360 OA
HETATM    7  C6  UNL     1      33.040   6.047  44.969  1.00  0.00     0.269 C 
HETATM    8  O2  UNL     1      32.006   6.932  44.805  1.00  0.00    -0.360 OA
HETATM    9  C7  UNL     1      32.253   8.113  44.179  1.00  0.00     0.175 C 
HETATM   10  C8  UNL     1      30.953   8.922  44.170  1.00  0.00     0.067 C 
HETATM   11  C9  UNL     1      30.516   9.136  45.593  1.00  0.00    -0.025 A 
HETATM   12  C10 UNL     1      30.050   7.990  46.204  1.00  0.00     0.100 A 
HETATM   13  N1  UNL     1      29.697   8.220  47.479  1.00  0.00    -0.340 N 
HETATM   14  C11 UNL     1      29.938   9.547  47.701  1.00  0.00     0.143 A 
HETATM   15  N2  UNL     1      29.783  10.348  48.777  1.00  0.00    -0.223 NA
HETATM   16  C12 UNL     1      30.126  11.647  48.653  1.00  0.00     0.234 A 
HETATM   17  N3  UNL     1      30.623  12.210  47.516  1.00  0.00    -0.253 NA
HETATM   18  C13 UNL     1      30.800  11.444  46.398  1.00  0.00     0.134 A 
HETATM   19  C14 UNL     1      30.440  10.121  46.553  1.00  0.00     0.035 A 
HETATM   20  C15 UNL     1      29.192   7.208  48.383  1.00  0.00     0.133 C 
HETATM   21  C16 UNL     1      29.955   5.943  48.224  1.00  0.00     0.064 C 
HETATM   22  C17 UNL     1      31.437   6.040  48.494  1.00  0.00     0.190 A 
HETATM   23  C18 UNL     1      31.774   5.820  49.978  1.00  0.00     0.312 A 
HETATM   24  N4  UNL     1      31.958   7.086  49.352  1.00  0.00     0.098 N 
HETATM   25  H22 UNL     1      31.368   7.887  49.602  1.00  0.00     0.317 HD
ENDROOT
TORSDOF 0
ENDMDL
