MODEL 1
REMARK VINA RESULT:      -9.3      0.000      0.000
REMARK  5 active torsions:
REMARK  status: ('A' for Active; 'I' for Inactive)
REMARK    1  A    between atoms: N2_7  and  C6_8 
REMARK    2  A    between atoms: C6_8  and  C7_9 
REMARK       I    between atoms: C7_9  and  N3_11 
REMARK    3  A    between atoms: N3_11  and  C8_12 
REMARK    4  A    between atoms: C15_21  and  N6_22 
REMARK    5  A    between atoms: N6_22  and  C16_23 
ROOT
HETATM    1  C8  UNL     1      22.863  -0.554  54.349  1.00  0.00     0.035 A 
HETATM    2  C9  UNL     1      22.071  -1.652  54.689  1.00  0.00     0.030 A 
HETATM    3  C10 UNL     1      20.773  -1.681  54.234  1.00  0.00     0.016 A 
HETATM    4  C11 UNL     1      20.361  -0.612  53.469  1.00  0.00     0.000 A 
HETATM    5  C12 UNL     1      19.046  -0.717  53.049  1.00  0.00     0.073 A 
HETATM    6  C13 UNL     1      18.177  -1.830  53.363  1.00  0.00     0.102 C 
HETATM    7  N4  UNL     1      17.468  -2.717  53.622  1.00  0.00    -0.191 NA
HETATM    8  C14 UNL     1      18.487   0.271  52.272  1.00  0.00     0.142 A 
HETATM    9  N5  UNL     1      19.282   1.302  51.964  1.00  0.00    -0.241 NA
HETATM   10  C15 UNL     1      20.535   1.491  52.313  1.00  0.00     0.139 A 
HETATM   11  C22 UNL     1      21.107   0.494  53.104  1.00  0.00     0.024 A 
HETATM   12  C23 UNL     1      22.403   0.474  53.590  1.00  0.00     0.045 A 
ENDROOT
BRANCH  10  13
HETATM   13  N6  UNL     1      21.444   2.517  51.946  1.00  0.00    -0.340 N 
HETATM   14  H18 UNL     1      21.910   3.249  52.474  1.00  0.00     0.167 HD
BRANCH  13  15
HETATM   15  C16 UNL     1      21.609   2.314  50.536  1.00  0.00     0.035 A 
HETATM   16  C17 UNL     1      21.598   1.209  49.746  1.00  0.00     0.029 A 
HETATM   17  C18 UNL     1      21.858   1.294  48.402  1.00  0.00     0.004 A 
HETATM   18  C19 UNL     1      22.144   2.485  47.769  1.00  0.00     0.019 A 
HETATM   19  C20 UNL     1      22.162   3.639  48.558  1.00  0.00     0.013 A 
HETATM   20 BR1  UNL     1      22.567   5.228  47.605  1.00  0.00    -0.051 Br
HETATM   21  C21 UNL     1      21.898   3.529  49.905  1.00  0.00     0.048 A 
ENDBRANCH  13  15
ENDBRANCH  10  13
BRANCH   1  22
HETATM   22  N3  UNL     1      24.212  -0.566  54.841  1.00  0.00    -0.326 N 
HETATM   23  C7  UNL     1      24.966  -0.800  53.650  1.00  0.00     0.239 C 
HETATM   24  O1  UNL     1      24.126  -0.888  52.672  1.00  0.00    -0.271 OA
HETATM   25  H14 UNL     1      24.942  -0.499  55.596  1.00  0.00     0.169 HD
BRANCH  23  26
HETATM   26  C6  UNL     1      26.316  -0.973  53.113  1.00  0.00     0.220 C 
BRANCH  26  27
HETATM   27  N2  UNL     1      27.318  -0.078  53.508  1.00  0.00    -0.397 N 
HETATM   28  C2  UNL     1      28.655  -0.294  53.121  1.00  0.00     0.103 C 
HETATM   29  C1  UNL     1      29.092  -1.723  53.361  1.00  0.00     0.034 C 
HETATM   30  C3  UNL     1      29.543   0.561  54.040  1.00  0.00     0.293 C 
HETATM   31  N1  UNL     1      29.316   1.924  53.690  1.00  0.00     0.086 N 
HETATM   32  C4  UNL     1      27.950   2.323  53.527  1.00  0.00     0.289 C 
HETATM   33  H7  UNL     1      29.879   2.576  54.272  1.00  0.00     0.316 HD
HETATM   34  C5  UNL     1      26.932   1.271  53.732  1.00  0.00     0.147 C 
ENDBRANCH  26  27
ENDBRANCH  23  26
ENDBRANCH   1  22
TORSDOF 5
ENDMDL
MODEL 2
REMARK VINA RESULT:      -9.3      2.773      5.426
REMARK  5 active torsions:
REMARK  status: ('A' for Active; 'I' for Inactive)
REMARK    1  A    between atoms: N2_7  and  C6_8 
REMARK    2  A    between atoms: C6_8  and  C7_9 
REMARK       I    between atoms: C7_9  and  N3_11 
REMARK    3  A    between atoms: N3_11  and  C8_12 
REMARK    4  A    between atoms: C15_21  and  N6_22 
REMARK    5  A    between atoms: N6_22  and  C16_23 
ROOT
HETATM    1  C8  UNL     1      25.178   3.131  50.572  1.00  0.00     0.035 A 
HETATM    2  C9  UNL     1      25.142   4.510  50.782  1.00  0.00     0.030 A 
HETATM    3  C10 UNL     1      23.921   5.141  50.741  1.00  0.00     0.016 A 
HETATM    4  C11 UNL     1      22.822   4.347  50.496  1.00  0.00     0.000 A 
HETATM    5  C12 UNL     1      21.632   5.055  50.473  1.00  0.00     0.073 A 
HETATM    6  C13 UNL     1      21.529   6.482  50.688  1.00  0.00     0.102 C 
HETATM    7  N4  UNL     1      21.441   7.632  50.849  1.00  0.00    -0.191 NA
HETATM    8  C14 UNL     1      20.444   4.402  50.244  1.00  0.00     0.142 A 
HETATM    9  N5  UNL     1      20.522   3.081  50.054  1.00  0.00    -0.241 NA
HETATM   10  C15 UNL     1      21.596   2.325  50.057  1.00  0.00     0.139 A 
HETATM   11  C22 UNL     1      22.807   2.980  50.285  1.00  0.00     0.024 A 
HETATM   12  C23 UNL     1      24.060   2.397  50.334  1.00  0.00     0.045 A 
ENDROOT
BRANCH  10  13
HETATM   13  N6  UNL     1      21.726   0.915  49.946  1.00  0.00    -0.340 N 
HETATM   14  H18 UNL     1      22.252   0.317  49.317  1.00  0.00     0.167 HD
BRANCH  13  15
HETATM   15  C16 UNL     1      20.886   0.429  51.002  1.00  0.00     0.035 A 
HETATM   16  C17 UNL     1      19.539   0.336  51.154  1.00  0.00     0.029 A 
HETATM   17  C18 UNL     1      18.985  -0.116  52.324  1.00  0.00     0.004 A 
HETATM   18  C19 UNL     1      19.742  -0.500  53.411  1.00  0.00     0.019 A 
HETATM   19  C20 UNL     1      21.132  -0.415  53.282  1.00  0.00     0.013 A 
HETATM   20 BR1  UNL     1      22.091  -0.961  54.825  1.00  0.00    -0.051 Br
HETATM   21  C21 UNL     1      21.665   0.041  52.098  1.00  0.00     0.048 A 
ENDBRANCH  13  15
ENDBRANCH  10  13
BRANCH   1  22
HETATM   22  N3  UNL     1      26.473   2.512  50.627  1.00  0.00    -0.326 N 
HETATM   23  C7  UNL     1      26.555   2.104  51.994  1.00  0.00     0.239 C 
HETATM   24  O1  UNL     1      25.451   2.454  52.569  1.00  0.00    -0.271 OA
HETATM   25  H14 UNL     1      27.388   2.199  50.212  1.00  0.00     0.169 HD
BRANCH  23  26
HETATM   26  C6  UNL     1      27.401   1.443  52.988  1.00  0.00     0.220 C 
BRANCH  26  27
HETATM   27  N2  UNL     1      27.696   0.084  52.825  1.00  0.00    -0.397 N 
HETATM   28  C2  UNL     1      28.580  -0.562  53.711  1.00  0.00     0.103 C 
HETATM   29  C1  UNL     1      29.848   0.236  53.929  1.00  0.00     0.034 C 
HETATM   30  C3  UNL     1      29.035  -1.867  53.036  1.00  0.00     0.293 C 
HETATM   31  N1  UNL     1      27.906  -2.737  53.008  1.00  0.00     0.086 N 
HETATM   32  C4  UNL     1      26.667  -2.162  52.577  1.00  0.00     0.289 C 
HETATM   33  H7  UNL     1      28.126  -3.648  52.560  1.00  0.00     0.316 HD
HETATM   34  C5  UNL     1      26.700  -0.728  52.218  1.00  0.00     0.147 C 
ENDBRANCH  26  27
ENDBRANCH  23  26
ENDBRANCH   1  22
TORSDOF 5
ENDMDL
MODEL 3
REMARK VINA RESULT:      -9.1      3.752      5.438
REMARK  5 active torsions:
REMARK  status: ('A' for Active; 'I' for Inactive)
REMARK    1  A    between atoms: N2_7  and  C6_8 
REMARK    2  A    between atoms: C6_8  and  C7_9 
REMARK       I    between atoms: C7_9  and  N3_11 
REMARK    3  A    between atoms: N3_11  and  C8_12 
REMARK    4  A    between atoms: C15_21  and  N6_22 
REMARK    5  A    between atoms: N6_22  and  C16_23 
ROOT
HETATM    1  C8  UNL     1      22.994   3.240  52.376  1.00  0.00     0.035 A 
HETATM    2  C9  UNL     1      21.764   2.848  51.847  1.00  0.00     0.030 A 
HETATM    3  C10 UNL     1      21.065   3.756  51.087  1.00  0.00     0.016 A 
HETATM    4  C11 UNL     1      21.648   4.992  50.907  1.00  0.00     0.000 A 
HETATM    5  C12 UNL     1      20.885   5.847  50.131  1.00  0.00     0.073 A 
HETATM    6  C13 UNL     1      19.607   5.498  49.550  1.00  0.00     0.102 C 
HETATM    7  N4  UNL     1      18.572   5.228  49.090  1.00  0.00    -0.191 NA
HETATM    8  C14 UNL     1      21.334   7.118  49.858  1.00  0.00     0.142 A 
HETATM    9  N5  UNL     1      22.520   7.451  50.378  1.00  0.00    -0.241 NA
HETATM   10  C15 UNL     1      23.313   6.715  51.123  1.00  0.00     0.139 A 
HETATM   11  C22 UNL     1      22.863   5.425  51.408  1.00  0.00     0.024 A 
HETATM   12  C23 UNL     1      23.522   4.474  52.166  1.00  0.00     0.045 A 
ENDROOT
BRANCH  10  13
HETATM   13  N6  UNL     1      24.612   6.987  51.628  1.00  0.00    -0.340 N 
HETATM   14  H18 UNL     1      24.960   7.208  52.555  1.00  0.00     0.167 HD
BRANCH  13  15
HETATM   15  C16 UNL     1      25.440   6.882  50.462  1.00  0.00     0.035 A 
HETATM   16  C17 UNL     1      25.706   5.870  49.595  1.00  0.00     0.029 A 
HETATM   17  C18 UNL     1      26.615   6.024  48.580  1.00  0.00     0.004 A 
HETATM   18  C19 UNL     1      27.312   7.195  48.371  1.00  0.00     0.019 A 
HETATM   19  C20 UNL     1      27.058   8.253  49.248  1.00  0.00     0.013 A 
HETATM   20 BR1  UNL     1      28.063   9.822  48.887  1.00  0.00    -0.051 Br
HETATM   21  C21 UNL     1      26.142   8.076  50.260  1.00  0.00     0.048 A 
ENDBRANCH  13  15
ENDBRANCH  10  13
BRANCH   1  22
HETATM   22  N3  UNL     1      23.692   2.259  53.160  1.00  0.00    -0.326 N 
HETATM   23  C7  UNL     1      24.639   1.743  52.223  1.00  0.00     0.239 C 
HETATM   24  O1  UNL     1      24.466   2.374  51.109  1.00  0.00    -0.271 OA
HETATM   25  H14 UNL     1      23.882   1.716  54.041  1.00  0.00     0.169 HD
BRANCH  23  26
HETATM   26  C6  UNL     1      25.729   0.782  52.041  1.00  0.00     0.220 C 
BRANCH  26  27
HETATM   27  N2  UNL     1      26.846   0.863  52.881  1.00  0.00    -0.397 N 
HETATM   28  C2  UNL     1      27.838  -0.136  52.842  1.00  0.00     0.103 C 
HETATM   29  C1  UNL     1      27.243  -1.527  52.877  1.00  0.00     0.034 C 
HETATM   30  C3  UNL     1      28.664  -0.016  54.133  1.00  0.00     0.293 C 
HETATM   31  N1  UNL     1      29.412   1.194  54.038  1.00  0.00     0.086 N 
HETATM   32  C4  UNL     1      28.699   2.354  53.595  1.00  0.00     0.289 C 
HETATM   33  H7  UNL     1      29.999   1.357  54.880  1.00  0.00     0.316 HD
HETATM   34  C5  UNL     1      27.268   2.161  53.278  1.00  0.00     0.147 C 
ENDBRANCH  26  27
ENDBRANCH  23  26
ENDBRANCH   1  22
TORSDOF 5
ENDMDL
MODEL 4
REMARK VINA RESULT:      -9.1      3.286      4.786
REMARK  5 active torsions:
REMARK  status: ('A' for Active; 'I' for Inactive)
REMARK    1  A    between atoms: N2_7  and  C6_8 
REMARK    2  A    between atoms: C6_8  and  C7_9 
REMARK       I    between atoms: C7_9  and  N3_11 
REMARK    3  A    between atoms: N3_11  and  C8_12 
REMARK    4  A    between atoms: C15_21  and  N6_22 
REMARK    5  A    between atoms: N6_22  and  C16_23 
ROOT
HETATM    1  C8  UNL     1      24.088   2.623  53.071  1.00  0.00     0.035 A 
HETATM    2  C9  UNL     1      23.038   1.781  52.704  1.00  0.00     0.030 A 
HETATM    3  C10 UNL     1      22.014   2.308  51.952  1.00  0.00     0.016 A 
HETATM    4  C11 UNL     1      22.117   3.641  51.616  1.00  0.00     0.000 A 
HETATM    5  C12 UNL     1      21.051   4.095  50.857  1.00  0.00     0.073 A 
HETATM    6  C13 UNL     1      19.937   3.271  50.441  1.00  0.00     0.102 C 
HETATM    7  N4  UNL     1      19.032   2.616  50.114  1.00  0.00    -0.191 NA
HETATM    8  C14 UNL     1      21.009   5.405  50.439  1.00  0.00     0.142 A 
HETATM    9  N5  UNL     1      22.038   6.176  50.806  1.00  0.00    -0.241 NA
HETATM   10  C15 UNL     1      23.087   5.840  51.521  1.00  0.00     0.139 A 
HETATM   11  C22 UNL     1      23.136   4.513  51.952  1.00  0.00     0.024 A 
HETATM   12  C23 UNL     1      24.136   3.933  52.711  1.00  0.00     0.045 A 
ENDROOT
BRANCH  10  13
HETATM   13  N6  UNL     1      24.242   6.591  51.866  1.00  0.00    -0.340 N 
HETATM   14  H18 UNL     1      24.570   6.992  52.739  1.00  0.00     0.167 HD
BRANCH  13  15
HETATM   15  C16 UNL     1      24.943   6.696  50.619  1.00  0.00     0.035 A 
HETATM   16  C17 UNL     1      25.543   5.786  49.808  1.00  0.00     0.029 A 
HETATM   17  C18 UNL     1      26.220   6.175  48.681  1.00  0.00     0.004 A 
HETATM   18  C19 UNL     1      26.339   7.494  48.298  1.00  0.00     0.019 A 
HETATM   19  C20 UNL     1      25.731   8.453  49.115  1.00  0.00     0.013 A 
HETATM   20 BR1  UNL     1      25.948  10.239  48.513  1.00  0.00    -0.051 Br
HETATM   21  C21 UNL     1      25.057   8.038  50.241  1.00  0.00     0.048 A 
ENDBRANCH  13  15
ENDBRANCH  10  13
BRANCH   1  22
HETATM   22  N3  UNL     1      25.137   2.031  53.854  1.00  0.00    -0.326 N 
HETATM   23  C7  UNL     1      26.180   1.873  52.890  1.00  0.00     0.239 C 
HETATM   24  O1  UNL     1      25.738   2.330  51.764  1.00  0.00    -0.271 OA
HETATM   25  H14 UNL     1      25.550   1.650  54.743  1.00  0.00     0.169 HD
BRANCH  23  26
HETATM   26  C6  UNL     1      27.550   1.400  52.689  1.00  0.00     0.220 C 
BRANCH  26  27
HETATM   27  N2  UNL     1      27.787   0.021  52.650  1.00  0.00    -0.397 N 
HETATM   28  C2  UNL     1      28.616  -0.584  53.615  1.00  0.00     0.103 C 
HETATM   29  C1  UNL     1      29.911   0.176  53.807  1.00  0.00     0.034 C 
HETATM   30  C3  UNL     1      29.031  -1.960  53.068  1.00  0.00     0.293 C 
HETATM   31  N1  UNL     1      27.865  -2.780  53.076  1.00  0.00     0.086 N 
HETATM   32  C4  UNL     1      26.666  -2.192  52.558  1.00  0.00     0.289 C 
HETATM   33  H7  UNL     1      28.057  -3.735  52.713  1.00  0.00     0.316 HD
HETATM   34  C5  UNL     1      26.774  -0.797  52.081  1.00  0.00     0.147 C 
ENDBRANCH  26  27
ENDBRANCH  23  26
ENDBRANCH   1  22
TORSDOF 5
ENDMDL
MODEL 5
REMARK VINA RESULT:      -9.1      2.963      7.564
REMARK  5 active torsions:
REMARK  status: ('A' for Active; 'I' for Inactive)
REMARK    1  A    between atoms: N2_7  and  C6_8 
REMARK    2  A    between atoms: C6_8  and  C7_9 
REMARK       I    between atoms: C7_9  and  N3_11 
REMARK    3  A    between atoms: N3_11  and  C8_12 
REMARK    4  A    between atoms: C15_21  and  N6_22 
REMARK    5  A    between atoms: N6_22  and  C16_23 
ROOT
HETATM    1  C8  UNL     1      22.309   1.130  52.945  1.00  0.00     0.035 A 
HETATM    2  C9  UNL     1      22.830  -0.071  53.428  1.00  0.00     0.030 A 
HETATM    3  C10 UNL     1      24.176  -0.305  53.271  1.00  0.00     0.016 A 
HETATM    4  C11 UNL     1      24.906   0.681  52.643  1.00  0.00     0.000 A 
HETATM    5  C12 UNL     1      26.251   0.371  52.526  1.00  0.00     0.073 A 
HETATM    6  C13 UNL     1      26.850  -0.853  53.011  1.00  0.00     0.102 C 
HETATM    7  N4  UNL     1      27.337  -1.841  53.388  1.00  0.00    -0.191 NA
HETATM    8  C14 UNL     1      27.114   1.257  51.924  1.00  0.00     0.142 A 
HETATM    9  N5  UNL     1      26.576   2.398  51.481  1.00  0.00    -0.241 NA
HETATM   10  C15 UNL     1      25.320   2.780  51.546  1.00  0.00     0.139 A 
HETATM   11  C22 UNL     1      24.438   1.885  52.151  1.00  0.00     0.024 A 
HETATM   12  C23 UNL     1      23.079   2.068  52.332  1.00  0.00     0.045 A 
ENDROOT
BRANCH  10  13
HETATM   13  N6  UNL     1      24.715   4.008  51.170  1.00  0.00    -0.340 N 
HETATM   14  H18 UNL     1      23.857   4.471  51.453  1.00  0.00     0.167 HD
BRANCH  13  15
HETATM   15  C16 UNL     1      25.635   4.541  50.208  1.00  0.00     0.035 A 
HETATM   16  C17 UNL     1      26.631   3.991  49.466  1.00  0.00     0.029 A 
HETATM   17  C18 UNL     1      27.423   4.763  48.655  1.00  0.00     0.004 A 
HETATM   18  C19 UNL     1      27.267   6.128  48.537  1.00  0.00     0.019 A 
HETATM   19  C20 UNL     1      26.249   6.721  49.288  1.00  0.00     0.013 A 
HETATM   20 BR1  UNL     1      26.109   8.599  49.065  1.00  0.00    -0.051 Br
HETATM   21  C21 UNL     1      25.466   5.926  50.095  1.00  0.00     0.048 A 
ENDBRANCH  13  15
ENDBRANCH  10  13
BRANCH   1  22
HETATM   22  N3  UNL     1      20.900   1.336  53.133  1.00  0.00    -0.326 N 
HETATM   23  C7  UNL     1      20.346   0.700  51.980  1.00  0.00     0.239 C 
HETATM   24  O1  UNL     1      21.329   0.220  51.292  1.00  0.00    -0.271 OA
HETATM   25  H14 UNL     1      20.061   1.700  53.653  1.00  0.00     0.169 HD
BRANCH  23  26
HETATM   26  C6  UNL     1      19.099   0.379  51.284  1.00  0.00     0.220 C 
BRANCH  26  27
HETATM   27  N2  UNL     1      18.087  -0.287  51.987  1.00  0.00    -0.397 N 
HETATM   28  C2  UNL     1      16.895  -0.656  51.334  1.00  0.00     0.103 C 
HETATM   29  C1  UNL     1      16.319   0.481  50.518  1.00  0.00     0.034 C 
HETATM   30  C3  UNL     1      15.846  -0.946  52.421  1.00  0.00     0.293 C 
HETATM   31  N1  UNL     1      16.247  -2.147  53.076  1.00  0.00     0.086 N 
HETATM   32  C4  UNL     1      17.629  -2.246  53.442  1.00  0.00     0.289 C 
HETATM   33  H7  UNL     1      15.590  -2.415  53.836  1.00  0.00     0.316 HD
HETATM   34  C5  UNL     1      18.483  -1.092  53.089  1.00  0.00     0.147 C 
ENDBRANCH  26  27
ENDBRANCH  23  26
ENDBRANCH   1  22
TORSDOF 5
ENDMDL
MODEL 6
REMARK VINA RESULT:      -9.1      2.178      7.273
REMARK  5 active torsions:
REMARK  status: ('A' for Active; 'I' for Inactive)
REMARK    1  A    between atoms: N2_7  and  C6_8 
REMARK    2  A    between atoms: C6_8  and  C7_9 
REMARK       I    between atoms: C7_9  and  N3_11 
REMARK    3  A    between atoms: N3_11  and  C8_12 
REMARK    4  A    between atoms: C15_21  and  N6_22 
REMARK    5  A    between atoms: N6_22  and  C16_23 
ROOT
HETATM    1  C8  UNL     1      22.119   0.520  53.495  1.00  0.00     0.035 A 
HETATM    2  C9  UNL     1      22.690  -0.750  53.580  1.00  0.00     0.030 A 
HETATM    3  C10 UNL     1      24.029  -0.880  53.295  1.00  0.00     0.016 A 
HETATM    4  C11 UNL     1      24.703   0.271  52.949  1.00  0.00     0.000 A 
HETATM    5  C12 UNL     1      26.044   0.058  52.679  1.00  0.00     0.073 A 
HETATM    6  C13 UNL     1      26.695  -1.232  52.755  1.00  0.00     0.102 C 
HETATM    7  N4  UNL     1      27.222  -2.269  52.802  1.00  0.00    -0.191 NA
HETATM    8  C14 UNL     1      26.853   1.111  52.322  1.00  0.00     0.142 A 
HETATM    9  N5  UNL     1      26.268   2.311  52.259  1.00  0.00    -0.241 NA
HETATM   10  C15 UNL     1      25.011   2.613  52.494  1.00  0.00     0.139 A 
HETATM   11  C22 UNL     1      24.183   1.549  52.854  1.00  0.00     0.024 A 
HETATM   12  C23 UNL     1      22.833   1.623  53.148  1.00  0.00     0.045 A 
ENDROOT
BRANCH  10  13
HETATM   13  N6  UNL     1      24.361   3.874  52.525  1.00  0.00    -0.340 N 
HETATM   14  H18 UNL     1      23.980   4.438  53.279  1.00  0.00     0.167 HD
BRANCH  13  15
HETATM   15  C16 UNL     1      24.333   4.257  51.143  1.00  0.00     0.035 A 
HETATM   16  C17 UNL     1      25.291   4.658  50.266  1.00  0.00     0.029 A 
HETATM   17  C18 UNL     1      24.971   5.041  48.989  1.00  0.00     0.004 A 
HETATM   18  C19 UNL     1      23.677   5.046  48.512  1.00  0.00     0.019 A 
HETATM   19  C20 UNL     1      22.671   4.638  49.392  1.00  0.00     0.013 A 
HETATM   20 BR1  UNL     1      20.925   4.679  48.651  1.00  0.00    -0.051 Br
HETATM   21  C21 UNL     1      23.016   4.258  50.669  1.00  0.00     0.048 A 
ENDBRANCH  13  15
ENDBRANCH  10  13
BRANCH   1  22
HETATM   22  N3  UNL     1      20.719   0.612  53.805  1.00  0.00    -0.326 N 
HETATM   23  C7  UNL     1      20.114   0.397  52.529  1.00  0.00     0.239 C 
HETATM   24  O1  UNL     1      21.066   0.210  51.675  1.00  0.00    -0.271 OA
HETATM   25  H14 UNL     1      19.904   0.752  54.454  1.00  0.00     0.169 HD
BRANCH  23  26
HETATM   26  C6  UNL     1      18.836   0.304  51.820  1.00  0.00     0.220 C 
BRANCH  26  27
HETATM   27  N2  UNL     1      17.845  -0.545  52.328  1.00  0.00    -0.397 N 
HETATM   28  C2  UNL     1      16.761  -0.934  51.518  1.00  0.00     0.103 C 
HETATM   29  C1  UNL     1      16.138   0.244  50.799  1.00  0.00     0.034 C 
HETATM   30  C3  UNL     1      15.659  -1.468  52.448  1.00  0.00     0.293 C 
HETATM   31  N1  UNL     1      16.129  -2.703  52.983  1.00  0.00     0.086 N 
HETATM   32  C4  UNL     1      17.476  -2.719  53.469  1.00  0.00     0.289 C 
HETATM   33  H7  UNL     1      15.441  -3.134  53.633  1.00  0.00     0.316 HD
HETATM   34  C5  UNL     1      18.229  -1.452  53.353  1.00  0.00     0.147 C 
ENDBRANCH  26  27
ENDBRANCH  23  26
ENDBRANCH   1  22
TORSDOF 5
ENDMDL
MODEL 7
REMARK VINA RESULT:      -8.9      2.199      3.007
REMARK  5 active torsions:
REMARK  status: ('A' for Active; 'I' for Inactive)
REMARK    1  A    between atoms: N2_7  and  C6_8 
REMARK    2  A    between atoms: C6_8  and  C7_9 
REMARK       I    between atoms: C7_9  and  N3_11 
REMARK    3  A    between atoms: N3_11  and  C8_12 
REMARK    4  A    between atoms: C15_21  and  N6_22 
REMARK    5  A    between atoms: N6_22  and  C16_23 
ROOT
HETATM    1  C8  UNL     1      23.029   0.431  53.206  1.00  0.00     0.035 A 
HETATM    2  C9  UNL     1      22.007  -0.355  52.672  1.00  0.00     0.030 A 
HETATM    3  C10 UNL     1      21.053   0.259  51.895  1.00  0.00     0.016 A 
HETATM    4  C11 UNL     1      21.192   1.617  51.704  1.00  0.00     0.000 A 
HETATM    5  C12 UNL     1      20.196   2.160  50.910  1.00  0.00     0.073 A 
HETATM    6  C13 UNL     1      19.115   1.398  50.325  1.00  0.00     0.102 C 
HETATM    7  N4  UNL     1      18.235   0.793  49.860  1.00  0.00    -0.191 NA
HETATM    8  C14 UNL     1      20.198   3.505  50.623  1.00  0.00     0.142 A 
HETATM    9  N5  UNL     1      21.198   4.221  51.148  1.00  0.00    -0.241 NA
HETATM   10  C15 UNL     1      22.183   3.800  51.909  1.00  0.00     0.139 A 
HETATM   11  C22 UNL     1      22.186   2.436  52.208  1.00  0.00     0.024 A 
HETATM   12  C23 UNL     1      23.116   1.769  52.984  1.00  0.00     0.045 A 
ENDROOT
BRANCH  10  13
HETATM   13  N6  UNL     1      23.310   4.495  52.420  1.00  0.00    -0.340 N 
HETATM   14  H18 UNL     1      23.585   4.772  53.357  1.00  0.00     0.167 HD
BRANCH  13  15
HETATM   15  C16 UNL     1      24.081   4.771  51.243  1.00  0.00     0.035 A 
HETATM   16  C17 UNL     1      24.744   3.982  50.357  1.00  0.00     0.029 A 
HETATM   17  C18 UNL     1      25.478   4.524  49.333  1.00  0.00     0.004 A 
HETATM   18  C19 UNL     1      25.594   5.883  49.133  1.00  0.00     0.019 A 
HETATM   19  C20 UNL     1      24.921   6.719  50.030  1.00  0.00     0.013 A 
HETATM   20 BR1  UNL     1      25.138   8.571  49.681  1.00  0.00    -0.051 Br
HETATM   21  C21 UNL     1      24.190   6.153  51.050  1.00  0.00     0.048 A 
ENDBRANCH  13  15
ENDBRANCH  10  13
BRANCH   1  22
HETATM   22  N3  UNL     1      24.006  -0.252  54.008  1.00  0.00    -0.326 N 
HETATM   23  C7  UNL     1      25.120  -0.338  53.118  1.00  0.00     0.239 C 
HETATM   24  O1  UNL     1      24.775   0.230  52.010  1.00  0.00    -0.271 OA
HETATM   25  H14 UNL     1      24.343  -0.722  54.887  1.00  0.00     0.169 HD
BRANCH  23  26
HETATM   26  C6  UNL     1      26.497  -0.816  52.981  1.00  0.00     0.220 C 
BRANCH  26  27
HETATM   27  N2  UNL     1      27.537  -0.024  53.480  1.00  0.00    -0.397 N 
HETATM   28  C2  UNL     1      28.874  -0.312  53.142  1.00  0.00     0.103 C 
HETATM   29  C1  UNL     1      29.196  -1.782  53.305  1.00  0.00     0.034 C 
HETATM   30  C3  UNL     1      29.773   0.414  54.156  1.00  0.00     0.293 C 
HETATM   31  N1  UNL     1      29.660   1.810  53.888  1.00  0.00     0.086 N 
HETATM   32  C4  UNL     1      28.336   2.318  53.689  1.00  0.00     0.289 C 
HETATM   33  H7  UNL     1      30.237   2.380  54.538  1.00  0.00     0.316 HD
HETATM   34  C5  UNL     1      27.237   1.333  53.776  1.00  0.00     0.147 C 
ENDBRANCH  26  27
ENDBRANCH  23  26
ENDBRANCH   1  22
TORSDOF 5
ENDMDL
MODEL 8
REMARK VINA RESULT:      -8.9      2.325      7.028
REMARK  5 active torsions:
REMARK  status: ('A' for Active; 'I' for Inactive)
REMARK    1  A    between atoms: N2_7  and  C6_8 
REMARK    2  A    between atoms: C6_8  and  C7_9 
REMARK       I    between atoms: C7_9  and  N3_11 
REMARK    3  A    between atoms: N3_11  and  C8_12 
REMARK    4  A    between atoms: C15_21  and  N6_22 
REMARK    5  A    between atoms: N6_22  and  C16_23 
ROOT
HETATM    1  C8  UNL     1      22.149   0.492  53.566  1.00  0.00     0.035 A 
HETATM    2  C9  UNL     1      22.726  -0.776  53.651  1.00  0.00     0.030 A 
HETATM    3  C10 UNL     1      24.060  -0.904  53.342  1.00  0.00     0.016 A 
HETATM    4  C11 UNL     1      24.723   0.246  52.973  1.00  0.00     0.000 A 
HETATM    5  C12 UNL     1      26.060   0.034  52.681  1.00  0.00     0.073 A 
HETATM    6  C13 UNL     1      26.716  -1.253  52.755  1.00  0.00     0.102 C 
HETATM    7  N4  UNL     1      27.247  -2.288  52.801  1.00  0.00    -0.191 NA
HETATM    8  C14 UNL     1      26.859   1.087  52.300  1.00  0.00     0.142 A 
HETATM    9  N5  UNL     1      26.269   2.285  52.238  1.00  0.00    -0.241 NA
HETATM   10  C15 UNL     1      25.016   2.585  52.494  1.00  0.00     0.139 A 
HETATM   11  C22 UNL     1      24.198   1.522  52.878  1.00  0.00     0.024 A 
HETATM   12  C23 UNL     1      22.853   1.594  53.196  1.00  0.00     0.045 A 
ENDROOT
BRANCH  10  13
HETATM   13  N6  UNL     1      24.362   3.845  52.526  1.00  0.00    -0.340 N 
HETATM   14  H18 UNL     1      24.002   4.418  53.283  1.00  0.00     0.167 HD
BRANCH  13  15
HETATM   15  C16 UNL     1      24.292   4.208  51.141  1.00  0.00     0.035 A 
HETATM   16  C17 UNL     1      25.222   4.605  50.233  1.00  0.00     0.029 A 
HETATM   17  C18 UNL     1      24.863   4.967  48.960  1.00  0.00     0.004 A 
HETATM   18  C19 UNL     1      23.557   4.955  48.519  1.00  0.00     0.019 A 
HETATM   19  C20 UNL     1      22.578   4.550  49.432  1.00  0.00     0.013 A 
HETATM   20 BR1  UNL     1      20.812   4.566  48.740  1.00  0.00    -0.051 Br
HETATM   21  C21 UNL     1      22.962   4.191  50.704  1.00  0.00     0.048 A 
ENDBRANCH  13  15
ENDBRANCH  10  13
BRANCH   1  22
HETATM   22  N3  UNL     1      20.755   0.582  53.901  1.00  0.00    -0.326 N 
HETATM   23  C7  UNL     1      20.126   0.278  52.655  1.00  0.00     0.239 C 
HETATM   24  O1  UNL     1      21.062   0.052  51.793  1.00  0.00    -0.271 OA
HETATM   25  H14 UNL     1      19.952   0.751  54.558  1.00  0.00     0.169 HD
BRANCH  23  26
HETATM   26  C6  UNL     1      18.835   0.122  51.982  1.00  0.00     0.220 C 
BRANCH  26  27
HETATM   27  N2  UNL     1      18.320   1.201  51.254  1.00  0.00    -0.397 N 
HETATM   28  C2  UNL     1      17.068   1.094  50.618  1.00  0.00     0.103 C 
HETATM   29  C1  UNL     1      16.939  -0.191  49.830  1.00  0.00     0.034 C 
HETATM   30  C3  UNL     1      16.985   2.220  49.573  1.00  0.00     0.293 C 
HETATM   31  N1  UNL     1      16.885   3.448  50.290  1.00  0.00     0.086 N 
HETATM   32  C4  UNL     1      17.791   3.623  51.387  1.00  0.00     0.289 C 
HETATM   33  H7  UNL     1      16.830   4.268  49.654  1.00  0.00     0.316 HD
HETATM   34  C5  UNL     1      18.720   2.505  51.654  1.00  0.00     0.147 C 
ENDBRANCH  26  27
ENDBRANCH  23  26
ENDBRANCH   1  22
TORSDOF 5
ENDMDL
MODEL 9
REMARK VINA RESULT:      -8.9      3.497      8.434
REMARK  5 active torsions:
REMARK  status: ('A' for Active; 'I' for Inactive)
REMARK    1  A    between atoms: N2_7  and  C6_8 
REMARK    2  A    between atoms: C6_8  and  C7_9 
REMARK       I    between atoms: C7_9  and  N3_11 
REMARK    3  A    between atoms: N3_11  and  C8_12 
REMARK    4  A    between atoms: C15_21  and  N6_22 
REMARK    5  A    between atoms: N6_22  and  C16_23 
ROOT
HETATM    1  C8  UNL     1      22.608   4.320  51.609  1.00  0.00     0.035 A 
HETATM    2  C9  UNL     1      22.668   5.465  50.815  1.00  0.00     0.030 A 
HETATM    3  C10 UNL     1      23.803   5.677  50.066  1.00  0.00     0.016 A 
HETATM    4  C11 UNL     1      24.795   4.726  50.164  1.00  0.00     0.000 A 
HETATM    5  C12 UNL     1      25.901   5.010  49.380  1.00  0.00     0.073 A 
HETATM    6  C13 UNL     1      26.021   6.176  48.533  1.00  0.00     0.102 C 
HETATM    7  N4  UNL     1      26.129   7.119  47.857  1.00  0.00    -0.191 NA
HETATM    8  C14 UNL     1      26.976   4.153  49.366  1.00  0.00     0.142 A 
HETATM    9  N5  UNL     1      26.875   3.064  50.136  1.00  0.00    -0.241 NA
HETATM   10  C15 UNL     1      25.874   2.710  50.910  1.00  0.00     0.139 A 
HETATM   11  C22 UNL     1      24.781   3.577  50.933  1.00  0.00     0.024 A 
HETATM   12  C23 UNL     1      23.620   3.414  51.666  1.00  0.00     0.045 A 
ENDROOT
BRANCH  10  13
HETATM   13  N6  UNL     1      25.680   1.531  51.678  1.00  0.00    -0.340 N 
HETATM   14  H18 UNL     1      24.938   0.839  51.706  1.00  0.00     0.167 HD
BRANCH  13  15
HETATM   15  C16 UNL     1      26.854   1.485  52.501  1.00  0.00     0.035 A 
HETATM   16  C17 UNL     1      27.567   2.435  53.162  1.00  0.00     0.029 A 
HETATM   17  C18 UNL     1      28.719   2.118  53.835  1.00  0.00     0.004 A 
HETATM   18  C19 UNL     1      29.226   0.838  53.888  1.00  0.00     0.019 A 
HETATM   19  C20 UNL     1      28.512  -0.160  53.218  1.00  0.00     0.013 A 
HETATM   20 BR1  UNL     1      29.284  -1.888  53.343  1.00  0.00    -0.051 Br
HETATM   21  C21 UNL     1      27.359   0.181  52.549  1.00  0.00     0.048 A 
ENDBRANCH  13  15
ENDBRANCH  10  13
BRANCH   1  22
HETATM   22  N3  UNL     1      21.404   4.135  52.371  1.00  0.00    -0.326 N 
HETATM   23  C7  UNL     1      20.761   3.073  51.666  1.00  0.00     0.239 C 
HETATM   24  O1  UNL     1      21.528   2.742  50.679  1.00  0.00    -0.271 OA
HETATM   25  H14 UNL     1      20.743   4.357  53.158  1.00  0.00     0.169 HD
BRANCH  23  26
HETATM   26  C6  UNL     1      19.575   2.215  51.633  1.00  0.00     0.220 C 
BRANCH  26  27
HETATM   27  N2  UNL     1      19.518   1.112  52.493  1.00  0.00    -0.397 N 
HETATM   28  C2  UNL     1      19.031  -0.126  52.028  1.00  0.00     0.103 C 
HETATM   29  C1  UNL     1      17.732   0.025  51.267  1.00  0.00     0.034 C 
HETATM   30  C3  UNL     1      18.681  -0.975  53.262  1.00  0.00     0.293 C 
HETATM   31  N1  UNL     1      19.912  -1.322  53.891  1.00  0.00     0.086 N 
HETATM   32  C4  UNL     1      20.865  -0.265  54.060  1.00  0.00     0.289 C 
HETATM   33  H7  UNL     1      19.765  -1.897  54.745  1.00  0.00     0.316 HD
HETATM   34  C5  UNL     1      20.464   1.064  53.552  1.00  0.00     0.147 C 
ENDBRANCH  26  27
ENDBRANCH  23  26
ENDBRANCH   1  22
TORSDOF 5
ENDMDL
