MODEL 1
REMARK VINA RESULT:      -7.5      0.000      0.000
REMARK  5 active torsions:
REMARK  status: ('A' for Active; 'I' for Inactive)
REMARK    1  A    between atoms: O1_2  and  C2_3 
REMARK    2  A    between atoms: C5_6  and  O2_7 
REMARK    3  A    between atoms: C6_8  and  C7_9 
REMARK    4  A    between atoms: C7_9  and  C8_10 
REMARK    5  A    between atoms: C11_15  and  N3_16 
ROOT
HETATM    1  C8  UNL     1      25.054   2.412  51.868  1.00  0.00     0.010 A 
HETATM    2  C9  UNL     1      25.952   3.021  50.991  1.00  0.00     0.129 A 
HETATM    3  N1  UNL     1      25.593   3.413  49.732  1.00  0.00    -0.253 NA
HETATM    4  C10 UNL     1      24.312   3.206  49.306  1.00  0.00     0.234 A 
HETATM    5  N2  UNL     1      23.404   2.612  50.137  1.00  0.00    -0.223 NA
HETATM    6  C11 UNL     1      23.780   2.234  51.373  1.00  0.00     0.143 A 
ENDROOT
BRANCH   1   7
HETATM    7  C7  UNL     1      25.403   1.978  53.230  1.00  0.00     0.085 C 
BRANCH   7   8
HETATM    8  C6  UNL     1      26.638   1.183  53.332  1.00  0.00    -0.018 A 
HETATM    9  C5  UNL     1      27.837   1.759  53.691  1.00  0.00     0.072 A 
HETATM   10  C4  UNL     1      28.917   0.874  53.745  1.00  0.00     0.040 A 
HETATM   11  C3  UNL     1      28.859  -0.471  53.475  1.00  0.00     0.039 A 
HETATM   12  C2  UNL     1      27.625  -0.957  53.126  1.00  0.00     0.068 A 
HETATM   13  C17 UNL     1      26.498  -0.174  53.043  1.00  0.00     0.047 A 
BRANCH   9  14
HETATM   14  O2  UNL     1      27.960   3.109  53.977  1.00  0.00    -0.360 OA
HETATM   15  H6  UNL     1      27.212   3.551  54.486  1.00  0.00     0.217 HD
ENDBRANCH   9  14
BRANCH  12  16
HETATM   16  O1  UNL     1      27.526  -2.313  52.844  1.00  0.00    -0.356 OA
HETATM   17  C1  UNL     1      28.559  -3.231  53.064  1.00  0.00     0.210 C 
ENDBRANCH  12  16
ENDBRANCH   7   8
ENDBRANCH   1   7
BRANCH   6  18
HETATM   18  N3  UNL     1      22.738   1.630  52.129  1.00  0.00    -0.315 N 
HETATM   19  C12 UNL     1      21.576   2.480  52.180  1.00  0.00     0.110 A 
HETATM   20  C13 UNL     1      20.489   2.103  52.810  1.00  0.00    -0.007 A 
HETATM   21  C14 UNL     1      20.436   0.975  53.441  1.00  0.00     0.034 A 
HETATM   22  C15 UNL     1      21.570   0.056  53.438  1.00  0.00     0.027 A 
HETATM   23 BR1  UNL     1      21.610  -1.647  54.302  1.00  0.00    -0.050 Br
HETATM   24  C16 UNL     1      22.684   0.385  52.796  1.00  0.00     0.117 A 
ENDBRANCH   6  18
TORSDOF 5
ENDMDL
MODEL 2
REMARK VINA RESULT:      -7.5      2.424      3.775
REMARK  5 active torsions:
REMARK  status: ('A' for Active; 'I' for Inactive)
REMARK    1  A    between atoms: O1_2  and  C2_3 
REMARK    2  A    between atoms: C5_6  and  O2_7 
REMARK    3  A    between atoms: C6_8  and  C7_9 
REMARK    4  A    between atoms: C7_9  and  C8_10 
REMARK    5  A    between atoms: C11_15  and  N3_16 
ROOT
HETATM    1  C8  UNL     1      24.353   0.572  52.672  1.00  0.00     0.010 A 
HETATM    2  C9  UNL     1      24.102  -0.458  53.579  1.00  0.00     0.129 A 
HETATM    3  N1  UNL     1      22.883  -0.633  54.169  1.00  0.00    -0.253 NA
HETATM    4  C10 UNL     1      21.864   0.226  53.868  1.00  0.00     0.234 A 
HETATM    5  N2  UNL     1      22.071   1.248  52.985  1.00  0.00    -0.223 NA
HETATM    6  C11 UNL     1      23.281   1.401  52.415  1.00  0.00     0.143 A 
ENDROOT
BRANCH   1   7
HETATM    7  C7  UNL     1      25.652   0.792  52.016  1.00  0.00     0.085 C 
BRANCH   7   8
HETATM    8  C6  UNL     1      26.824   0.648  52.894  1.00  0.00    -0.018 A 
HETATM    9  C5  UNL     1      27.226   1.665  53.732  1.00  0.00     0.072 A 
HETATM   10  C4  UNL     1      28.355   1.376  54.503  1.00  0.00     0.040 A 
HETATM   11  C3  UNL     1      29.056   0.196  54.478  1.00  0.00     0.039 A 
HETATM   12  C2  UNL     1      28.583  -0.760  53.614  1.00  0.00     0.068 A 
HETATM   13  C17 UNL     1      27.483  -0.579  52.812  1.00  0.00     0.047 A 
BRANCH   9  14
HETATM   14  O2  UNL     1      26.560   2.879  53.803  1.00  0.00    -0.360 OA
HETATM   15  H6  UNL     1      26.547   3.456  52.978  1.00  0.00     0.217 HD
ENDBRANCH   9  14
BRANCH  12  16
HETATM   16  O1  UNL     1      29.267  -1.968  53.560  1.00  0.00    -0.356 OA
HETATM   17  C1  UNL     1      28.719  -3.150  53.050  1.00  0.00     0.210 C 
ENDBRANCH  12  16
ENDBRANCH   7   8
ENDBRANCH   1   7
BRANCH   6  18
HETATM   18  N3  UNL     1      23.358   2.502  51.519  1.00  0.00    -0.315 N 
HETATM   19  C12 UNL     1      23.016   2.101  50.177  1.00  0.00     0.110 A 
HETATM   20  C13 UNL     1      23.002   2.969  49.194  1.00  0.00    -0.007 A 
HETATM   21  C14 UNL     1      23.331   4.206  49.386  1.00  0.00     0.034 A 
HETATM   22  C15 UNL     1      23.688   4.692  50.715  1.00  0.00     0.027 A 
HETATM   23 BR1  UNL     1      24.163   6.494  51.137  1.00  0.00    -0.050 Br
HETATM   24  C16 UNL     1      23.697   3.855  51.744  1.00  0.00     0.117 A 
ENDBRANCH   6  18
TORSDOF 5
ENDMDL
MODEL 3
REMARK VINA RESULT:      -7.4      3.265      6.671
REMARK  5 active torsions:
REMARK  status: ('A' for Active; 'I' for Inactive)
REMARK    1  A    between atoms: O1_2  and  C2_3 
REMARK    2  A    between atoms: C5_6  and  O2_7 
REMARK    3  A    between atoms: C6_8  and  C7_9 
REMARK    4  A    between atoms: C7_9  and  C8_10 
REMARK    5  A    between atoms: C11_15  and  N3_16 
ROOT
HETATM    1  C8  UNL     1      23.478   0.248  53.256  1.00  0.00     0.010 A 
HETATM    2  C9  UNL     1      22.142   0.067  53.616  1.00  0.00     0.129 A 
HETATM    3  N1  UNL     1      21.767  -0.722  54.666  1.00  0.00    -0.253 NA
HETATM    4  C10 UNL     1      22.727  -1.362  55.398  1.00  0.00     0.234 A 
HETATM    5  N2  UNL     1      24.046  -1.210  55.077  1.00  0.00    -0.223 NA
HETATM    6  C11 UNL     1      24.392  -0.427  54.037  1.00  0.00     0.143 A 
ENDROOT
BRANCH   1   7
HETATM    7  C7  UNL     1      23.920   1.090  52.133  1.00  0.00     0.085 C 
BRANCH   7   8
HETATM    8  C6  UNL     1      23.350   2.447  52.111  1.00  0.00    -0.018 A 
HETATM    9  C5  UNL     1      23.931   3.483  52.809  1.00  0.00     0.072 A 
HETATM   10  C4  UNL     1      23.274   4.710  52.688  1.00  0.00     0.040 A 
HETATM   11  C3  UNL     1      22.138   4.936  51.951  1.00  0.00     0.039 A 
HETATM   12  C2  UNL     1      21.630   3.847  51.289  1.00  0.00     0.068 A 
HETATM   13  C17 UNL     1      22.198   2.597  51.340  1.00  0.00     0.047 A 
BRANCH   9  14
HETATM   14  O2  UNL     1      25.077   3.319  53.571  1.00  0.00    -0.360 OA
HETATM   15  H6  UNL     1      25.414   2.381  53.716  1.00  0.00     0.217 HD
ENDBRANCH   9  14
BRANCH  12  16
HETATM   16  O1  UNL     1      20.480   4.036  50.533  1.00  0.00    -0.356 OA
HETATM   17  C1  UNL     1      19.184   3.886  51.037  1.00  0.00     0.210 C 
ENDBRANCH  12  16
ENDBRANCH   7   8
ENDBRANCH   1   7
BRANCH   6  18
HETATM   18  N3  UNL     1      25.794  -0.358  53.814  1.00  0.00    -0.315 N 
HETATM   19  C12 UNL     1      26.253  -1.491  53.050  1.00  0.00     0.110 A 
HETATM   20  C13 UNL     1      27.514  -1.614  52.713  1.00  0.00    -0.007 A 
HETATM   21  C14 UNL     1      28.397  -0.744  53.087  1.00  0.00     0.034 A 
HETATM   22  C15 UNL     1      28.014   0.432  53.861  1.00  0.00     0.027 A 
HETATM   23 BR1  UNL     1      29.209   1.801  54.447  1.00  0.00    -0.050 Br
HETATM   24  C16 UNL     1      26.746   0.610  54.208  1.00  0.00     0.117 A 
ENDBRANCH   6  18
TORSDOF 5
ENDMDL
MODEL 4
REMARK VINA RESULT:      -7.4      2.874      5.061
REMARK  5 active torsions:
REMARK  status: ('A' for Active; 'I' for Inactive)
REMARK    1  A    between atoms: O1_2  and  C2_3 
REMARK    2  A    between atoms: C5_6  and  O2_7 
REMARK    3  A    between atoms: C6_8  and  C7_9 
REMARK    4  A    between atoms: C7_9  and  C8_10 
REMARK    5  A    between atoms: C11_15  and  N3_16 
ROOT
HETATM    1  C8  UNL     1      25.076   1.748  52.847  1.00  0.00     0.010 A 
HETATM    2  C9  UNL     1      26.419   1.995  52.559  1.00  0.00     0.129 A 
HETATM    3  N1  UNL     1      27.342   0.992  52.458  1.00  0.00    -0.253 NA
HETATM    4  C10 UNL     1      26.948  -0.302  52.643  1.00  0.00     0.234 A 
HETATM    5  N2  UNL     1      25.641  -0.584  52.927  1.00  0.00    -0.223 NA
HETATM    6  C11 UNL     1      24.749   0.420  53.022  1.00  0.00     0.143 A 
ENDROOT
BRANCH   1   7
HETATM    7  C7  UNL     1      24.054   2.799  52.963  1.00  0.00     0.085 C 
BRANCH   7   8
HETATM    8  C6  UNL     1      23.781   3.541  51.721  1.00  0.00    -0.018 A 
HETATM    9  C5  UNL     1      23.756   4.919  51.696  1.00  0.00     0.072 A 
HETATM   10  C4  UNL     1      23.484   5.476  50.444  1.00  0.00     0.040 A 
HETATM   11  C3  UNL     1      23.251   4.768  49.291  1.00  0.00     0.039 A 
HETATM   12  C2  UNL     1      23.295   3.402  49.411  1.00  0.00     0.068 A 
HETATM   13  C17 UNL     1      23.554   2.753  50.594  1.00  0.00     0.047 A 
BRANCH   9  14
HETATM   14  O2  UNL     1      23.984   5.689  52.826  1.00  0.00    -0.360 OA
HETATM   15  H6  UNL     1      23.762   6.670  52.777  1.00  0.00     0.217 HD
ENDBRANCH   9  14
BRANCH  12  16
HETATM   16  O1  UNL     1      23.063   2.651  48.266  1.00  0.00    -0.356 OA
HETATM   17  C1  UNL     1      21.964   1.801  48.102  1.00  0.00     0.210 C 
ENDBRANCH  12  16
ENDBRANCH   7   8
ENDBRANCH   1   7
BRANCH   6  18
HETATM   18  N3  UNL     1      23.429  -0.014  53.322  1.00  0.00    -0.315 N 
HETATM   19  C12 UNL     1      23.407  -0.815  54.520  1.00  0.00     0.110 A 
HETATM   20  C13 UNL     1      22.282  -1.299  54.989  1.00  0.00    -0.007 A 
HETATM   21  C14 UNL     1      21.160  -1.110  54.373  1.00  0.00     0.034 A 
HETATM   22  C15 UNL     1      21.097  -0.311  53.154  1.00  0.00     0.027 A 
HETATM   23 BR1  UNL     1      19.506   0.070  52.168  1.00  0.00    -0.050 Br
HETATM   24  C16 UNL     1      22.206   0.219  52.653  1.00  0.00     0.117 A 
ENDBRANCH   6  18
TORSDOF 5
ENDMDL
MODEL 5
REMARK VINA RESULT:      -7.3      2.450      3.770
REMARK  5 active torsions:
REMARK  status: ('A' for Active; 'I' for Inactive)
REMARK    1  A    between atoms: O1_2  and  C2_3 
REMARK    2  A    between atoms: C5_6  and  O2_7 
REMARK    3  A    between atoms: C6_8  and  C7_9 
REMARK    4  A    between atoms: C7_9  and  C8_10 
REMARK    5  A    between atoms: C11_15  and  N3_16 
ROOT
HETATM    1  C8  UNL     1      23.639  -0.044  53.297  1.00  0.00     0.010 A 
HETATM    2  C9  UNL     1      23.818  -0.899  54.385  1.00  0.00     0.129 A 
HETATM    3  N1  UNL     1      22.797  -1.232  55.230  1.00  0.00    -0.253 NA
HETATM    4  C10 UNL     1      21.552  -0.715  55.011  1.00  0.00     0.234 A 
HETATM    5  N2  UNL     1      21.337   0.126  53.956  1.00  0.00    -0.223 NA
HETATM    6  C11 UNL     1      22.358   0.440  53.137  1.00  0.00     0.143 A 
ENDROOT
BRANCH   1   7
HETATM    7  C7  UNL     1      24.712   0.336  52.365  1.00  0.00     0.085 C 
BRANCH   7   8
HETATM    8  C6  UNL     1      26.029   0.551  52.988  1.00  0.00    -0.018 A 
HETATM    9  C5  UNL     1      26.394   1.779  53.494  1.00  0.00     0.072 A 
HETATM   10  C4  UNL     1      27.674   1.824  54.053  1.00  0.00     0.040 A 
HETATM   11  C3  UNL     1      28.549   0.768  54.126  1.00  0.00     0.039 A 
HETATM   12  C2  UNL     1      28.100  -0.415  53.597  1.00  0.00     0.068 A 
HETATM   13  C17 UNL     1      26.860  -0.568  53.024  1.00  0.00     0.047 A 
BRANCH   9  14
HETATM   14  O2  UNL     1      25.556   2.883  53.452  1.00  0.00    -0.360 OA
HETATM   15  H6  UNL     1      25.290   3.303  54.327  1.00  0.00     0.217 HD
ENDBRANCH   9  14
BRANCH  12  16
HETATM   16  O1  UNL     1      28.957  -1.507  53.650  1.00  0.00    -0.356 OA
HETATM   17  C1  UNL     1      28.675  -2.747  53.068  1.00  0.00     0.210 C 
ENDBRANCH  12  16
ENDBRANCH   7   8
ENDBRANCH   1   7
BRANCH   6  18
HETATM   18  N3  UNL     1      21.996   1.323  52.083  1.00  0.00    -0.315 N 
HETATM   19  C12 UNL     1      21.527   0.592  50.933  1.00  0.00     0.110 A 
HETATM   20  C13 UNL     1      21.120   1.216  49.854  1.00  0.00    -0.007 A 
HETATM   21  C14 UNL     1      21.163   2.507  49.768  1.00  0.00     0.034 A 
HETATM   22  C15 UNL     1      21.623   3.320  50.888  1.00  0.00     0.027 A 
HETATM   23 BR1  UNL     1      21.706   5.228  50.902  1.00  0.00    -0.050 Br
HETATM   24  C16 UNL     1      22.025   2.734  52.009  1.00  0.00     0.117 A 
ENDBRANCH   6  18
TORSDOF 5
ENDMDL
MODEL 6
REMARK VINA RESULT:      -7.3      3.126      5.870
REMARK  5 active torsions:
REMARK  status: ('A' for Active; 'I' for Inactive)
REMARK    1  A    between atoms: O1_2  and  C2_3 
REMARK    2  A    between atoms: C5_6  and  O2_7 
REMARK    3  A    between atoms: C6_8  and  C7_9 
REMARK    4  A    between atoms: C7_9  and  C8_10 
REMARK    5  A    between atoms: C11_15  and  N3_16 
ROOT
HETATM    1  C8  UNL     1      22.147   2.773  51.244  1.00  0.00     0.010 A 
HETATM    2  C9  UNL     1      21.090   3.657  51.021  1.00  0.00     0.129 A 
HETATM    3  N1  UNL     1      21.182   4.991  51.298  1.00  0.00    -0.253 NA
HETATM    4  C10 UNL     1      22.345   5.490  51.813  1.00  0.00     0.234 A 
HETATM    5  N2  UNL     1      23.402   4.656  52.045  1.00  0.00    -0.223 NA
HETATM    6  C11 UNL     1      23.289   3.344  51.764  1.00  0.00     0.143 A 
ENDROOT
BRANCH   1   7
HETATM    7  C7  UNL     1      22.086   1.331  50.957  1.00  0.00     0.085 C 
BRANCH   7   8
HETATM    8  C6  UNL     1      21.170   0.564  51.816  1.00  0.00    -0.018 A 
HETATM    9  C5  UNL     1      19.859   0.344  51.455  1.00  0.00     0.072 A 
HETATM   10  C4  UNL     1      19.116  -0.402  52.374  1.00  0.00     0.040 A 
HETATM   11  C3  UNL     1      19.591  -0.905  53.560  1.00  0.00     0.039 A 
HETATM   12  C2  UNL     1      20.908  -0.637  53.836  1.00  0.00     0.068 A 
HETATM   13  C17 UNL     1      21.726   0.085  53.002  1.00  0.00     0.047 A 
BRANCH   9  14
HETATM   14  O2  UNL     1      19.320   0.825  50.272  1.00  0.00    -0.360 OA
HETATM   15  H6  UNL     1      18.956   1.764  50.270  1.00  0.00     0.217 HD
ENDBRANCH   9  14
BRANCH  12  16
HETATM   16  O1  UNL     1      21.425  -1.130  55.028  1.00  0.00    -0.356 OA
HETATM   17  C1  UNL     1      22.789  -1.344  55.255  1.00  0.00     0.210 C 
ENDBRANCH  12  16
ENDBRANCH   7   8
ENDBRANCH   1   7
BRANCH   6  18
HETATM   18  N3  UNL     1      24.461   2.593  52.054  1.00  0.00    -0.315 N 
HETATM   19  C12 UNL     1      25.410   2.678  50.974  1.00  0.00     0.110 A 
HETATM   20  C13 UNL     1      26.573   2.075  51.045  1.00  0.00    -0.007 A 
HETATM   21  C14 UNL     1      26.891   1.350  52.069  1.00  0.00     0.034 A 
HETATM   22  C15 UNL     1      25.986   1.213  53.205  1.00  0.00     0.027 A 
HETATM   23 BR1  UNL     1      26.347   0.202  54.785  1.00  0.00    -0.050 Br
HETATM   24  C16 UNL     1      24.807   1.823  53.187  1.00  0.00     0.117 A 
ENDBRANCH   6  18
TORSDOF 5
ENDMDL
MODEL 7
REMARK VINA RESULT:      -7.2      3.292      4.687
REMARK  5 active torsions:
REMARK  status: ('A' for Active; 'I' for Inactive)
REMARK    1  A    between atoms: O1_2  and  C2_3 
REMARK    2  A    between atoms: C5_6  and  O2_7 
REMARK    3  A    between atoms: C6_8  and  C7_9 
REMARK    4  A    between atoms: C7_9  and  C8_10 
REMARK    5  A    between atoms: C11_15  and  N3_16 
ROOT
HETATM    1  C8  UNL     1      23.824   2.631  51.403  1.00  0.00     0.010 A 
HETATM    2  C9  UNL     1      23.026   1.487  51.378  1.00  0.00     0.129 A 
HETATM    3  N1  UNL     1      22.258   1.154  50.298  1.00  0.00    -0.253 NA
HETATM    4  C10 UNL     1      22.263   1.964  49.198  1.00  0.00     0.234 A 
HETATM    5  N2  UNL     1      23.031   3.094  49.185  1.00  0.00    -0.223 NA
HETATM    6  C11 UNL     1      23.780   3.402  50.260  1.00  0.00     0.143 A 
ENDROOT
BRANCH   1   7
HETATM    7  C7  UNL     1      24.665   3.022  52.546  1.00  0.00     0.085 C 
BRANCH   7   8
HETATM    8  C6  UNL     1      25.683   2.033  52.936  1.00  0.00    -0.018 A 
HETATM    9  C5  UNL     1      26.949   2.052  52.394  1.00  0.00     0.072 A 
HETATM   10  C4  UNL     1      27.801   1.050  52.865  1.00  0.00     0.040 A 
HETATM   11  C3  UNL     1      27.470   0.093  53.791  1.00  0.00     0.039 A 
HETATM   12  C2  UNL     1      26.188   0.151  54.276  1.00  0.00     0.068 A 
HETATM   13  C17 UNL     1      25.270   1.094  53.881  1.00  0.00     0.047 A 
BRANCH   9  14
HETATM   14  O2  UNL     1      27.345   2.993  51.455  1.00  0.00    -0.360 OA
HETATM   15  H6  UNL     1      27.849   3.800  51.784  1.00  0.00     0.217 HD
ENDBRANCH   9  14
BRANCH  12  16
HETATM   16  O1  UNL     1      25.814  -0.802  55.215  1.00  0.00    -0.356 OA
HETATM   17  C1  UNL     1      24.498  -1.242  55.396  1.00  0.00     0.210 C 
ENDBRANCH  12  16
ENDBRANCH   7   8
ENDBRANCH   1   7
BRANCH   6  18
HETATM   18  N3  UNL     1      24.528   4.602  50.112  1.00  0.00    -0.315 N 
HETATM   19  C12 UNL     1      23.957   5.667  50.896  1.00  0.00     0.110 A 
HETATM   20  C13 UNL     1      24.506   6.858  50.922  1.00  0.00    -0.007 A 
HETATM   21  C14 UNL     1      25.555   7.129  50.213  1.00  0.00     0.034 A 
HETATM   22  C15 UNL     1      26.194   6.106  49.393  1.00  0.00     0.027 A 
HETATM   23 BR1  UNL     1      27.759   6.365  48.329  1.00  0.00    -0.050 Br
HETATM   24  C16 UNL     1      25.687   4.880  49.353  1.00  0.00     0.117 A 
ENDBRANCH   6  18
TORSDOF 5
ENDMDL
MODEL 8
REMARK VINA RESULT:      -6.9      3.534      6.409
REMARK  5 active torsions:
REMARK  status: ('A' for Active; 'I' for Inactive)
REMARK    1  A    between atoms: O1_2  and  C2_3 
REMARK    2  A    between atoms: C5_6  and  O2_7 
REMARK    3  A    between atoms: C6_8  and  C7_9 
REMARK    4  A    between atoms: C7_9  and  C8_10 
REMARK    5  A    between atoms: C11_15  and  N3_16 
ROOT
HETATM    1  C8  UNL     1      22.495   2.575  50.636  1.00  0.00     0.010 A 
HETATM    2  C9  UNL     1      22.131   3.807  50.090  1.00  0.00     0.129 A 
HETATM    3  N1  UNL     1      22.580   4.993  50.596  1.00  0.00    -0.253 NA
HETATM    4  C10 UNL     1      23.416   4.987  51.676  1.00  0.00     0.234 A 
HETATM    5  N2  UNL     1      23.795   3.801  52.239  1.00  0.00    -0.223 NA
HETATM    6  C11 UNL     1      23.340   2.643  51.723  1.00  0.00     0.143 A 
ENDROOT
BRANCH   1   7
HETATM    7  C7  UNL     1      22.033   1.278  50.118  1.00  0.00     0.085 C 
BRANCH   7   8
HETATM    8  C6  UNL     1      20.630   0.951  50.421  1.00  0.00    -0.018 A 
HETATM    9  C5  UNL     1      19.610   1.289  49.558  1.00  0.00     0.072 A 
HETATM   10  C4  UNL     1      18.334   0.911  49.985  1.00  0.00     0.040 A 
HETATM   11  C3  UNL     1      18.048   0.255  51.156  1.00  0.00     0.039 A 
HETATM   12  C2  UNL     1      19.125  -0.041  51.952  1.00  0.00     0.068 A 
HETATM   13  C17 UNL     1      20.420   0.285  51.628  1.00  0.00     0.047 A 
BRANCH   9  14
HETATM   14  O2  UNL     1      19.834   1.951  48.361  1.00  0.00    -0.360 OA
HETATM   15  H6  UNL     1      19.178   2.665  48.090  1.00  0.00     0.217 HD
ENDBRANCH   9  14
BRANCH  12  16
HETATM   16  O1  UNL     1      18.876  -0.705  53.147  1.00  0.00    -0.356 OA
HETATM   17  C1  UNL     1      17.745  -1.497  53.375  1.00  0.00     0.210 C 
ENDBRANCH  12  16
ENDBRANCH   7   8
ENDBRANCH   1   7
BRANCH   6  18
HETATM   18  N3  UNL     1      23.812   1.488  52.405  1.00  0.00    -0.315 N 
HETATM   19  C12 UNL     1      25.149   1.151  51.987  1.00  0.00     0.110 A 
HETATM   20  C13 UNL     1      25.784   0.129  52.509  1.00  0.00    -0.007 A 
HETATM   21  C14 UNL     1      25.218  -0.636  53.386  1.00  0.00     0.034 A 
HETATM   22  C15 UNL     1      23.866  -0.363  53.862  1.00  0.00     0.027 A 
HETATM   23 BR1  UNL     1      22.931  -1.392  55.172  1.00  0.00    -0.050 Br
HETATM   24  C16 UNL     1      23.192   0.673  53.379  1.00  0.00     0.117 A 
ENDBRANCH   6  18
TORSDOF 5
ENDMDL
MODEL 9
REMARK VINA RESULT:      -6.9      1.934      2.395
REMARK  5 active torsions:
REMARK  status: ('A' for Active; 'I' for Inactive)
REMARK    1  A    between atoms: O1_2  and  C2_3 
REMARK    2  A    between atoms: C5_6  and  O2_7 
REMARK    3  A    between atoms: C6_8  and  C7_9 
REMARK    4  A    between atoms: C7_9  and  C8_10 
REMARK    5  A    between atoms: C11_15  and  N3_16 
ROOT
HETATM    1  C8  UNL     1      23.803   3.291  51.313  1.00  0.00     0.010 A 
HETATM    2  C9  UNL     1      24.340   4.575  51.209  1.00  0.00     0.129 A 
HETATM    3  N1  UNL     1      23.657   5.688  51.609  1.00  0.00    -0.253 NA
HETATM    4  C10 UNL     1      22.403   5.552  52.132  1.00  0.00     0.234 A 
HETATM    5  N2  UNL     1      21.843   4.311  52.251  1.00  0.00    -0.223 NA
HETATM    6  C11 UNL     1      22.535   3.228  51.850  1.00  0.00     0.143 A 
ENDROOT
BRANCH   1   7
HETATM    7  C7  UNL     1      24.508   2.069  50.894  1.00  0.00     0.085 C 
BRANCH   7   8
HETATM    8  C6  UNL     1      25.556   1.607  51.818  1.00  0.00    -0.018 A 
HETATM    9  C5  UNL     1      26.796   2.209  51.859  1.00  0.00     0.072 A 
HETATM   10  C4  UNL     1      27.682   1.658  52.789  1.00  0.00     0.040 A 
HETATM   11  C3  UNL     1      27.407   0.604  53.624  1.00  0.00     0.039 A 
HETATM   12  C2  UNL     1      26.148   0.069  53.514  1.00  0.00     0.068 A 
HETATM   13  C17 UNL     1      25.201   0.534  52.634  1.00  0.00     0.047 A 
BRANCH   9  14
HETATM   14  O2  UNL     1      27.134   3.276  51.042  1.00  0.00    -0.360 OA
HETATM   15  H6  UNL     1      26.783   3.274  50.099  1.00  0.00     0.217 HD
ENDBRANCH   9  14
BRANCH  12  16
HETATM   16  O1  UNL     1      25.832  -1.000  54.343  1.00  0.00    -0.356 OA
HETATM   17  C1  UNL     1      24.915  -0.923  55.397  1.00  0.00     0.210 C 
ENDBRANCH  12  16
ENDBRANCH   7   8
ENDBRANCH   1   7
BRANCH   6  18
HETATM   18  N3  UNL     1      21.835   2.003  52.029  1.00  0.00    -0.315 N 
HETATM   19  C12 UNL     1      20.943   1.751  50.926  1.00  0.00     0.110 A 
HETATM   20  C13 UNL     1      20.216   0.660  50.879  1.00  0.00    -0.007 A 
HETATM   21  C14 UNL     1      20.244  -0.207  51.840  1.00  0.00     0.034 A 
HETATM   22  C15 UNL     1      21.121  -0.026  52.992  1.00  0.00     0.027 A 
HETATM   23 BR1  UNL     1      21.280  -1.241  54.457  1.00  0.00    -0.050 Br
HETATM   24  C16 UNL     1      21.891   1.052  53.073  1.00  0.00     0.117 A 
ENDBRANCH   6  18
TORSDOF 5
ENDMDL
