MODEL 1
REMARK VINA RESULT:      -8.9      0.000      0.000
REMARK  7 active torsions:
REMARK  status: ('A' for Active; 'I' for Inactive)
REMARK    1  A    between atoms: C6_7  and  C7_8 
REMARK    2  A    between atoms: C12_14  and  C13_15 
REMARK    3  A    between atoms: N2_18  and  C16_19 
REMARK    4  A    between atoms: C23_27  and  C24_28 
REMARK    5  A    between atoms: C24_28  and  C25_29 
REMARK    6  A    between atoms: C25_29  and  C26_30 
REMARK    7  A    between atoms: C26_30  and  N3_31 
ROOT
HETATM    1  N1  UNL     1      29.885   2.246  54.997  1.00  0.00    -0.191 NA
HETATM    2  C1  UNL     1      29.084   1.584  54.516  1.00  0.00     0.099 C 
HETATM    3  C2  UNL     1      28.094   0.754  53.914  1.00  0.00     0.045 A 
HETATM    4  C3  UNL     1      28.470  -0.464  53.392  1.00  0.00     0.023 A 
HETATM    5  C4  UNL     1      27.515  -1.255  52.818  1.00  0.00     0.002 A 
HETATM    6  C5  UNL     1      26.209  -0.851  52.759  1.00  0.00     0.012 A 
HETATM    7  C6  UNL     1      25.760   0.339  53.253  1.00  0.00    -0.028 A 
HETATM    8  C27 UNL     1      26.761   1.091  53.817  1.00  0.00     0.034 A 
ENDROOT
BRANCH   7   9
HETATM    9  C7  UNL     1      24.383   0.766  53.183  1.00  0.00    -0.036 C 
HETATM   10  C8  UNL     1      23.537  -0.285  53.261  1.00  0.00     0.059 C 
HETATM   11  C9  UNL     1      22.066  -0.226  53.222  1.00  0.00     0.161 C 
HETATM   12  O1  UNL     1      21.201  -1.051  53.531  1.00  0.00    -0.292 OA
HETATM   13  C10 UNL     1      21.415   1.008  52.737  1.00  0.00     0.112 A 
HETATM   14  C11 UNL     1      20.368   0.752  51.774  1.00  0.00    -0.003 A 
HETATM   15  C22 UNL     1      22.504   1.767  52.019  1.00  0.00    -0.056 A 
HETATM   16  C12 UNL     1      20.771   1.299  50.660  1.00  0.00    -0.056 A 
HETATM   17  C21 UNL     1      22.081   1.926  50.790  1.00  0.00     0.012 A 
HETATM   18  C23 UNL     1      23.582   1.962  53.062  1.00  0.00     0.049 C 
BRANCH  16  19
HETATM   19  C13 UNL     1      20.116   1.361  49.328  1.00  0.00     0.021 C 
HETATM   20  C14 UNL     1      20.974   2.128  48.345  1.00  0.00     0.029 C 
HETATM   21  C15 UNL     1      20.049   2.809  47.325  1.00  0.00     0.118 C 
HETATM   22  N2  UNL     1      19.348   3.822  48.036  1.00  0.00    -0.404 N 
HETATM   23  C19 UNL     1      18.597   3.355  49.169  1.00  0.00     0.118 C 
HETATM   24  C20 UNL     1      18.705   1.870  49.378  1.00  0.00     0.029 C 
BRANCH  22  25
HETATM   25  C16 UNL     1      18.718   4.837  47.280  1.00  0.00     0.126 C 
HETATM   26  C17 UNL     1      17.560   5.533  47.911  1.00  0.00     0.194 C 
HETATM   27  O2  UNL     1      17.940   6.689  47.230  1.00  0.00    -0.387 OA
HETATM   28  C18 UNL     1      19.271   6.237  47.386  1.00  0.00     0.194 C 
ENDBRANCH  22  25
ENDBRANCH  16  19
BRANCH  18  29
HETATM   29  C24 UNL     1      24.350   3.209  52.788  1.00  0.00     0.015 C 
BRANCH  29  30
HETATM   30  C25 UNL     1      23.446   4.436  53.014  1.00  0.00     0.031 C 
BRANCH  30  31
HETATM   31  C26 UNL     1      23.639   5.371  51.843  1.00  0.00     0.267 C 
BRANCH  31  32
HETATM   32  N3  UNL     1      24.306   6.593  52.237  1.00  0.00     0.078 N 
HETATM   33  H29 UNL     1      24.550   6.645  53.241  1.00  0.00     0.312 HD
HETATM   34  H30 UNL     1      23.843   7.442  51.849  1.00  0.00     0.312 HD
ENDBRANCH  31  32
ENDBRANCH  30  31
ENDBRANCH  29  30
ENDBRANCH  18  29
ENDBRANCH   7   9
TORSDOF 7
ENDMDL
MODEL 2
REMARK VINA RESULT:      -8.7      2.148      2.605
REMARK  7 active torsions:
REMARK  status: ('A' for Active; 'I' for Inactive)
REMARK    1  A    between atoms: C6_7  and  C7_8 
REMARK    2  A    between atoms: C12_14  and  C13_15 
REMARK    3  A    between atoms: N2_18  and  C16_19 
REMARK    4  A    between atoms: C23_27  and  C24_28 
REMARK    5  A    between atoms: C24_28  and  C25_29 
REMARK    6  A    between atoms: C25_29  and  C26_30 
REMARK    7  A    between atoms: C26_30  and  N3_31 
ROOT
HETATM    1  N1  UNL     1      29.916   1.691  54.577  1.00  0.00    -0.191 NA
HETATM    2  C1  UNL     1      29.037   1.072  54.185  1.00  0.00     0.099 C 
HETATM    3  C2  UNL     1      27.948   0.294  53.692  1.00  0.00     0.045 A 
HETATM    4  C3  UNL     1      28.212  -0.907  53.070  1.00  0.00     0.023 A 
HETATM    5  C4  UNL     1      27.163  -1.647  52.602  1.00  0.00     0.002 A 
HETATM    6  C5  UNL     1      25.874  -1.209  52.743  1.00  0.00     0.012 A 
HETATM    7  C6  UNL     1      25.534  -0.033  53.346  1.00  0.00    -0.028 A 
HETATM    8  C27 UNL     1      26.625   0.668  53.797  1.00  0.00     0.034 A 
ENDROOT
BRANCH   7   9
HETATM    9  C7  UNL     1      24.173   0.429  53.487  1.00  0.00    -0.036 C 
HETATM   10  C8  UNL     1      23.368  -0.547  53.961  1.00  0.00     0.059 C 
HETATM   11  C9  UNL     1      21.924  -0.435  54.228  1.00  0.00     0.161 C 
HETATM   12  O1  UNL     1      21.151  -1.142  54.879  1.00  0.00    -0.292 OA
HETATM   13  C10 UNL     1      21.179   0.703  53.650  1.00  0.00     0.112 A 
HETATM   14  C11 UNL     1      19.947   0.302  53.010  1.00  0.00    -0.003 A 
HETATM   15  C22 UNL     1      22.082   1.254  52.574  1.00  0.00    -0.056 A 
HETATM   16  C12 UNL     1      20.095   0.596  51.746  1.00  0.00    -0.056 A 
HETATM   17  C21 UNL     1      21.400   1.178  51.459  1.00  0.00     0.012 A 
HETATM   18  C23 UNL     1      23.362   1.609  53.297  1.00  0.00     0.049 C 
BRANCH  16  19
HETATM   19  C13 UNL     1      19.163   0.415  50.603  1.00  0.00     0.021 C 
HETATM   20  C14 UNL     1      19.078   1.680  49.777  1.00  0.00     0.029 C 
HETATM   21  C15 UNL     1      17.678   1.756  49.151  1.00  0.00     0.118 C 
HETATM   22  N2  UNL     1      16.773   1.984  50.226  1.00  0.00    -0.404 N 
HETATM   23  C19 UNL     1      16.811   0.993  51.266  1.00  0.00     0.118 C 
HETATM   24  C20 UNL     1      17.812  -0.098  51.008  1.00  0.00     0.029 C 
BRANCH  22  25
HETATM   25  C16 UNL     1      15.483   2.464  49.904  1.00  0.00     0.126 C 
HETATM   26  C17 UNL     1      14.644   1.611  49.015  1.00  0.00     0.194 C 
HETATM   27  O2  UNL     1      13.523   2.073  49.702  1.00  0.00    -0.387 OA
HETATM   28  C18 UNL     1      14.354   2.124  50.846  1.00  0.00     0.194 C 
ENDBRANCH  22  25
ENDBRANCH  16  19
BRANCH  18  29
HETATM   29  C24 UNL     1      24.048   2.741  52.613  1.00  0.00     0.015 C 
BRANCH  29  30
HETATM   30  C25 UNL     1      23.351   4.066  52.974  1.00  0.00     0.031 C 
BRANCH  30  31
HETATM   31  C26 UNL     1      23.567   5.028  51.828  1.00  0.00     0.267 C 
BRANCH  31  32
HETATM   32  N3  UNL     1      24.241   6.233  52.260  1.00  0.00     0.078 N 
HETATM   33  H29 UNL     1      24.702   6.160  53.184  1.00  0.00     0.312 HD
HETATM   34  H30 UNL     1      23.657   7.086  52.123  1.00  0.00     0.312 HD
ENDBRANCH  31  32
ENDBRANCH  30  31
ENDBRANCH  29  30
ENDBRANCH  18  29
ENDBRANCH   7   9
TORSDOF 7
ENDMDL
MODEL 3
REMARK VINA RESULT:      -8.6      4.849      7.247
REMARK  7 active torsions:
REMARK  status: ('A' for Active; 'I' for Inactive)
REMARK    1  A    between atoms: C6_7  and  C7_8 
REMARK    2  A    between atoms: C12_14  and  C13_15 
REMARK    3  A    between atoms: N2_18  and  C16_19 
REMARK    4  A    between atoms: C23_27  and  C24_28 
REMARK    5  A    between atoms: C24_28  and  C25_29 
REMARK    6  A    between atoms: C25_29  and  C26_30 
REMARK    7  A    between atoms: C26_30  and  N3_31 
ROOT
HETATM    1  N1  UNL     1      22.663  -1.837  55.508  1.00  0.00    -0.191 NA
HETATM    2  C1  UNL     1      22.381  -0.995  54.786  1.00  0.00     0.099 C 
HETATM    3  C2  UNL     1      22.021   0.053  53.889  1.00  0.00     0.045 A 
HETATM    4  C3  UNL     1      20.761   0.605  53.978  1.00  0.00     0.023 A 
HETATM    5  C4  UNL     1      20.424   1.610  53.116  1.00  0.00     0.002 A 
HETATM    6  C5  UNL     1      21.313   2.063  52.180  1.00  0.00     0.012 A 
HETATM    7  C6  UNL     1      22.576   1.568  52.031  1.00  0.00    -0.028 A 
HETATM    8  C27 UNL     1      22.861   0.563  52.922  1.00  0.00     0.034 A 
ENDROOT
BRANCH   7   9
HETATM    9  C7  UNL     1      23.510   2.044  51.038  1.00  0.00    -0.036 C 
HETATM   10  C8  UNL     1      24.746   2.205  51.560  1.00  0.00     0.059 C 
HETATM   11  C9  UNL     1      25.942   2.674  50.843  1.00  0.00     0.161 C 
HETATM   12  O1  UNL     1      27.143   2.622  51.123  1.00  0.00    -0.292 OA
HETATM   13  C10 UNL     1      25.773   3.344  49.537  1.00  0.00     0.112 A 
HETATM   14  C11 UNL     1      26.534   4.568  49.429  1.00  0.00    -0.003 A 
HETATM   15  C22 UNL     1      24.313   3.720  49.478  1.00  0.00    -0.056 A 
HETATM   16  C12 UNL     1      25.651   5.522  49.302  1.00  0.00    -0.056 A 
HETATM   17  C21 UNL     1      24.282   5.021  49.333  1.00  0.00     0.012 A 
HETATM   18  C23 UNL     1      23.576   2.410  49.643  1.00  0.00     0.049 C 
BRANCH  16  19
HETATM   19  C13 UNL     1      25.837   6.988  49.150  1.00  0.00     0.021 C 
HETATM   20  C14 UNL     1      24.879   7.544  48.119  1.00  0.00     0.029 C 
HETATM   21  C15 UNL     1      25.540   8.760  47.452  1.00  0.00     0.118 C 
HETATM   22  N2  UNL     1      26.622   8.252  46.681  1.00  0.00    -0.404 N 
HETATM   23  C19 UNL     1      27.590   7.494  47.425  1.00  0.00     0.118 C 
HETATM   24  C20 UNL     1      27.260   7.387  48.888  1.00  0.00     0.029 C 
BRANCH  22  25
HETATM   25  C16 UNL     1      27.163   9.091  45.680  1.00  0.00     0.126 C 
HETATM   26  C17 UNL     1      28.175  10.098  46.112  1.00  0.00     0.194 C 
HETATM   27  O2  UNL     1      28.792   9.946  44.871  1.00  0.00    -0.387 OA
HETATM   28  C18 UNL     1      28.374   8.596  44.928  1.00  0.00     0.194 C 
ENDBRANCH  22  25
ENDBRANCH  16  19
BRANCH  18  29
HETATM   29  C24 UNL     1      22.262   2.462  48.942  1.00  0.00     0.015 C 
BRANCH  29  30
HETATM   30  C25 UNL     1      22.482   2.403  47.419  1.00  0.00     0.031 C 
BRANCH  30  31
HETATM   31  C26 UNL     1      21.543   3.399  46.779  1.00  0.00     0.267 C 
BRANCH  31  32
HETATM   32  N3  UNL     1      21.933   3.707  45.420  1.00  0.00     0.078 N 
HETATM   33  H29 UNL     1      21.143   3.889  44.777  1.00  0.00     0.312 HD
HETATM   34  H30 UNL     1      22.659   3.052  45.057  1.00  0.00     0.312 HD
ENDBRANCH  31  32
ENDBRANCH  30  31
ENDBRANCH  29  30
ENDBRANCH  18  29
ENDBRANCH   7   9
TORSDOF 7
ENDMDL
MODEL 4
REMARK VINA RESULT:      -8.5      3.556      8.307
REMARK  7 active torsions:
REMARK  status: ('A' for Active; 'I' for Inactive)
REMARK    1  A    between atoms: C6_7  and  C7_8 
REMARK    2  A    between atoms: C12_14  and  C13_15 
REMARK    3  A    between atoms: N2_18  and  C16_19 
REMARK    4  A    between atoms: C23_27  and  C24_28 
REMARK    5  A    between atoms: C24_28  and  C25_29 
REMARK    6  A    between atoms: C25_29  and  C26_30 
REMARK    7  A    between atoms: C26_30  and  N3_31 
ROOT
HETATM    1  N1  UNL     1      29.785   6.307  48.190  1.00  0.00    -0.191 NA
HETATM    2  C1  UNL     1      28.645   6.410  48.186  1.00  0.00     0.099 C 
HETATM    3  C2  UNL     1      27.226   6.547  48.175  1.00  0.00     0.045 A 
HETATM    4  C3  UNL     1      26.656   7.537  47.405  1.00  0.00     0.023 A 
HETATM    5  C4  UNL     1      25.295   7.661  47.400  1.00  0.00     0.002 A 
HETATM    6  C5  UNL     1      24.509   6.822  48.142  1.00  0.00     0.012 A 
HETATM    7  C6  UNL     1      24.999   5.820  48.928  1.00  0.00    -0.028 A 
HETATM    8  C27 UNL     1      26.369   5.742  48.895  1.00  0.00     0.034 A 
ENDROOT
BRANCH   7   9
HETATM    9  C7  UNL     1      24.166   4.941  49.715  1.00  0.00    -0.036 C 
HETATM   10  C8  UNL     1      24.180   5.288  51.021  1.00  0.00     0.059 C 
HETATM   11  C9  UNL     1      23.451   4.617  52.109  1.00  0.00     0.161 C 
HETATM   12  O1  UNL     1      23.181   4.972  53.260  1.00  0.00    -0.292 OA
HETATM   13  C10 UNL     1      22.905   3.264  51.874  1.00  0.00     0.112 A 
HETATM   14  C11 UNL     1      23.209   2.340  52.943  1.00  0.00    -0.003 A 
HETATM   15  C22 UNL     1      23.617   2.766  50.639  1.00  0.00    -0.056 A 
HETATM   16  C12 UNL     1      23.969   1.421  52.410  1.00  0.00    -0.056 A 
HETATM   17  C21 UNL     1      24.232   1.667  50.998  1.00  0.00     0.012 A 
HETATM   18  C23 UNL     1      23.298   3.795  49.577  1.00  0.00     0.049 C 
BRANCH  16  19
HETATM   19  C13 UNL     1      24.589   0.216  53.019  1.00  0.00     0.021 C 
HETATM   20  C14 UNL     1      25.031   0.502  54.438  1.00  0.00     0.029 C 
HETATM   21  C15 UNL     1      26.250  -0.379  54.750  1.00  0.00     0.118 C 
HETATM   22  N2  UNL     1      27.316   0.117  53.949  1.00  0.00    -0.404 N 
HETATM   23  C19 UNL     1      27.052   0.134  52.536  1.00  0.00     0.118 C 
HETATM   24  C20 UNL     1      25.684  -0.381  52.184  1.00  0.00     0.029 C 
BRANCH  22  25
HETATM   25  C16 UNL     1      28.632  -0.256  54.305  1.00  0.00     0.126 C 
HETATM   26  C17 UNL     1      29.276  -1.328  53.494  1.00  0.00     0.194 C 
HETATM   27  O2  UNL     1      30.499  -0.694  53.706  1.00  0.00    -0.387 OA
HETATM   28  C18 UNL     1      29.772   0.519  53.692  1.00  0.00     0.194 C 
ENDBRANCH  22  25
ENDBRANCH  16  19
BRANCH  18  29
HETATM   29  C24 UNL     1      23.298   3.164  48.228  1.00  0.00     0.015 C 
BRANCH  29  30
HETATM   30  C25 UNL     1      22.056   2.265  48.075  1.00  0.00     0.031 C 
BRANCH  30  31
HETATM   31  C26 UNL     1      20.855   3.166  47.894  1.00  0.00     0.267 C 
BRANCH  31  32
HETATM   32  N3  UNL     1      19.634   2.406  47.736  1.00  0.00     0.078 N 
HETATM   33  H29 UNL     1      18.982   2.783  47.026  1.00  0.00     0.312 HD
HETATM   34  H30 UNL     1      19.198   2.160  48.651  1.00  0.00     0.312 HD
ENDBRANCH  31  32
ENDBRANCH  30  31
ENDBRANCH  29  30
ENDBRANCH  18  29
ENDBRANCH   7   9
TORSDOF 7
ENDMDL
MODEL 5
REMARK VINA RESULT:      -8.5      3.843      7.540
REMARK  7 active torsions:
REMARK  status: ('A' for Active; 'I' for Inactive)
REMARK    1  A    between atoms: C6_7  and  C7_8 
REMARK    2  A    between atoms: C12_14  and  C13_15 
REMARK    3  A    between atoms: N2_18  and  C16_19 
REMARK    4  A    between atoms: C23_27  and  C24_28 
REMARK    5  A    between atoms: C24_28  and  C25_29 
REMARK    6  A    between atoms: C25_29  and  C26_30 
REMARK    7  A    between atoms: C26_30  and  N3_31 
ROOT
HETATM    1  N1  UNL     1      16.514   0.018  49.435  1.00  0.00    -0.191 NA
HETATM    2  C1  UNL     1      17.240  -0.071  50.316  1.00  0.00     0.099 C 
HETATM    3  C2  UNL     1      18.138  -0.189  51.418  1.00  0.00     0.045 A 
HETATM    4  C3  UNL     1      17.876  -1.122  52.397  1.00  0.00     0.023 A 
HETATM    5  C4  UNL     1      18.741  -1.229  53.449  1.00  0.00     0.002 A 
HETATM    6  C5  UNL     1      19.847  -0.427  53.534  1.00  0.00     0.012 A 
HETATM    7  C6  UNL     1      20.173   0.518  52.606  1.00  0.00    -0.028 A 
HETATM    8  C27 UNL     1      19.270   0.581  51.574  1.00  0.00     0.034 A 
ENDROOT
BRANCH   7   9
HETATM    9  C7  UNL     1      21.337   1.367  52.703  1.00  0.00    -0.036 C 
HETATM   10  C8  UNL     1      21.016   2.667  52.529  1.00  0.00     0.059 C 
HETATM   11  C9  UNL     1      21.946   3.808  52.560  1.00  0.00     0.161 C 
HETATM   12  O1  UNL     1      21.755   5.022  52.669  1.00  0.00    -0.292 OA
HETATM   13  C10 UNL     1      23.396   3.548  52.448  1.00  0.00     0.112 A 
HETATM   14  C11 UNL     1      24.050   4.412  51.491  1.00  0.00    -0.003 A 
HETATM   15  C22 UNL     1      23.500   2.139  51.920  1.00  0.00    -0.056 A 
HETATM   16  C12 UNL     1      24.493   3.623  50.549  1.00  0.00    -0.056 A 
HETATM   17  C21 UNL     1      24.163   2.224  50.794  1.00  0.00     0.012 A 
HETATM   18  C23 UNL     1      22.761   1.297  52.936  1.00  0.00     0.049 C 
BRANCH  16  19
HETATM   19  C13 UNL     1      25.245   3.938  49.307  1.00  0.00     0.021 C 
HETATM   20  C14 UNL     1      26.730   4.028  49.590  1.00  0.00     0.029 C 
HETATM   21  C15 UNL     1      27.349   5.029  48.604  1.00  0.00     0.118 C 
HETATM   22  N2  UNL     1      26.850   6.310  48.969  1.00  0.00    -0.404 N 
HETATM   23  C19 UNL     1      25.416   6.421  48.970  1.00  0.00     0.118 C 
HETATM   24  C20 UNL     1      24.724   5.144  48.581  1.00  0.00     0.029 C 
BRANCH  22  25
HETATM   25  C16 UNL     1      27.535   7.445  48.479  1.00  0.00     0.126 C 
HETATM   26  C17 UNL     1      27.744   8.575  49.429  1.00  0.00     0.194 C 
HETATM   27  O2  UNL     1      28.947   8.842  48.779  1.00  0.00    -0.387 OA
HETATM   28  C18 UNL     1      29.042   7.447  48.568  1.00  0.00     0.194 C 
ENDBRANCH  22  25
ENDBRANCH  16  19
BRANCH  18  29
HETATM   29  C24 UNL     1      23.326  -0.081  52.978  1.00  0.00     0.015 C 
BRANCH  29  30
HETATM   30  C25 UNL     1      24.585  -0.100  53.865  1.00  0.00     0.031 C 
BRANCH  30  31
HETATM   31  C26 UNL     1      25.684  -0.789  53.089  1.00  0.00     0.267 C 
BRANCH  31  32
HETATM   32  N3  UNL     1      26.921  -0.836  53.839  1.00  0.00     0.078 N 
HETATM   33  H29 UNL     1      27.102  -1.739  54.312  1.00  0.00     0.312 HD
HETATM   34  H30 UNL     1      27.059   0.010  54.432  1.00  0.00     0.312 HD
ENDBRANCH  31  32
ENDBRANCH  30  31
ENDBRANCH  29  30
ENDBRANCH  18  29
ENDBRANCH   7   9
TORSDOF 7
ENDMDL
MODEL 6
REMARK VINA RESULT:      -8.5      5.350      7.791
REMARK  7 active torsions:
REMARK  status: ('A' for Active; 'I' for Inactive)
REMARK    1  A    between atoms: C6_7  and  C7_8 
REMARK    2  A    between atoms: C12_14  and  C13_15 
REMARK    3  A    between atoms: N2_18  and  C16_19 
REMARK    4  A    between atoms: C23_27  and  C24_28 
REMARK    5  A    between atoms: C24_28  and  C25_29 
REMARK    6  A    between atoms: C25_29  and  C26_30 
REMARK    7  A    between atoms: C26_30  and  N3_31 
ROOT
HETATM    1  N1  UNL     1      28.235  -0.685  53.974  1.00  0.00    -0.191 NA
HETATM    2  C1  UNL     1      27.317  -0.169  53.524  1.00  0.00     0.099 C 
HETATM    3  C2  UNL     1      26.169   0.468  52.967  1.00  0.00     0.045 A 
HETATM    4  C3  UNL     1      24.921   0.122  53.435  1.00  0.00     0.023 A 
HETATM    5  C4  UNL     1      23.825   0.737  52.898  1.00  0.00     0.002 A 
HETATM    6  C5  UNL     1      23.959   1.678  51.914  1.00  0.00     0.012 A 
HETATM    7  C6  UNL     1      25.160   2.073  51.399  1.00  0.00    -0.028 A 
HETATM    8  C27 UNL     1      26.223   1.424  51.976  1.00  0.00     0.034 A 
ENDROOT
BRANCH   7   9
HETATM    9  C7  UNL     1      25.297   3.062  50.357  1.00  0.00    -0.036 C 
HETATM   10  C8  UNL     1      26.595   3.353  50.120  1.00  0.00     0.059 C 
HETATM   11  C9  UNL     1      27.107   4.314  49.130  1.00  0.00     0.161 C 
HETATM   12  O1  UNL     1      28.232   4.480  48.650  1.00  0.00    -0.292 OA
HETATM   13  C10 UNL     1      26.176   5.301  48.546  1.00  0.00     0.112 A 
HETATM   14  C11 UNL     1      26.707   6.646  48.548  1.00  0.00    -0.003 A 
HETATM   15  C22 UNL     1      24.977   5.295  49.463  1.00  0.00    -0.056 A 
HETATM   16  C12 UNL     1      25.922   7.334  49.332  1.00  0.00    -0.056 A 
HETATM   17  C21 UNL     1      24.856   6.522  49.905  1.00  0.00     0.012 A 
HETATM   18  C23 UNL     1      24.500   3.860  49.454  1.00  0.00     0.049 C 
BRANCH  16  19
HETATM   19  C13 UNL     1      25.967   8.768  49.717  1.00  0.00     0.021 C 
HETATM   20  C14 UNL     1      25.517   9.645  48.568  1.00  0.00     0.029 C 
HETATM   21  C15 UNL     1      26.246  10.992  48.674  1.00  0.00     0.118 C 
HETATM   22  N2  UNL     1      27.615  10.728  48.391  1.00  0.00    -0.404 N 
HETATM   23  C19 UNL     1      28.230   9.751  49.246  1.00  0.00     0.118 C 
HETATM   24  C20 UNL     1      27.291   9.195  50.281  1.00  0.00     0.029 C 
BRANCH  22  25
HETATM   25  C16 UNL     1      28.437  11.827  48.052  1.00  0.00     0.126 C 
HETATM   26  C17 UNL     1      27.793  12.958  47.325  1.00  0.00     0.194 C 
HETATM   27  O2  UNL     1      28.670  13.821  47.980  1.00  0.00    -0.387 OA
HETATM   28  C18 UNL     1      28.594  12.927  49.073  1.00  0.00     0.194 C 
ENDBRANCH  22  25
ENDBRANCH  16  19
BRANCH  18  29
HETATM   29  C24 UNL     1      23.030   3.800  49.691  1.00  0.00     0.015 C 
BRANCH  29  30
HETATM   30  C25 UNL     1      22.297   3.577  48.354  1.00  0.00     0.031 C 
BRANCH  30  31
HETATM   31  C26 UNL     1      22.230   2.087  48.109  1.00  0.00     0.267 C 
BRANCH  31  32
HETATM   32  N3  UNL     1      20.902   1.564  48.346  1.00  0.00     0.078 N 
HETATM   33  H29 UNL     1      20.817   0.975  49.193  1.00  0.00     0.312 HD
HETATM   34  H30 UNL     1      20.472   1.166  47.484  1.00  0.00     0.312 HD
ENDBRANCH  31  32
ENDBRANCH  30  31
ENDBRANCH  29  30
ENDBRANCH  18  29
ENDBRANCH   7   9
TORSDOF 7
ENDMDL
MODEL 7
REMARK VINA RESULT:      -8.3      5.514      8.035
REMARK  7 active torsions:
REMARK  status: ('A' for Active; 'I' for Inactive)
REMARK    1  A    between atoms: C6_7  and  C7_8 
REMARK    2  A    between atoms: C12_14  and  C13_15 
REMARK    3  A    between atoms: N2_18  and  C16_19 
REMARK    4  A    between atoms: C23_27  and  C24_28 
REMARK    5  A    between atoms: C24_28  and  C25_29 
REMARK    6  A    between atoms: C25_29  and  C26_30 
REMARK    7  A    between atoms: C26_30  and  N3_31 
ROOT
HETATM    1  N1  UNL     1      22.319  -1.195  53.337  1.00  0.00    -0.191 NA
HETATM    2  C1  UNL     1      23.217  -0.507  53.158  1.00  0.00     0.099 C 
HETATM    3  C2  UNL     1      24.338   0.347  52.943  1.00  0.00     0.045 A 
HETATM    4  C3  UNL     1      25.422   0.252  53.788  1.00  0.00     0.023 A 
HETATM    5  C4  UNL     1      26.493   1.074  53.576  1.00  0.00     0.002 A 
HETATM    6  C5  UNL     1      26.495   1.975  52.546  1.00  0.00     0.012 A 
HETATM    7  C6  UNL     1      25.461   2.128  51.669  1.00  0.00    -0.028 A 
HETATM    8  C27 UNL     1      24.414   1.279  51.930  1.00  0.00     0.034 A 
ENDROOT
BRANCH   7   9
HETATM    9  C7  UNL     1      25.463   3.085  50.588  1.00  0.00    -0.036 C 
HETATM   10  C8  UNL     1      26.722   3.392  50.204  1.00  0.00     0.059 C 
HETATM   11  C9  UNL     1      27.104   4.329  49.135  1.00  0.00     0.161 C 
HETATM   12  O1  UNL     1      28.167   4.500  48.533  1.00  0.00    -0.292 OA
HETATM   13  C10 UNL     1      26.094   5.280  48.627  1.00  0.00     0.112 A 
HETATM   14  C11 UNL     1      26.593   6.633  48.530  1.00  0.00    -0.003 A 
HETATM   15  C22 UNL     1      25.001   5.282  49.667  1.00  0.00    -0.056 A 
HETATM   16  C12 UNL     1      25.882   7.332  49.373  1.00  0.00    -0.056 A 
HETATM   17  C21 UNL     1      24.902   6.520  50.082  1.00  0.00     0.012 A 
HETATM   18  C23 UNL     1      24.557   3.839  49.753  1.00  0.00     0.049 C 
BRANCH  16  19
HETATM   19  C13 UNL     1      25.938   8.779  49.708  1.00  0.00     0.021 C 
HETATM   20  C14 UNL     1      25.601   9.621  48.496  1.00  0.00     0.029 C 
HETATM   21  C15 UNL     1      26.357  10.953  48.608  1.00  0.00     0.118 C 
HETATM   22  N2  UNL     1      27.736  10.644  48.441  1.00  0.00    -0.404 N 
HETATM   23  C19 UNL     1      28.257   9.685  49.377  1.00  0.00     0.118 C 
HETATM   24  C20 UNL     1      27.226   9.194  50.356  1.00  0.00     0.029 C 
BRANCH  22  25
HETATM   25  C16 UNL     1      28.612  11.708  48.127  1.00  0.00     0.126 C 
HETATM   26  C17 UNL     1      28.673  12.844  49.091  1.00  0.00     0.194 C 
HETATM   27  O2  UNL     1      30.017  12.999  48.756  1.00  0.00    -0.387 OA
HETATM   28  C18 UNL     1      30.046  11.595  48.586  1.00  0.00     0.194 C 
ENDBRANCH  22  25
ENDBRANCH  16  19
BRANCH  18  29
HETATM   29  C24 UNL     1      23.123   3.760  50.149  1.00  0.00     0.015 C 
BRANCH  29  30
HETATM   30  C25 UNL     1      22.319   3.043  49.048  1.00  0.00     0.031 C 
BRANCH  30  31
HETATM   31  C26 UNL     1      21.116   2.401  49.702  1.00  0.00     0.267 C 
BRANCH  31  32
HETATM   32  N3  UNL     1      20.572   1.333  48.891  1.00  0.00     0.078 N 
HETATM   33  H29 UNL     1      19.858   0.753  49.366  1.00  0.00     0.312 HD
HETATM   34  H30 UNL     1      21.313   0.799  48.387  1.00  0.00     0.312 HD
ENDBRANCH  31  32
ENDBRANCH  30  31
ENDBRANCH  29  30
ENDBRANCH  18  29
ENDBRANCH   7   9
TORSDOF 7
ENDMDL
MODEL 8
REMARK VINA RESULT:      -8.3      5.556      8.765
REMARK  7 active torsions:
REMARK  status: ('A' for Active; 'I' for Inactive)
REMARK    1  A    between atoms: C6_7  and  C7_8 
REMARK    2  A    between atoms: C12_14  and  C13_15 
REMARK    3  A    between atoms: N2_18  and  C16_19 
REMARK    4  A    between atoms: C23_27  and  C24_28 
REMARK    5  A    between atoms: C24_28  and  C25_29 
REMARK    6  A    between atoms: C25_29  and  C26_30 
REMARK    7  A    between atoms: C26_30  and  N3_31 
ROOT
HETATM    1  N1  UNL     1      20.312  -0.716  53.362  1.00  0.00    -0.191 NA
HETATM    2  C1  UNL     1      20.722  -0.127  52.470  1.00  0.00     0.099 C 
HETATM    3  C2  UNL     1      21.228   0.600  51.353  1.00  0.00     0.045 A 
HETATM    4  C3  UNL     1      20.817   0.250  50.086  1.00  0.00     0.023 A 
HETATM    5  C4  UNL     1      21.306   0.952  49.020  1.00  0.00     0.002 A 
HETATM    6  C5  UNL     1      22.188   1.983  49.202  1.00  0.00     0.012 A 
HETATM    7  C6  UNL     1      22.642   2.387  50.423  1.00  0.00    -0.028 A 
HETATM    8  C27 UNL     1      22.118   1.648  51.455  1.00  0.00     0.034 A 
ENDROOT
BRANCH   7   9
HETATM    9  C7  UNL     1      23.578   3.470  50.611  1.00  0.00    -0.036 C 
HETATM   10  C8  UNL     1      23.123   4.616  50.057  1.00  0.00     0.059 C 
HETATM   11  C9  UNL     1      23.812   5.917  50.054  1.00  0.00     0.161 C 
HETATM   12  O1  UNL     1      23.410   7.060  49.820  1.00  0.00    -0.292 OA
HETATM   13  C10 UNL     1      25.253   5.961  50.380  1.00  0.00     0.112 A 
HETATM   14  C11 UNL     1      26.017   6.756  49.445  1.00  0.00    -0.003 A 
HETATM   15  C22 UNL     1      25.727   4.535  50.244  1.00  0.00    -0.056 A 
HETATM   16  C12 UNL     1      26.836   5.923  48.862  1.00  0.00    -0.056 A 
HETATM   17  C21 UNL     1      26.672   4.555  49.338  1.00  0.00     0.012 A 
HETATM   18  C23 UNL     1      24.862   3.754  51.208  1.00  0.00     0.049 C 
BRANCH  16  19
HETATM   19  C13 UNL     1      27.863   6.161  47.814  1.00  0.00     0.021 C 
HETATM   20  C14 UNL     1      29.146   5.429  48.147  1.00  0.00     0.029 C 
HETATM   21  C15 UNL     1      30.322   6.227  47.566  1.00  0.00     0.118 C 
HETATM   22  N2  UNL     1      30.403   7.428  48.324  1.00  0.00    -0.404 N 
HETATM   23  C19 UNL     1      29.204   8.221  48.327  1.00  0.00     0.118 C 
HETATM   24  C20 UNL     1      28.091   7.614  47.519  1.00  0.00     0.029 C 
BRANCH  22  25
HETATM   25  C16 UNL     1      31.606   8.166  48.256  1.00  0.00     0.126 C 
HETATM   26  C17 UNL     1      32.627   7.898  49.310  1.00  0.00     0.194 C 
HETATM   27  O2  UNL     1      33.613   8.164  48.361  1.00  0.00    -0.387 OA
HETATM   28  C18 UNL     1      32.725   7.607  47.411  1.00  0.00     0.194 C 
ENDBRANCH  22  25
ENDBRANCH  16  19
BRANCH  18  29
HETATM   29  C24 UNL     1      25.597   2.563  51.717  1.00  0.00     0.015 C 
BRANCH  29  30
HETATM   30  C25 UNL     1      25.233   2.319  53.194  1.00  0.00     0.031 C 
BRANCH  30  31
HETATM   31  C26 UNL     1      26.437   1.702  53.869  1.00  0.00     0.267 C 
BRANCH  31  32
HETATM   32  N3  UNL     1      27.570   2.602  53.870  1.00  0.00     0.078 N 
HETATM   33  H29 UNL     1      27.353   3.567  53.562  1.00  0.00     0.312 HD
HETATM   34  H30 UNL     1      28.416   2.178  53.434  1.00  0.00     0.312 HD
ENDBRANCH  31  32
ENDBRANCH  30  31
ENDBRANCH  29  30
ENDBRANCH  18  29
ENDBRANCH   7   9
TORSDOF 7
ENDMDL
MODEL 9
REMARK VINA RESULT:      -8.0      3.778      6.588
REMARK  7 active torsions:
REMARK  status: ('A' for Active; 'I' for Inactive)
REMARK    1  A    between atoms: C6_7  and  C7_8 
REMARK    2  A    between atoms: C12_14  and  C13_15 
REMARK    3  A    between atoms: N2_18  and  C16_19 
REMARK    4  A    between atoms: C23_27  and  C24_28 
REMARK    5  A    between atoms: C24_28  and  C25_29 
REMARK    6  A    between atoms: C25_29  and  C26_30 
REMARK    7  A    between atoms: C26_30  and  N3_31 
ROOT
HETATM    1  N1  UNL     1      18.315  -0.835  53.426  1.00  0.00    -0.191 NA
HETATM    2  C1  UNL     1      19.450  -0.682  53.444  1.00  0.00     0.099 C 
HETATM    3  C2  UNL     1      20.863  -0.496  53.475  1.00  0.00     0.045 A 
HETATM    4  C3  UNL     1      21.595  -1.104  54.472  1.00  0.00     0.023 A 
HETATM    5  C4  UNL     1      22.949  -0.921  54.494  1.00  0.00     0.002 A 
HETATM    6  C5  UNL     1      23.572  -0.152  53.549  1.00  0.00     0.012 A 
HETATM    7  C6  UNL     1      22.916   0.481  52.534  1.00  0.00    -0.028 A 
HETATM    8  C27 UNL     1      21.560   0.263  52.560  1.00  0.00     0.034 A 
ENDROOT
BRANCH   7   9
HETATM    9  C7  UNL     1      23.575   1.298  51.542  1.00  0.00    -0.036 C 
HETATM   10  C8  UNL     1      24.827   1.626  51.927  1.00  0.00     0.059 C 
HETATM   11  C9  UNL     1      25.787   2.447  51.170  1.00  0.00     0.161 C 
HETATM   12  O1  UNL     1      27.005   2.603  51.284  1.00  0.00    -0.292 OA
HETATM   13  C10 UNL     1      25.290   3.270  50.048  1.00  0.00     0.112 A 
HETATM   14  C11 UNL     1      25.785   4.627  50.082  1.00  0.00    -0.003 A 
HETATM   15  C22 UNL     1      23.795   3.336  50.244  1.00  0.00    -0.056 A 
HETATM   16  C12 UNL     1      24.734   5.382  50.252  1.00  0.00    -0.056 A 
HETATM   17  C21 UNL     1      23.503   4.608  50.356  1.00  0.00     0.012 A 
HETATM   18  C23 UNL     1      23.348   1.891  50.245  1.00  0.00     0.049 C 
BRANCH  16  19
HETATM   19  C13 UNL     1      24.620   6.860  50.362  1.00  0.00     0.021 C 
HETATM   20  C14 UNL     1      23.489   7.374  49.497  1.00  0.00     0.029 C 
HETATM   21  C15 UNL     1      23.845   8.794  49.033  1.00  0.00     0.118 C 
HETATM   22  N2  UNL     1      24.935   8.657  48.129  1.00  0.00    -0.404 N 
HETATM   23  C19 UNL     1      26.090   7.999  48.675  1.00  0.00     0.118 C 
HETATM   24  C20 UNL     1      25.912   7.580  50.108  1.00  0.00     0.029 C 
BRANCH  22  25
HETATM   25  C16 UNL     1      25.217   9.746  47.274  1.00  0.00     0.126 C 
HETATM   26  C17 UNL     1      25.369   9.446  45.821  1.00  0.00     0.194 C 
HETATM   27  O2  UNL     1      24.829  10.702  45.550  1.00  0.00    -0.387 OA
HETATM   28  C18 UNL     1      24.049  10.521  46.715  1.00  0.00     0.194 C 
ENDBRANCH  22  25
ENDBRANCH  16  19
BRANCH  18  29
HETATM   29  C24 UNL     1      21.952   1.780  49.737  1.00  0.00     0.015 C 
BRANCH  29  30
HETATM   30  C25 UNL     1      21.943   1.933  48.204  1.00  0.00     0.031 C 
BRANCH  30  31
HETATM   31  C26 UNL     1      20.639   2.591  47.815  1.00  0.00     0.267 C 
BRANCH  31  32
HETATM   32  N3  UNL     1      19.523   2.051  48.561  1.00  0.00     0.078 N 
HETATM   33  H29 UNL     1      18.775   1.638  47.977  1.00  0.00     0.312 HD
HETATM   34  H30 UNL     1      19.194   2.698  49.309  1.00  0.00     0.312 HD
ENDBRANCH  31  32
ENDBRANCH  30  31
ENDBRANCH  29  30
ENDBRANCH  18  29
ENDBRANCH   7   9
TORSDOF 7
ENDMDL
