MODEL 1
REMARK VINA RESULT:      -8.6      0.000      0.000
REMARK  7 active torsions:
REMARK  status: ('A' for Active; 'I' for Inactive)
REMARK    1  A    between atoms: O1_2  and  C2_3 
REMARK    2  A    between atoms: C2_3  and  C3_4 
REMARK    3  A    between atoms: C4_5  and  C5_6 
REMARK       I    between atoms: C5_6  and  N1_8 
REMARK    4  A    between atoms: N1_8  and  C6_9 
REMARK    5  A    between atoms: C9_12  and  N2_13 
REMARK    6  A    between atoms: N2_13  and  C10_14 
REMARK    7  A    between atoms: C20_28  and  O3_29 
ROOT
HETATM    1  C6  UNL     1      24.143   2.806  50.007  1.00  0.00     0.070 A 
HETATM    2  C7  UNL     1      24.173   2.112  51.206  1.00  0.00     0.048 A 
HETATM    3  C8  UNL     1      23.097   1.314  51.563  1.00  0.00     0.027 A 
HETATM    4  C9  UNL     1      23.152   0.625  52.779  1.00  0.00     0.087 A 
HETATM    5  C16 UNL     1      22.025  -0.136  53.025  1.00  0.00     0.186 A 
HETATM    6  C17 UNL     1      21.984  -0.883  54.250  1.00  0.00     0.124 C 
HETATM    7  N3  UNL     1      21.941  -1.491  55.222  1.00  0.00    -0.190 NA
HETATM    8  N4  UNL     1      20.980  -0.206  52.180  1.00  0.00    -0.136 NA
HETATM    9  N5  UNL     1      20.968   0.462  51.040  1.00  0.00    -0.148 NA
HETATM   10  C18 UNL     1      22.023   1.234  50.707  1.00  0.00     0.094 A 
HETATM   11  C19 UNL     1      21.959   1.909  49.511  1.00  0.00     0.073 A 
HETATM   12  C20 UNL     1      23.031   2.698  49.164  1.00  0.00     0.097 A 
ENDROOT
BRANCH   4  13
HETATM   13  N2  UNL     1      24.253   0.716  53.639  1.00  0.00    -0.353 N 
HETATM   14  H8  UNL     1      23.923   1.240  54.476  1.00  0.00     0.166 HD
BRANCH  13  15
HETATM   15  C10 UNL     1      25.555   0.224  53.469  1.00  0.00     0.033 A 
HETATM   16  C11 UNL     1      25.736  -1.016  52.897  1.00  0.00     0.029 A 
HETATM   17  C12 UNL     1      27.022  -1.512  52.725  1.00  0.00     0.004 A 
HETATM   18  C13 UNL     1      28.073  -0.696  53.156  1.00  0.00     0.019 A 
HETATM   19  C14 UNL     1      27.899   0.551  53.731  1.00  0.00     0.013 A 
HETATM   20 BR1  UNL     1      29.331   1.634  54.305  1.00  0.00    -0.051 Br
HETATM   21  C15 UNL     1      26.593   1.026  53.894  1.00  0.00     0.048 A 
ENDBRANCH  13  15
ENDBRANCH   4  13
BRANCH   1  22
HETATM   22  N1  UNL     1      25.204   3.631  49.591  1.00  0.00    -0.314 N 
HETATM   23  C5  UNL     1      25.581   5.023  49.585  1.00  0.00     0.301 C 
HETATM   24  O2  UNL     1      24.858   5.919  50.056  1.00  0.00    -0.258 OA
HETATM   25  H6  UNL     1      25.818   2.874  49.192  1.00  0.00     0.170 HD
BRANCH  23  26
HETATM   26  C4  UNL     1      26.873   5.297  48.984  1.00  0.00    -0.003 C 
HETATM   27  C3  UNL     1      27.957   5.533  48.498  1.00  0.00    -0.070 C 
BRANCH  27  28
HETATM   28  C2  UNL     1      29.274   5.808  47.930  1.00  0.00     0.261 C 
BRANCH  28  29
HETATM   29  O1  UNL     1      30.298   5.475  48.836  1.00  0.00    -0.384 OA
HETATM   30  C1  UNL     1      31.221   6.498  48.943  1.00  0.00     0.202 C 
ENDBRANCH  28  29
ENDBRANCH  27  28
ENDBRANCH  23  26
ENDBRANCH   1  22
BRANCH  12  31
HETATM   31  O3  UNL     1      23.026   3.402  47.969  1.00  0.00    -0.354 OA
HETATM   32  C21 UNL     1      22.251   4.539  47.697  1.00  0.00     0.210 C 
ENDBRANCH  12  31
TORSDOF 7
ENDMDL
MODEL 2
REMARK VINA RESULT:      -8.4      3.006      5.303
REMARK  7 active torsions:
REMARK  status: ('A' for Active; 'I' for Inactive)
REMARK    1  A    between atoms: O1_2  and  C2_3 
REMARK    2  A    between atoms: C2_3  and  C3_4 
REMARK    3  A    between atoms: C4_5  and  C5_6 
REMARK       I    between atoms: C5_6  and  N1_8 
REMARK    4  A    between atoms: N1_8  and  C6_9 
REMARK    5  A    between atoms: C9_12  and  N2_13 
REMARK    6  A    between atoms: N2_13  and  C10_14 
REMARK    7  A    between atoms: C20_28  and  O3_29 
ROOT
HETATM    1  C6  UNL     1      26.345   1.999  52.083  1.00  0.00     0.070 A 
HETATM    2  C7  UNL     1      25.096   1.399  52.106  1.00  0.00     0.048 A 
HETATM    3  C8  UNL     1      24.768   0.543  53.147  1.00  0.00     0.027 A 
HETATM    4  C9  UNL     1      23.501  -0.051  53.145  1.00  0.00     0.087 A 
HETATM    5  C16 UNL     1      23.288  -0.880  54.230  1.00  0.00     0.186 A 
HETATM    6  C17 UNL     1      22.016  -1.539  54.322  1.00  0.00     0.124 C 
HETATM    7  N3  UNL     1      21.002  -2.067  54.411  1.00  0.00    -0.190 NA
HETATM    8  N4  UNL     1      24.208  -1.095  55.190  1.00  0.00    -0.136 NA
HETATM    9  N5  UNL     1      25.394  -0.513  55.152  1.00  0.00    -0.148 NA
HETATM   10  C18 UNL     1      25.699   0.316  54.134  1.00  0.00     0.094 A 
HETATM   11  C19 UNL     1      26.946   0.895  54.142  1.00  0.00     0.073 A 
HETATM   12  C20 UNL     1      27.264   1.742  53.106  1.00  0.00     0.097 A 
ENDROOT
BRANCH   4  13
HETATM   13  N2  UNL     1      22.564   0.192  52.134  1.00  0.00    -0.353 N 
HETATM   14  H8  UNL     1      22.806  -0.456  51.356  1.00  0.00     0.166 HD
BRANCH  13  15
HETATM   15  C10 UNL     1      21.497   1.101  52.112  1.00  0.00     0.033 A 
HETATM   16  C11 UNL     1      21.742   2.430  52.374  1.00  0.00     0.029 A 
HETATM   17  C12 UNL     1      20.691   3.339  52.354  1.00  0.00     0.004 A 
HETATM   18  C13 UNL     1      19.423   2.827  52.062  1.00  0.00     0.019 A 
HETATM   19  C14 UNL     1      19.169   1.491  51.798  1.00  0.00     0.013 A 
HETATM   20 BR1  UNL     1      17.451   0.823  51.406  1.00  0.00    -0.051 Br
HETATM   21  C15 UNL     1      20.246   0.598  51.825  1.00  0.00     0.048 A 
ENDBRANCH  13  15
ENDBRANCH   4  13
BRANCH   1  22
HETATM   22  N1  UNL     1      26.737   2.876  51.055  1.00  0.00    -0.314 N 
HETATM   23  C5  UNL     1      26.207   3.473  49.853  1.00  0.00     0.301 C 
HETATM   24  O2  UNL     1      25.053   3.253  49.444  1.00  0.00    -0.258 OA
HETATM   25  H6  UNL     1      27.714   3.065  51.400  1.00  0.00     0.170 HD
BRANCH  23  26
HETATM   26  C4  UNL     1      27.129   4.352  49.158  1.00  0.00    -0.003 C 
HETATM   27  C3  UNL     1      27.893   5.100  48.588  1.00  0.00    -0.070 C 
BRANCH  27  28
HETATM   28  C2  UNL     1      28.823   6.007  47.922  1.00  0.00     0.261 C 
BRANCH  28  29
HETATM   29  O1  UNL     1      30.117   5.457  47.864  1.00  0.00    -0.384 OA
HETATM   30  C1  UNL     1      30.975   6.108  48.730  1.00  0.00     0.202 C 
ENDBRANCH  28  29
ENDBRANCH  27  28
ENDBRANCH  23  26
ENDBRANCH   1  22
BRANCH  12  31
HETATM   31  O3  UNL     1      28.507   2.357  53.060  1.00  0.00    -0.354 OA
HETATM   32  C21 UNL     1      29.485   2.292  54.063  1.00  0.00     0.210 C 
ENDBRANCH  12  31
TORSDOF 7
ENDMDL
MODEL 3
REMARK VINA RESULT:      -8.1      1.659      2.045
REMARK  7 active torsions:
REMARK  status: ('A' for Active; 'I' for Inactive)
REMARK    1  A    between atoms: O1_2  and  C2_3 
REMARK    2  A    between atoms: C2_3  and  C3_4 
REMARK    3  A    between atoms: C4_5  and  C5_6 
REMARK       I    between atoms: C5_6  and  N1_8 
REMARK    4  A    between atoms: N1_8  and  C6_9 
REMARK    5  A    between atoms: C9_12  and  N2_13 
REMARK    6  A    between atoms: N2_13  and  C10_14 
REMARK    7  A    between atoms: C20_28  and  O3_29 
ROOT
HETATM    1  C6  UNL     1      24.018   3.094  50.000  1.00  0.00     0.070 A 
HETATM    2  C7  UNL     1      24.182   2.464  51.223  1.00  0.00     0.048 A 
HETATM    3  C8  UNL     1      23.282   1.483  51.613  1.00  0.00     0.027 A 
HETATM    4  C9  UNL     1      23.469   0.863  52.852  1.00  0.00     0.087 A 
HETATM    5  C16 UNL     1      22.513  -0.095  53.131  1.00  0.00     0.186 A 
HETATM    6  C17 UNL     1      22.616  -0.791  54.382  1.00  0.00     0.124 C 
HETATM    7  N3  UNL     1      22.691  -1.360  55.375  1.00  0.00    -0.190 NA
HETATM    8  N4  UNL     1      21.503  -0.399  52.294  1.00  0.00    -0.136 NA
HETATM    9  N5  UNL     1      21.363   0.213  51.131  1.00  0.00    -0.148 NA
HETATM   10  C18 UNL     1      22.246   1.164  50.766  1.00  0.00     0.094 A 
HETATM   11  C19 UNL     1      22.054   1.770  49.546  1.00  0.00     0.073 A 
HETATM   12  C20 UNL     1      22.951   2.741  49.167  1.00  0.00     0.097 A 
ENDROOT
BRANCH   4  13
HETATM   13  N2  UNL     1      24.529   1.199  53.703  1.00  0.00    -0.353 N 
HETATM   14  H8  UNL     1      24.107   1.725  54.496  1.00  0.00     0.166 HD
BRANCH  13  15
HETATM   15  C10 UNL     1      25.896   0.916  53.572  1.00  0.00     0.033 A 
HETATM   16  C11 UNL     1      26.808   1.940  53.686  1.00  0.00     0.029 A 
HETATM   17  C12 UNL     1      28.165   1.669  53.558  1.00  0.00     0.004 A 
HETATM   18  C13 UNL     1      28.519   0.338  53.316  1.00  0.00     0.019 A 
HETATM   19  C14 UNL     1      27.607  -0.697  53.199  1.00  0.00     0.013 A 
HETATM   20 BR1  UNL     1      28.108  -2.485  52.872  1.00  0.00    -0.051 Br
HETATM   21  C15 UNL     1      26.247  -0.396  53.332  1.00  0.00     0.048 A 
ENDBRANCH  13  15
ENDBRANCH   4  13
BRANCH   1  22
HETATM   22  N1  UNL     1      24.898   4.096  49.549  1.00  0.00    -0.314 N 
HETATM   23  C5  UNL     1      26.307   4.305  49.319  1.00  0.00     0.301 C 
HETATM   24  O2  UNL     1      27.161   3.427  49.535  1.00  0.00    -0.258 OA
HETATM   25  H6  UNL     1      24.176   4.840  49.364  1.00  0.00     0.170 HD
BRANCH  23  26
HETATM   26  C4  UNL     1      26.648   5.622  48.815  1.00  0.00    -0.003 C 
HETATM   27  C3  UNL     1      26.933   6.729  48.412  1.00  0.00    -0.070 C 
BRANCH  27  28
HETATM   28  C2  UNL     1      27.292   8.063  47.942  1.00  0.00     0.261 C 
BRANCH  28  29
HETATM   29  O1  UNL     1      26.733   9.059  48.764  1.00  0.00    -0.384 OA
HETATM   30  C1  UNL     1      27.405   9.147  49.968  1.00  0.00     0.202 C 
ENDBRANCH  28  29
ENDBRANCH  27  28
ENDBRANCH  23  26
ENDBRANCH   1  22
BRANCH  12  31
HETATM   31  O3  UNL     1      22.811   3.387  47.947  1.00  0.00    -0.354 OA
HETATM   32  C21 UNL     1      21.847   4.361  47.649  1.00  0.00     0.210 C 
ENDBRANCH  12  31
TORSDOF 7
ENDMDL
MODEL 4
REMARK VINA RESULT:      -7.9      3.576      6.714
REMARK  7 active torsions:
REMARK  status: ('A' for Active; 'I' for Inactive)
REMARK    1  A    between atoms: O1_2  and  C2_3 
REMARK    2  A    between atoms: C2_3  and  C3_4 
REMARK    3  A    between atoms: C4_5  and  C5_6 
REMARK       I    between atoms: C5_6  and  N1_8 
REMARK    4  A    between atoms: N1_8  and  C6_9 
REMARK    5  A    between atoms: C9_12  and  N2_13 
REMARK    6  A    between atoms: N2_13  and  C10_14 
REMARK    7  A    between atoms: C20_28  and  O3_29 
ROOT
HETATM    1  C6  UNL     1      22.795   1.112  52.530  1.00  0.00     0.070 A 
HETATM    2  C7  UNL     1      22.596   2.134  51.616  1.00  0.00     0.048 A 
HETATM    3  C8  UNL     1      21.367   2.774  51.561  1.00  0.00     0.027 A 
HETATM    4  C9  UNL     1      21.192   3.802  50.629  1.00  0.00     0.087 A 
HETATM    5  C16 UNL     1      19.930   4.363  50.667  1.00  0.00     0.186 A 
HETATM    6  C17 UNL     1      19.649   5.429  49.748  1.00  0.00     0.124 C 
HETATM    7  N3  UNL     1      19.413   6.286  49.024  1.00  0.00    -0.190 NA
HETATM    8  N4  UNL     1      18.966   3.959  51.517  1.00  0.00    -0.136 NA
HETATM    9  N5  UNL     1      19.173   2.983  52.382  1.00  0.00    -0.148 NA
HETATM   10  C18 UNL     1      20.374   2.371  52.424  1.00  0.00     0.094 A 
HETATM   11  C19 UNL     1      20.537   1.361  53.342  1.00  0.00     0.073 A 
HETATM   12  C20 UNL     1      21.759   0.731  53.390  1.00  0.00     0.097 A 
ENDROOT
BRANCH   4  13
HETATM   13  N2  UNL     1      22.213   4.202  49.758  1.00  0.00    -0.353 N 
HETATM   14  H8  UNL     1      22.035   3.707  48.859  1.00  0.00     0.166 HD
BRANCH  13  15
HETATM   15  C10 UNL     1      23.280   5.081  49.986  1.00  0.00     0.033 A 
HETATM   16  C11 UNL     1      23.089   6.173  50.802  1.00  0.00     0.029 A 
HETATM   17  C12 UNL     1      24.141   7.050  51.034  1.00  0.00     0.004 A 
HETATM   18  C13 UNL     1      25.354   6.756  50.405  1.00  0.00     0.019 A 
HETATM   19  C14 UNL     1      25.554   5.661  49.581  1.00  0.00     0.013 A 
HETATM   20 BR1  UNL     1      27.200   5.284  48.742  1.00  0.00    -0.051 Br
HETATM   21  C15 UNL     1      24.477   4.794  49.365  1.00  0.00     0.048 A 
ENDBRANCH  13  15
ENDBRANCH   4  13
BRANCH   1  22
HETATM   22  N1  UNL     1      24.019   0.426  52.633  1.00  0.00    -0.314 N 
HETATM   23  C5  UNL     1      25.350   0.617  53.158  1.00  0.00     0.301 C 
HETATM   24  O2  UNL     1      25.703   1.662  53.733  1.00  0.00    -0.258 OA
HETATM   25  H6  UNL     1      23.722  -0.460  52.148  1.00  0.00     0.170 HD
BRANCH  23  26
HETATM   26  C4  UNL     1      26.244  -0.508  52.960  1.00  0.00    -0.003 C 
HETATM   27  C3  UNL     1      26.992  -1.450  52.814  1.00  0.00    -0.070 C 
BRANCH  27  28
HETATM   28  C2  UNL     1      27.881  -2.596  52.651  1.00  0.00     0.261 C 
BRANCH  28  29
HETATM   29  O1  UNL     1      28.961  -2.534  53.551  1.00  0.00    -0.384 OA
HETATM   30  C1  UNL     1      29.655  -1.346  53.414  1.00  0.00     0.202 C 
ENDBRANCH  28  29
ENDBRANCH  27  28
ENDBRANCH  23  26
ENDBRANCH   1  22
BRANCH  12  31
HETATM   31  O3  UNL     1      21.985  -0.294  54.296  1.00  0.00    -0.354 OA
HETATM   32  C21 UNL     1      21.419  -1.576  54.232  1.00  0.00     0.210 C 
ENDBRANCH  12  31
TORSDOF 7
ENDMDL
MODEL 5
REMARK VINA RESULT:      -7.6      4.125      8.915
REMARK  7 active torsions:
REMARK  status: ('A' for Active; 'I' for Inactive)
REMARK    1  A    between atoms: O1_2  and  C2_3 
REMARK    2  A    between atoms: C2_3  and  C3_4 
REMARK    3  A    between atoms: C4_5  and  C5_6 
REMARK       I    between atoms: C5_6  and  N1_8 
REMARK    4  A    between atoms: N1_8  and  C6_9 
REMARK    5  A    between atoms: C9_12  and  N2_13 
REMARK    6  A    between atoms: N2_13  and  C10_14 
REMARK    7  A    between atoms: C20_28  and  O3_29 
ROOT
HETATM    1  C6  UNL     1      22.925   0.630  52.503  1.00  0.00     0.070 A 
HETATM    2  C7  UNL     1      23.311   1.551  51.543  1.00  0.00     0.048 A 
HETATM    3  C8  UNL     1      24.641   1.936  51.460  1.00  0.00     0.027 A 
HETATM    4  C9  UNL     1      25.005   2.868  50.483  1.00  0.00     0.087 A 
HETATM    5  C16 UNL     1      26.353   3.172  50.496  1.00  0.00     0.186 A 
HETATM    6  C17 UNL     1      26.829   4.121  49.530  1.00  0.00     0.124 C 
HETATM    7  N3  UNL     1      27.224   4.872  48.758  1.00  0.00    -0.190 NA
HETATM    8  N4  UNL     1      27.226   2.627  51.364  1.00  0.00    -0.136 NA
HETATM    9  N5  UNL     1      26.840   1.749  52.273  1.00  0.00    -0.148 NA
HETATM   10  C18 UNL     1      25.543   1.385  52.341  1.00  0.00     0.094 A 
HETATM   11  C19 UNL     1      25.194   0.470  53.305  1.00  0.00     0.073 A 
HETATM   12  C20 UNL     1      23.873   0.093  53.380  1.00  0.00     0.097 A 
ENDROOT
BRANCH   4  13
HETATM   13  N2  UNL     1      24.075   3.418  49.592  1.00  0.00    -0.353 N 
HETATM   14  H8  UNL     1      23.852   2.667  48.907  1.00  0.00     0.166 HD
BRANCH  13  15
HETATM   15  C10 UNL     1      23.518   4.705  49.574  1.00  0.00     0.033 A 
HETATM   16  C11 UNL     1      23.000   5.229  50.736  1.00  0.00     0.029 A 
HETATM   17  C12 UNL     1      22.446   6.504  50.727  1.00  0.00     0.004 A 
HETATM   18  C13 UNL     1      22.453   7.183  49.505  1.00  0.00     0.019 A 
HETATM   19  C14 UNL     1      22.972   6.662  48.332  1.00  0.00     0.013 A 
HETATM   20 BR1  UNL     1      22.971   7.596  46.695  1.00  0.00    -0.051 Br
HETATM   21  C15 UNL     1      23.524   5.376  48.369  1.00  0.00     0.048 A 
ENDBRANCH  13  15
ENDBRANCH   4  13
BRANCH   1  22
HETATM   22  N1  UNL     1      21.591   0.200  52.636  1.00  0.00    -0.314 N 
HETATM   23  C5  UNL     1      20.261   0.750  52.741  1.00  0.00     0.301 C 
HETATM   24  O2  UNL     1      20.034   1.972  52.727  1.00  0.00    -0.258 OA
HETATM   25  H6  UNL     1      21.780  -0.836  52.647  1.00  0.00     0.170 HD
BRANCH  23  26
HETATM   26  C4  UNL     1      19.207  -0.240  52.864  1.00  0.00    -0.003 C 
HETATM   27  C3  UNL     1      18.325  -1.062  52.986  1.00  0.00    -0.070 C 
BRANCH  27  28
HETATM   28  C2  UNL     1      17.250  -2.037  53.142  1.00  0.00     0.261 C 
BRANCH  28  29
HETATM   29  O1  UNL     1      17.681  -3.154  53.883  1.00  0.00    -0.384 OA
HETATM   30  C1  UNL     1      16.828  -4.227  53.707  1.00  0.00     0.202 C 
ENDBRANCH  28  29
ENDBRANCH  27  28
ENDBRANCH  23  26
ENDBRANCH   1  22
BRANCH  12  31
HETATM   31  O3  UNL     1      23.459  -0.828  54.332  1.00  0.00    -0.354 OA
HETATM   32  C21 UNL     1      24.208  -1.242  55.442  1.00  0.00     0.210 C 
ENDBRANCH  12  31
TORSDOF 7
ENDMDL
MODEL 6
REMARK VINA RESULT:      -7.5      4.022      7.750
REMARK  7 active torsions:
REMARK  status: ('A' for Active; 'I' for Inactive)
REMARK    1  A    between atoms: O1_2  and  C2_3 
REMARK    2  A    between atoms: C2_3  and  C3_4 
REMARK    3  A    between atoms: C4_5  and  C5_6 
REMARK       I    between atoms: C5_6  and  N1_8 
REMARK    4  A    between atoms: N1_8  and  C6_9 
REMARK    5  A    between atoms: C9_12  and  N2_13 
REMARK    6  A    between atoms: N2_13  and  C10_14 
REMARK    7  A    between atoms: C20_28  and  O3_29 
ROOT
HETATM    1  C6  UNL     1      20.329  -0.020  52.495  1.00  0.00     0.070 A 
HETATM    2  C7  UNL     1      21.686   0.259  52.482  1.00  0.00     0.048 A 
HETATM    3  C8  UNL     1      22.507  -0.290  53.456  1.00  0.00     0.027 A 
HETATM    4  C9  UNL     1      23.873   0.008  53.421  1.00  0.00     0.087 A 
HETATM    5  C16 UNL     1      24.588  -0.595  54.438  1.00  0.00     0.186 A 
HETATM    6  C17 UNL     1      26.001  -0.352  54.491  1.00  0.00     0.124 C 
HETATM    7  N3  UNL     1      27.133  -0.172  54.540  1.00  0.00    -0.190 NA
HETATM    8  N4  UNL     1      24.024  -1.389  55.369  1.00  0.00    -0.136 NA
HETATM    9  N5  UNL     1      22.728  -1.644  55.366  1.00  0.00    -0.148 NA
HETATM   10  C18 UNL     1      21.943  -1.103  54.412  1.00  0.00     0.094 A 
HETATM   11  C19 UNL     1      20.602  -1.400  54.454  1.00  0.00     0.073 A 
HETATM   12  C20 UNL     1      19.794  -0.851  53.485  1.00  0.00     0.097 A 
ENDROOT
BRANCH   4  13
HETATM   13  N2  UNL     1      24.432   0.836  52.440  1.00  0.00    -0.353 N 
HETATM   14  H8  UNL     1      25.151   0.262  51.953  1.00  0.00     0.166 HD
BRANCH  13  15
HETATM   15  C10 UNL     1      24.130   2.169  52.127  1.00  0.00     0.033 A 
HETATM   16  C11 UNL     1      24.102   3.106  53.135  1.00  0.00     0.029 A 
HETATM   17  C12 UNL     1      23.804   4.429  52.834  1.00  0.00     0.004 A 
HETATM   18  C13 UNL     1      23.547   4.726  51.492  1.00  0.00     0.019 A 
HETATM   19  C14 UNL     1      23.573   3.789  50.473  1.00  0.00     0.013 A 
HETATM   20 BR1  UNL     1      23.222   4.212  48.669  1.00  0.00    -0.051 Br
HETATM   21  C15 UNL     1      23.875   2.463  50.804  1.00  0.00     0.048 A 
ENDBRANCH  13  15
ENDBRANCH   4  13
BRANCH   1  22
HETATM   22  N1  UNL     1      19.446   0.507  51.534  1.00  0.00    -0.314 N 
HETATM   23  C5  UNL     1      19.457   0.998  50.177  1.00  0.00     0.301 C 
HETATM   24  O2  UNL     1      20.490   1.042  49.486  1.00  0.00    -0.258 OA
HETATM   25  H6  UNL     1      18.570   0.470  52.117  1.00  0.00     0.170 HD
BRANCH  23  26
HETATM   26  C4  UNL     1      18.166   1.437  49.683  1.00  0.00    -0.003 C 
HETATM   27  C3  UNL     1      17.096   1.812  49.256  1.00  0.00    -0.070 C 
BRANCH  27  28
HETATM   28  C2  UNL     1      15.812   2.256  48.721  1.00  0.00     0.261 C 
BRANCH  28  29
HETATM   29  O1  UNL     1      14.743   1.587  49.346  1.00  0.00    -0.384 OA
HETATM   30  C1  UNL     1      14.582   2.013  50.651  1.00  0.00     0.202 C 
ENDBRANCH  28  29
ENDBRANCH  27  28
ENDBRANCH  23  26
ENDBRANCH   1  22
BRANCH  12  31
HETATM   31  O3  UNL     1      18.433  -1.115  53.474  1.00  0.00    -0.354 OA
HETATM   32  C21 UNL     1      17.849  -2.385  53.583  1.00  0.00     0.210 C 
ENDBRANCH  12  31
TORSDOF 7
ENDMDL
MODEL 7
REMARK VINA RESULT:      -7.5      2.557      4.849
REMARK  7 active torsions:
REMARK  status: ('A' for Active; 'I' for Inactive)
REMARK    1  A    between atoms: O1_2  and  C2_3 
REMARK    2  A    between atoms: C2_3  and  C3_4 
REMARK    3  A    between atoms: C4_5  and  C5_6 
REMARK       I    between atoms: C5_6  and  N1_8 
REMARK    4  A    between atoms: N1_8  and  C6_9 
REMARK    5  A    between atoms: C9_12  and  N2_13 
REMARK    6  A    between atoms: N2_13  and  C10_14 
REMARK    7  A    between atoms: C20_28  and  O3_29 
ROOT
HETATM    1  C6  UNL     1      25.659   2.072  51.493  1.00  0.00     0.070 A 
HETATM    2  C7  UNL     1      24.277   1.985  51.537  1.00  0.00     0.048 A 
HETATM    3  C8  UNL     1      23.676   1.073  52.392  1.00  0.00     0.027 A 
HETATM    4  C9  UNL     1      22.280   1.004  52.417  1.00  0.00     0.087 A 
HETATM    5  C16 UNL     1      21.797   0.062  53.306  1.00  0.00     0.186 A 
HETATM    6  C17 UNL     1      20.373  -0.087  53.407  1.00  0.00     0.124 C 
HETATM    7  N3  UNL     1      19.237  -0.211  53.503  1.00  0.00    -0.190 NA
HETATM    8  N4  UNL     1      22.592  -0.712  54.069  1.00  0.00    -0.136 NA
HETATM    9  N5  UNL     1      23.909  -0.614  54.014  1.00  0.00    -0.148 NA
HETATM   10  C18 UNL     1      24.478   0.277  53.177  1.00  0.00     0.094 A 
HETATM   11  C19 UNL     1      25.852   0.337  53.158  1.00  0.00     0.073 A 
HETATM   12  C20 UNL     1      26.440   1.244  52.307  1.00  0.00     0.097 A 
ENDROOT
BRANCH   4  13
HETATM   13  N2  UNL     1      21.477   1.822  51.613  1.00  0.00    -0.353 N 
HETATM   14  H8  UNL     1      20.742   2.211  52.239  1.00  0.00     0.166 HD
BRANCH  13  15
HETATM   15  C10 UNL     1      21.586   2.101  50.243  1.00  0.00     0.033 A 
HETATM   16  C11 UNL     1      21.755   1.062  49.357  1.00  0.00     0.029 A 
HETATM   17  C12 UNL     1      21.865   1.329  47.998  1.00  0.00     0.004 A 
HETATM   18  C13 UNL     1      21.794   2.672  47.614  1.00  0.00     0.019 A 
HETATM   19  C14 UNL     1      21.625   3.723  48.500  1.00  0.00     0.013 A 
HETATM   20 BR1  UNL     1      21.533   5.527  47.960  1.00  0.00    -0.051 Br
HETATM   21  C15 UNL     1      21.518   3.425  49.863  1.00  0.00     0.048 A 
ENDBRANCH  13  15
ENDBRANCH   4  13
BRANCH   1  22
HETATM   22  N1  UNL     1      26.327   2.977  50.646  1.00  0.00    -0.314 N 
HETATM   23  C5  UNL     1      26.032   3.971  49.643  1.00  0.00     0.301 C 
HETATM   24  O2  UNL     1      24.872   4.246  49.288  1.00  0.00    -0.258 OA
HETATM   25  H6  UNL     1      27.310   2.746  50.946  1.00  0.00     0.170 HD
BRANCH  23  26
HETATM   26  C4  UNL     1      27.198   4.625  49.080  1.00  0.00    -0.003 C 
HETATM   27  C3  UNL     1      28.162   5.178  48.596  1.00  0.00    -0.070 C 
BRANCH  27  28
HETATM   28  C2  UNL     1      29.311   5.861  48.010  1.00  0.00     0.261 C 
BRANCH  28  29
HETATM   29  O1  UNL     1      30.520   5.340  48.507  1.00  0.00    -0.384 OA
HETATM   30  C1  UNL     1      31.271   6.324  49.122  1.00  0.00     0.202 C 
ENDBRANCH  28  29
ENDBRANCH  27  28
ENDBRANCH  23  26
ENDBRANCH   1  22
BRANCH  12  31
HETATM   31  O3  UNL     1      27.821   1.353  52.244  1.00  0.00    -0.354 OA
HETATM   32  C21 UNL     1      28.663   1.671  53.319  1.00  0.00     0.210 C 
ENDBRANCH  12  31
TORSDOF 7
ENDMDL
MODEL 8
REMARK VINA RESULT:      -7.4      5.175     11.015
REMARK  7 active torsions:
REMARK  status: ('A' for Active; 'I' for Inactive)
REMARK    1  A    between atoms: O1_2  and  C2_3 
REMARK    2  A    between atoms: C2_3  and  C3_4 
REMARK    3  A    between atoms: C4_5  and  C5_6 
REMARK       I    between atoms: C5_6  and  N1_8 
REMARK    4  A    between atoms: N1_8  and  C6_9 
REMARK    5  A    between atoms: C9_12  and  N2_13 
REMARK    6  A    between atoms: N2_13  and  C10_14 
REMARK    7  A    between atoms: C20_28  and  O3_29 
ROOT
HETATM    1  C6  UNL     1      29.371   7.807  48.484  1.00  0.00     0.070 A 
HETATM    2  C7  UNL     1      30.548   7.656  47.770  1.00  0.00     0.048 A 
HETATM    3  C8  UNL     1      31.377   8.752  47.577  1.00  0.00     0.027 A 
HETATM    4  C9  UNL     1      32.559   8.573  46.851  1.00  0.00     0.087 A 
HETATM    5  C16 UNL     1      33.301   9.732  46.725  1.00  0.00     0.186 A 
HETATM    6  C17 UNL     1      34.535   9.655  45.997  1.00  0.00     0.124 C 
HETATM    7  N3  UNL     1      35.527   9.605  45.422  1.00  0.00    -0.190 NA
HETATM    8  N4  UNL     1      32.922  10.914  47.248  1.00  0.00    -0.136 NA
HETATM    9  N5  UNL     1      31.796  11.039  47.927  1.00  0.00    -0.148 NA
HETATM   10  C18 UNL     1      31.001   9.965  48.107  1.00  0.00     0.094 A 
HETATM   11  C19 UNL     1      29.840  10.149  48.820  1.00  0.00     0.073 A 
HETATM   12  C20 UNL     1      29.024   9.058  49.007  1.00  0.00     0.097 A 
ENDROOT
BRANCH   4  13
HETATM   13  N2  UNL     1      32.929   7.332  46.320  1.00  0.00    -0.353 N 
HETATM   14  H8  UNL     1      32.674   7.363  45.310  1.00  0.00     0.166 HD
BRANCH  13  15
HETATM   15  C10 UNL     1      33.522   6.234  46.958  1.00  0.00     0.033 A 
HETATM   16  C11 UNL     1      34.596   6.443  47.794  1.00  0.00     0.029 A 
HETATM   17  C12 UNL     1      35.191   5.361  48.431  1.00  0.00     0.004 A 
HETATM   18  C13 UNL     1      34.643   4.101  48.172  1.00  0.00     0.019 A 
HETATM   19  C14 UNL     1      33.564   3.883  47.332  1.00  0.00     0.013 A 
HETATM   20 BR1  UNL     1      32.842   2.174  46.998  1.00  0.00    -0.051 Br
HETATM   21  C15 UNL     1      32.984   4.990  46.703  1.00  0.00     0.048 A 
ENDBRANCH  13  15
ENDBRANCH   4  13
BRANCH   1  22
HETATM   22  N1  UNL     1      28.490   6.734  48.713  1.00  0.00    -0.314 N 
HETATM   23  C5  UNL     1      28.417   5.306  48.517  1.00  0.00     0.301 C 
HETATM   24  O2  UNL     1      29.334   4.651  47.993  1.00  0.00    -0.258 OA
HETATM   25  H6  UNL     1      27.712   7.287  49.158  1.00  0.00     0.170 HD
BRANCH  23  26
HETATM   26  C4  UNL     1      27.185   4.695  48.981  1.00  0.00    -0.003 C 
HETATM   27  C3  UNL     1      26.166   4.174  49.379  1.00  0.00    -0.070 C 
BRANCH  27  28
HETATM   28  C2  UNL     1      24.946   3.549  49.880  1.00  0.00     0.261 C 
BRANCH  28  29
HETATM   29  O1  UNL     1      25.227   2.655  50.931  1.00  0.00    -0.384 OA
HETATM   30  C1  UNL     1      24.081   2.011  51.358  1.00  0.00     0.202 C 
ENDBRANCH  28  29
ENDBRANCH  27  28
ENDBRANCH  23  26
ENDBRANCH   1  22
BRANCH  12  31
HETATM   31  O3  UNL     1      27.840   9.181  49.719  1.00  0.00    -0.354 OA
HETATM   32  C21 UNL     1      26.664   9.780  49.245  1.00  0.00     0.210 C 
ENDBRANCH  12  31
TORSDOF 7
ENDMDL
MODEL 9
REMARK VINA RESULT:      -7.4      3.788      6.562
REMARK  7 active torsions:
REMARK  status: ('A' for Active; 'I' for Inactive)
REMARK    1  A    between atoms: O1_2  and  C2_3 
REMARK    2  A    between atoms: C2_3  and  C3_4 
REMARK    3  A    between atoms: C4_5  and  C5_6 
REMARK       I    between atoms: C5_6  and  N1_8 
REMARK    4  A    between atoms: N1_8  and  C6_9 
REMARK    5  A    between atoms: C9_12  and  N2_13 
REMARK    6  A    between atoms: N2_13  and  C10_14 
REMARK    7  A    between atoms: C20_28  and  O3_29 
ROOT
HETATM    1  C6  UNL     1      28.423   6.677  48.418  1.00  0.00     0.070 A 
HETATM    2  C7  UNL     1      27.280   5.952  48.717  1.00  0.00     0.048 A 
HETATM    3  C8  UNL     1      26.182   6.601  49.263  1.00  0.00     0.027 A 
HETATM    4  C9  UNL     1      25.042   5.846  49.556  1.00  0.00     0.087 A 
HETATM    5  C16 UNL     1      24.015   6.598  50.094  1.00  0.00     0.186 A 
HETATM    6  C17 UNL     1      22.797   5.916  50.429  1.00  0.00     0.124 C 
HETATM    7  N3  UNL     1      21.817   5.385  50.696  1.00  0.00    -0.190 NA
HETATM    8  N4  UNL     1      24.105   7.924  50.314  1.00  0.00    -0.136 NA
HETATM    9  N5  UNL     1      25.203   8.599  50.023  1.00  0.00    -0.148 NA
HETATM   10  C18 UNL     1      26.262   7.954  49.492  1.00  0.00     0.094 A 
HETATM   11  C19 UNL     1      27.380   8.703  49.208  1.00  0.00     0.073 A 
HETATM   12  C20 UNL     1      28.464   8.053  48.667  1.00  0.00     0.097 A 
ENDROOT
BRANCH   4  13
HETATM   13  N2  UNL     1      24.975   4.468  49.315  1.00  0.00    -0.353 N 
HETATM   14  H8  UNL     1      24.723   4.363  48.311  1.00  0.00     0.166 HD
BRANCH  13  15
HETATM   15  C10 UNL     1      25.194   3.402  50.198  1.00  0.00     0.033 A 
HETATM   16  C11 UNL     1      26.485   3.055  50.527  1.00  0.00     0.029 A 
HETATM   17  C12 UNL     1      26.711   2.000  51.402  1.00  0.00     0.004 A 
HETATM   18  C13 UNL     1      25.581   1.344  51.900  1.00  0.00     0.019 A 
HETATM   19  C14 UNL     1      24.280   1.686  51.574  1.00  0.00     0.013 A 
HETATM   20 BR1  UNL     1      22.771   0.787  52.258  1.00  0.00    -0.051 Br
HETATM   21  C15 UNL     1      24.081   2.753  50.690  1.00  0.00     0.048 A 
ENDBRANCH  13  15
ENDBRANCH   4  13
BRANCH   1  22
HETATM   22  N1  UNL     1      29.568   6.076  47.864  1.00  0.00    -0.314 N 
HETATM   23  C5  UNL     1      30.840   5.535  48.278  1.00  0.00     0.301 C 
HETATM   24  O2  UNL     1      31.206   5.509  49.466  1.00  0.00    -0.258 OA
HETATM   25  H6  UNL     1      29.260   6.096  46.857  1.00  0.00     0.170 HD
BRANCH  23  26
HETATM   26  C4  UNL     1      31.659   5.021  47.196  1.00  0.00    -0.003 C 
HETATM   27  C3  UNL     1      32.358   4.594  46.303  1.00  0.00    -0.070 C 
BRANCH  27  28
HETATM   28  C2  UNL     1      33.209   4.064  45.242  1.00  0.00     0.261 C 
BRANCH  28  29
HETATM   29  O1  UNL     1      34.571   4.259  45.537  1.00  0.00    -0.384 OA
HETATM   30  C1  UNL     1      34.990   3.410  46.544  1.00  0.00     0.202 C 
ENDBRANCH  28  29
ENDBRANCH  27  28
ENDBRANCH  23  26
ENDBRANCH   1  22
BRANCH  12  31
HETATM   31  O3  UNL     1      29.621   8.755  48.358  1.00  0.00    -0.354 OA
HETATM   32  C21 UNL     1      30.503   9.320  49.290  1.00  0.00     0.210 C 
ENDBRANCH  12  31
TORSDOF 7
ENDMDL
