MODEL 1
REMARK VINA RESULT:      -7.5      0.000      0.000
REMARK  5 active torsions:
REMARK  status: ('A' for Active; 'I' for Inactive)
REMARK    1  A    between atoms: C2_2  and  C3_3 
REMARK    2  A    between atoms: N1_5  and  C5_6 
REMARK    3  A    between atoms: C5_6  and  C6_7 
REMARK    4  A    between atoms: C11_13  and  O1_14 
REMARK    5  A    between atoms: C12_15  and  N2_16 
ROOT
HETATM    1  C3  UNL     1      22.328   1.829  50.947  1.00  0.00     0.066 C 
HETATM    2  C4  UNL     1      23.587   2.624  50.795  1.00  0.00     0.284 C 
HETATM    3  N1  UNL     1      24.278   1.483  51.437  1.00  0.00     0.116 N 
HETATM    4  C12 UNL     1      23.098   0.780  51.736  1.00  0.00     0.326 C 
ENDROOT
BRANCH   3   5
HETATM    5  C5  UNL     1      25.229   1.897  52.401  1.00  0.00     0.316 C 
BRANCH   5   6
HETATM    6  C6  UNL     1      26.327   0.953  52.672  1.00  0.00     0.005 A 
HETATM    7  C7  UNL     1      26.592  -0.369  52.386  1.00  0.00     0.012 A 
HETATM    8  C8  UNL     1      27.706  -1.022  52.802  1.00  0.00     0.002 A 
HETATM    9  C9  UNL     1      28.663  -0.383  53.556  1.00  0.00     0.026 A 
HETATM   10  C10 UNL     1      28.463   0.941  53.882  1.00  0.00     0.067 A 
HETATM   11 CL1  UNL     1      29.719   1.670  54.837  1.00  0.00    -0.081 Cl
HETATM   12  C11 UNL     1      27.307   1.591  53.441  1.00  0.00     0.095 A 
BRANCH  12  13
HETATM   13  O1  UNL     1      27.298   2.926  53.878  1.00  0.00    -0.358 OA
HETATM   14  H14 UNL     1      27.736   3.170  54.758  1.00  0.00     0.217 HD
ENDBRANCH  12  13
ENDBRANCH   5   6
ENDBRANCH   3   5
BRANCH   4  15
HETATM   15  N2  UNL     1      22.630   0.574  53.053  1.00  0.00    -0.377 N 
HETATM   16  C13 UNL     1      23.073  -0.579  53.745  1.00  0.00     0.147 C 
HETATM   17  C14 UNL     1      21.984  -1.600  53.912  1.00  0.00     0.004 C 
HETATM   18  C15 UNL     1      20.930  -1.131  54.554  1.00  0.00    -0.031 C 
HETATM   19  C16 UNL     1      20.746   0.148  54.463  1.00  0.00     0.004 C 
HETATM   20  C17 UNL     1      21.305   0.998  53.352  1.00  0.00     0.147 C 
ENDBRANCH   4  15
BRANCH   1  21
HETATM   21  C2  UNL     1      21.744   1.365  49.652  1.00  0.00     0.005 C 
HETATM   22  C1  UNL     1      22.312   2.083  48.450  1.00  0.00     0.005 C 
ENDBRANCH   1  21
TORSDOF 5
ENDMDL
MODEL 2
REMARK VINA RESULT:      -7.4      1.912      3.856
REMARK  5 active torsions:
REMARK  status: ('A' for Active; 'I' for Inactive)
REMARK    1  A    between atoms: C2_2  and  C3_3 
REMARK    2  A    between atoms: N1_5  and  C5_6 
REMARK    3  A    between atoms: C5_6  and  C6_7 
REMARK    4  A    between atoms: C11_13  and  O1_14 
REMARK    5  A    between atoms: C12_15  and  N2_16 
ROOT
HETATM    1  C3  UNL     1      22.354   0.221  53.142  1.00  0.00     0.066 C 
HETATM    2  C4  UNL     1      23.534  -0.678  52.941  1.00  0.00     0.284 C 
HETATM    3  N1  UNL     1      24.372   0.523  53.163  1.00  0.00     0.116 N 
HETATM    4  C12 UNL     1      23.290   1.420  53.201  1.00  0.00     0.326 C 
ENDROOT
BRANCH   3   5
HETATM    5  C5  UNL     1      25.451   0.608  52.249  1.00  0.00     0.316 C 
BRANCH   5   6
HETATM    6  C6  UNL     1      26.752   0.998  52.821  1.00  0.00     0.005 A 
HETATM    7  C7  UNL     1      27.367   2.179  53.173  1.00  0.00     0.012 A 
HETATM    8  C8  UNL     1      28.629   2.256  53.664  1.00  0.00     0.002 A 
HETATM    9  C9  UNL     1      29.390   1.123  53.844  1.00  0.00     0.026 A 
HETATM   10  C10 UNL     1      28.839  -0.095  53.511  1.00  0.00     0.067 A 
HETATM   11 CL1  UNL     1      29.867  -1.472  53.768  1.00  0.00    -0.081 Cl
HETATM   12  C11 UNL     1      27.535  -0.146  53.007  1.00  0.00     0.095 A 
BRANCH  12  13
HETATM   13  O1  UNL     1      27.168  -1.474  52.735  1.00  0.00    -0.358 OA
HETATM   14  H14 UNL     1      26.251  -1.675  52.356  1.00  0.00     0.217 HD
ENDBRANCH  12  13
ENDBRANCH   5   6
ENDBRANCH   3   5
BRANCH   4  15
HETATM   15  N2  UNL     1      23.057   2.396  52.207  1.00  0.00    -0.377 N 
HETATM   16  C13 UNL     1      23.885   3.545  52.195  1.00  0.00     0.147 C 
HETATM   17  C14 UNL     1      23.154   4.782  52.636  1.00  0.00     0.004 C 
HETATM   18  C15 UNL     1      22.094   5.047  51.895  1.00  0.00    -0.031 C 
HETATM   19  C16 UNL     1      21.548   4.025  51.317  1.00  0.00     0.004 C 
HETATM   20  C17 UNL     1      21.711   2.605  51.796  1.00  0.00     0.147 C 
ENDBRANCH   4  15
BRANCH   1  21
HETATM   21  C2  UNL     1      21.584  -0.060  54.392  1.00  0.00     0.005 C 
HETATM   22  C1  UNL     1      21.283  -1.528  54.589  1.00  0.00     0.005 C 
ENDBRANCH   1  21
TORSDOF 5
ENDMDL
MODEL 3
REMARK VINA RESULT:      -7.4      1.657      2.076
REMARK  5 active torsions:
REMARK  status: ('A' for Active; 'I' for Inactive)
REMARK    1  A    between atoms: C2_2  and  C3_3 
REMARK    2  A    between atoms: N1_5  and  C5_6 
REMARK    3  A    between atoms: C5_6  and  C6_7 
REMARK    4  A    between atoms: C11_13  and  O1_14 
REMARK    5  A    between atoms: C12_15  and  N2_16 
ROOT
HETATM    1  C3  UNL     1      23.487   2.147  51.777  1.00  0.00     0.066 C 
HETATM    2  C4  UNL     1      24.863   2.616  52.133  1.00  0.00     0.284 C 
HETATM    3  N1  UNL     1      25.106   1.239  52.622  1.00  0.00     0.116 N 
HETATM    4  C12 UNL     1      23.779   0.812  52.445  1.00  0.00     0.326 C 
ENDROOT
BRANCH   3   5
HETATM    5  C5  UNL     1      25.797   1.216  53.859  1.00  0.00     0.316 C 
BRANCH   5   6
HETATM    6  C6  UNL     1      27.244   0.953  53.785  1.00  0.00     0.005 A 
HETATM    7  C7  UNL     1      28.394   1.712  53.818  1.00  0.00     0.012 A 
HETATM    8  C8  UNL     1      29.642   1.198  53.690  1.00  0.00     0.002 A 
HETATM    9  C9  UNL     1      29.837  -0.154  53.514  1.00  0.00     0.026 A 
HETATM   10  C10 UNL     1      28.731  -0.974  53.469  1.00  0.00     0.067 A 
HETATM   11 CL1  UNL     1      29.068  -2.664  53.243  1.00  0.00    -0.081 Cl
HETATM   12  C11 UNL     1      27.456  -0.418  53.604  1.00  0.00     0.095 A 
BRANCH  12  13
HETATM   13  O1  UNL     1      26.475  -1.420  53.531  1.00  0.00    -0.358 OA
HETATM   14  H14 UNL     1      25.567  -1.209  53.137  1.00  0.00     0.217 HD
ENDBRANCH  12  13
ENDBRANCH   5   6
ENDBRANCH   3   5
BRANCH   4  15
HETATM   15  N2  UNL     1      22.918   0.491  53.519  1.00  0.00    -0.377 N 
HETATM   16  C13 UNL     1      23.084  -0.763  54.154  1.00  0.00     0.147 C 
HETATM   17  C14 UNL     1      21.964  -1.715  53.846  1.00  0.00     0.004 C 
HETATM   18  C15 UNL     1      20.779  -1.247  54.193  1.00  0.00    -0.031 C 
HETATM   19  C16 UNL     1      20.675   0.044  54.218  1.00  0.00     0.004 C 
HETATM   20  C17 UNL     1      21.580   0.973  53.452  1.00  0.00     0.147 C 
ENDBRANCH   4  15
BRANCH   1  21
HETATM   21  C2  UNL     1      23.227   2.091  50.306  1.00  0.00     0.005 C 
HETATM   22  C1  UNL     1      21.957   1.351  49.953  1.00  0.00     0.005 C 
ENDBRANCH   1  21
TORSDOF 5
ENDMDL
MODEL 4
REMARK VINA RESULT:      -7.0      3.394      5.075
REMARK  5 active torsions:
REMARK  status: ('A' for Active; 'I' for Inactive)
REMARK    1  A    between atoms: C2_2  and  C3_3 
REMARK    2  A    between atoms: N1_5  and  C5_6 
REMARK    3  A    between atoms: C5_6  and  C6_7 
REMARK    4  A    between atoms: C11_13  and  O1_14 
REMARK    5  A    between atoms: C12_15  and  N2_16 
ROOT
HETATM    1  C3  UNL     1      22.284   1.276  52.015  1.00  0.00     0.066 C 
HETATM    2  C4  UNL     1      22.002   2.734  51.829  1.00  0.00     0.284 C 
HETATM    3  N1  UNL     1      23.354   2.827  51.233  1.00  0.00     0.116 N 
HETATM    4  C12 UNL     1      23.711   1.501  51.533  1.00  0.00     0.326 C 
ENDROOT
BRANCH   3   5
HETATM    5  C5  UNL     1      24.066   3.968  51.677  1.00  0.00     0.316 C 
BRANCH   5   6
HETATM    6  C6  UNL     1      24.935   4.615  50.679  1.00  0.00     0.005 A 
HETATM    7  C7  UNL     1      25.871   4.197  49.757  1.00  0.00     0.012 A 
HETATM    8  C8  UNL     1      26.573   5.041  48.960  1.00  0.00     0.002 A 
HETATM    9  C9  UNL     1      26.385   6.402  49.027  1.00  0.00     0.026 A 
HETATM   10  C10 UNL     1      25.465   6.892  49.929  1.00  0.00     0.067 A 
HETATM   11 CL1  UNL     1      25.292   8.621  49.949  1.00  0.00    -0.081 Cl
HETATM   12  C11 UNL     1      24.754   6.002  50.739  1.00  0.00     0.095 A 
BRANCH  12  13
HETATM   13  O1  UNL     1      23.873   6.701  51.579  1.00  0.00    -0.358 OA
HETATM   14  H14 UNL     1      23.292   7.438  51.199  1.00  0.00     0.217 HD
ENDBRANCH  12  13
ENDBRANCH   5   6
ENDBRANCH   3   5
BRANCH   4  15
HETATM   15  N2  UNL     1      24.709   1.160  52.473  1.00  0.00    -0.377 N 
HETATM   16  C13 UNL     1      26.056   1.144  52.038  1.00  0.00     0.147 C 
HETATM   17  C14 UNL     1      26.611  -0.249  51.943  1.00  0.00     0.004 C 
HETATM   18  C15 UNL     1      26.554  -0.906  53.087  1.00  0.00    -0.031 C 
HETATM   19  C16 UNL     1      25.619  -0.529  53.901  1.00  0.00     0.004 C 
HETATM   20  C17 UNL     1      24.373   0.198  53.466  1.00  0.00     0.147 C 
ENDBRANCH   4  15
BRANCH   1  21
HETATM   21  C2  UNL     1      21.446   0.382  51.159  1.00  0.00     0.005 C 
HETATM   22  C1  UNL     1      20.024   0.248  51.651  1.00  0.00     0.005 C 
ENDBRANCH   1  21
TORSDOF 5
ENDMDL
MODEL 5
REMARK VINA RESULT:      -7.0      1.586      1.901
REMARK  5 active torsions:
REMARK  status: ('A' for Active; 'I' for Inactive)
REMARK    1  A    between atoms: C2_2  and  C3_3 
REMARK    2  A    between atoms: N1_5  and  C5_6 
REMARK    3  A    between atoms: C5_6  and  C6_7 
REMARK    4  A    between atoms: C11_13  and  O1_14 
REMARK    5  A    between atoms: C12_15  and  N2_16 
ROOT
HETATM    1  C3  UNL     1      23.434   3.080  50.475  1.00  0.00     0.066 C 
HETATM    2  C4  UNL     1      24.762   3.134  51.163  1.00  0.00     0.284 C 
HETATM    3  N1  UNL     1      24.554   1.702  51.479  1.00  0.00     0.116 N 
HETATM    4  C12 UNL     1      23.241   1.657  50.981  1.00  0.00     0.326 C 
ENDROOT
BRANCH   3   5
HETATM    5  C5  UNL     1      24.918   1.381  52.810  1.00  0.00     0.316 C 
BRANCH   5   6
HETATM    6  C6  UNL     1      26.163   0.611  52.971  1.00  0.00     0.005 A 
HETATM    7  C7  UNL     1      26.579  -0.672  52.689  1.00  0.00     0.012 A 
HETATM    8  C8  UNL     1      27.815  -1.146  52.985  1.00  0.00     0.002 A 
HETATM    9  C9  UNL     1      28.751  -0.349  53.604  1.00  0.00     0.026 A 
HETATM   10  C10 UNL     1      28.403   0.947  53.918  1.00  0.00     0.067 A 
HETATM   11 CL1  UNL     1      29.642   1.882  54.697  1.00  0.00    -0.081 Cl
HETATM   12  C11 UNL     1      27.122   1.411  53.601  1.00  0.00     0.095 A 
BRANCH  12  13
HETATM   13  O1  UNL     1      26.974   2.748  54.002  1.00  0.00    -0.358 OA
HETATM   14  H14 UNL     1      26.844   2.969  54.982  1.00  0.00     0.217 HD
ENDBRANCH  12  13
ENDBRANCH   5   6
ENDBRANCH   3   5
BRANCH   4  15
HETATM   15  N2  UNL     1      22.106   1.474  51.802  1.00  0.00    -0.377 N 
HETATM   16  C13 UNL     1      21.327   0.308  51.612  1.00  0.00     0.147 C 
HETATM   17  C14 UNL     1      19.995   0.605  50.982  1.00  0.00     0.004 C 
HETATM   18  C15 UNL     1      19.271   1.457  51.684  1.00  0.00    -0.031 C 
HETATM   19  C16 UNL     1      19.942   2.276  52.431  1.00  0.00     0.004 C 
HETATM   20  C17 UNL     1      21.385   2.638  52.192  1.00  0.00     0.147 C 
ENDBRANCH   4  15
BRANCH   1  21
HETATM   21  C2  UNL     1      23.513   3.233  48.991  1.00  0.00     0.005 C 
HETATM   22  C1  UNL     1      22.159   3.379  48.334  1.00  0.00     0.005 C 
ENDBRANCH   1  21
TORSDOF 5
ENDMDL
MODEL 6
REMARK VINA RESULT:      -6.7      3.654      6.871
REMARK  5 active torsions:
REMARK  status: ('A' for Active; 'I' for Inactive)
REMARK    1  A    between atoms: C2_2  and  C3_3 
REMARK    2  A    between atoms: N1_5  and  C5_6 
REMARK    3  A    between atoms: C5_6  and  C6_7 
REMARK    4  A    between atoms: C11_13  and  O1_14 
REMARK    5  A    between atoms: C12_15  and  N2_16 
ROOT
HETATM    1  C3  UNL     1      25.080   0.560  52.793  1.00  0.00     0.066 C 
HETATM    2  C4  UNL     1      24.126   0.049  53.826  1.00  0.00     0.284 C 
HETATM    3  N1  UNL     1      23.065   0.243  52.811  1.00  0.00     0.116 N 
HETATM    4  C12 UNL     1      23.906   0.870  51.876  1.00  0.00     0.326 C 
ENDROOT
BRANCH   3   5
HETATM    5  C5  UNL     1      21.894   0.827  53.353  1.00  0.00     0.316 C 
BRANCH   5   6
HETATM    6  C6  UNL     1      20.627   0.465  52.695  1.00  0.00     0.005 A 
HETATM    7  C7  UNL     1      19.919   0.901  51.596  1.00  0.00     0.012 A 
HETATM    8  C8  UNL     1      18.718   0.394  51.223  1.00  0.00     0.002 A 
HETATM    9  C9  UNL     1      18.120  -0.616  51.941  1.00  0.00     0.026 A 
HETATM   10  C10 UNL     1      18.771  -1.101  53.055  1.00  0.00     0.067 A 
HETATM   11 CL1  UNL     1      17.945  -2.373  53.904  1.00  0.00    -0.081 Cl
HETATM   12  C11 UNL     1      20.008  -0.561  53.418  1.00  0.00     0.095 A 
BRANCH  12  13
HETATM   13  O1  UNL     1      20.497  -1.192  54.573  1.00  0.00    -0.358 OA
HETATM   14  H14 UNL     1      20.853  -2.139  54.517  1.00  0.00     0.217 HD
ENDBRANCH  12  13
ENDBRANCH   5   6
ENDBRANCH   3   5
BRANCH   4  15
HETATM   15  N2  UNL     1      23.786   2.231  51.514  1.00  0.00    -0.377 N 
HETATM   16  C13 UNL     1      22.953   2.558  50.417  1.00  0.00     0.147 C 
HETATM   17  C14 UNL     1      23.737   2.998  49.214  1.00  0.00     0.004 C 
HETATM   18  C15 UNL     1      24.508   4.043  49.454  1.00  0.00    -0.031 C 
HETATM   19  C16 UNL     1      24.888   4.185  50.685  1.00  0.00     0.004 C 
HETATM   20  C17 UNL     1      24.932   3.057  51.683  1.00  0.00     0.147 C 
ENDBRANCH   4  15
BRANCH   1  21
HETATM   21  C2  UNL     1      26.038  -0.472  52.290  1.00  0.00     0.005 C 
HETATM   22  C1  UNL     1      27.332  -0.514  53.070  1.00  0.00     0.005 C 
ENDBRANCH   1  21
TORSDOF 5
ENDMDL
MODEL 7
REMARK VINA RESULT:      -6.7      3.895      6.140
REMARK  5 active torsions:
REMARK  status: ('A' for Active; 'I' for Inactive)
REMARK    1  A    between atoms: C2_2  and  C3_3 
REMARK    2  A    between atoms: N1_5  and  C5_6 
REMARK    3  A    between atoms: C5_6  and  C6_7 
REMARK    4  A    between atoms: C11_13  and  O1_14 
REMARK    5  A    between atoms: C12_15  and  N2_16 
ROOT
HETATM    1  C3  UNL     1      24.862   3.368  51.072  1.00  0.00     0.066 C 
HETATM    2  C4  UNL     1      24.511   3.101  52.502  1.00  0.00     0.284 C 
HETATM    3  N1  UNL     1      23.650   2.009  51.992  1.00  0.00     0.116 N 
HETATM    4  C12 UNL     1      23.834   2.332  50.637  1.00  0.00     0.326 C 
ENDROOT
BRANCH   3   5
HETATM    5  C5  UNL     1      22.391   1.963  52.641  1.00  0.00     0.316 C 
BRANCH   5   6
HETATM    6  C6  UNL     1      22.046   0.686  53.290  1.00  0.00     0.005 A 
HETATM    7  C7  UNL     1      22.726  -0.285  53.992  1.00  0.00     0.012 A 
HETATM    8  C8  UNL     1      22.148  -1.418  54.465  1.00  0.00     0.002 A 
HETATM    9  C9  UNL     1      20.809  -1.668  54.264  1.00  0.00     0.026 A 
HETATM   10  C10 UNL     1      20.067  -0.738  53.568  1.00  0.00     0.067 A 
HETATM   11 CL1  UNL     1      18.388  -1.134  53.360  1.00  0.00    -0.081 Cl
HETATM   12  C11 UNL     1      20.687   0.420  53.092  1.00  0.00     0.095 A 
BRANCH  12  13
HETATM   13  O1  UNL     1      19.759   1.229  52.416  1.00  0.00    -0.358 OA
HETATM   14  H14 UNL     1      20.071   1.839  51.670  1.00  0.00     0.217 HD
ENDBRANCH  12  13
ENDBRANCH   5   6
ENDBRANCH   3   5
BRANCH   4  15
HETATM   15  N2  UNL     1      22.804   2.837  49.813  1.00  0.00    -0.377 N 
HETATM   16  C13 UNL     1      22.039   1.912  49.061  1.00  0.00     0.147 C 
HETATM   17  C14 UNL     1      22.339   1.983  47.590  1.00  0.00     0.004 C 
HETATM   18  C15 UNL     1      22.129   3.182  47.078  1.00  0.00    -0.031 C 
HETATM   19  C16 UNL     1      22.236   4.169  47.909  1.00  0.00     0.004 C 
HETATM   20  C17 UNL     1      23.017   4.101  49.196  1.00  0.00     0.147 C 
ENDBRANCH   4  15
BRANCH   1  21
HETATM   21  C2  UNL     1      26.282   3.055  50.727  1.00  0.00     0.005 C 
HETATM   22  C1  UNL     1      26.740   3.707  49.442  1.00  0.00     0.005 C 
ENDBRANCH   1  21
TORSDOF 5
ENDMDL
MODEL 8
REMARK VINA RESULT:      -6.7      3.026      5.756
REMARK  5 active torsions:
REMARK  status: ('A' for Active; 'I' for Inactive)
REMARK    1  A    between atoms: C2_2  and  C3_3 
REMARK    2  A    between atoms: N1_5  and  C5_6 
REMARK    3  A    between atoms: C5_6  and  C6_7 
REMARK    4  A    between atoms: C11_13  and  O1_14 
REMARK    5  A    between atoms: C12_15  and  N2_16 
ROOT
HETATM    1  C3  UNL     1      23.449   0.416  53.345  1.00  0.00     0.066 C 
HETATM    2  C4  UNL     1      22.719   1.697  53.087  1.00  0.00     0.284 C 
HETATM    3  N1  UNL     1      23.704   1.935  52.007  1.00  0.00     0.116 N 
HETATM    4  C12 UNL     1      24.501   0.822  52.323  1.00  0.00     0.326 C 
ENDROOT
BRANCH   3   5
HETATM    5  C5  UNL     1      24.170   3.272  51.981  1.00  0.00     0.316 C 
BRANCH   5   6
HETATM    6  C6  UNL     1      23.850   4.044  50.768  1.00  0.00     0.005 A 
HETATM    7  C7  UNL     1      23.588   3.752  49.447  1.00  0.00     0.012 A 
HETATM    8  C8  UNL     1      23.350   4.693  48.499  1.00  0.00     0.002 A 
HETATM    9  C9  UNL     1      23.357   6.033  48.813  1.00  0.00     0.026 A 
HETATM   10  C10 UNL     1      23.614   6.399  50.116  1.00  0.00     0.067 A 
HETATM   11 CL1  UNL     1      23.606   8.109  50.424  1.00  0.00    -0.081 Cl
HETATM   12  C11 UNL     1      23.856   5.409  51.074  1.00  0.00     0.095 A 
BRANCH  12  13
HETATM   13  O1  UNL     1      24.093   5.991  52.330  1.00  0.00    -0.358 OA
HETATM   14  H14 UNL     1      24.137   6.999  52.418  1.00  0.00     0.217 HD
ENDBRANCH  12  13
ENDBRANCH   5   6
ENDBRANCH   3   5
BRANCH   4  15
HETATM   15  N2  UNL     1      25.812   0.928  52.840  1.00  0.00    -0.377 N 
HETATM   16  C13 UNL     1      26.879   0.419  52.062  1.00  0.00     0.147 C 
HETATM   17  C14 UNL     1      27.467  -0.834  52.646  1.00  0.00     0.004 C 
HETATM   18  C15 UNL     1      27.916  -0.668  53.877  1.00  0.00    -0.031 C 
HETATM   19  C16 UNL     1      27.345   0.274  54.557  1.00  0.00     0.004 C 
HETATM   20  C17 UNL     1      25.971   0.814  54.250  1.00  0.00     0.147 C 
ENDBRANCH   4  15
BRANCH   1  21
HETATM   21  C2  UNL     1      22.660  -0.809  53.010  1.00  0.00     0.005 C 
HETATM   22  C1  UNL     1      21.808  -1.301  54.157  1.00  0.00     0.005 C 
ENDBRANCH   1  21
TORSDOF 5
ENDMDL
MODEL 9
REMARK VINA RESULT:      -6.7      3.057      5.016
REMARK  5 active torsions:
REMARK  status: ('A' for Active; 'I' for Inactive)
REMARK    1  A    between atoms: C2_2  and  C3_3 
REMARK    2  A    between atoms: N1_5  and  C5_6 
REMARK    3  A    between atoms: C5_6  and  C6_7 
REMARK    4  A    between atoms: C11_13  and  O1_14 
REMARK    5  A    between atoms: C12_15  and  N2_16 
ROOT
HETATM    1  C3  UNL     1      26.110   0.428  53.294  1.00  0.00     0.066 C 
HETATM    2  C4  UNL     1      26.732   1.186  52.164  1.00  0.00     0.284 C 
HETATM    3  N1  UNL     1      25.510   2.023  52.173  1.00  0.00     0.116 N 
HETATM    4  C12 UNL     1      24.833   1.239  53.123  1.00  0.00     0.326 C 
ENDROOT
BRANCH   3   5
HETATM    5  C5  UNL     1      25.028   2.294  50.869  1.00  0.00     0.316 C 
BRANCH   5   6
HETATM    6  C6  UNL     1      25.617   3.463  50.193  1.00  0.00     0.005 A 
HETATM    7  C7  UNL     1      26.693   3.692  49.364  1.00  0.00     0.012 A 
HETATM    8  C8  UNL     1      27.040   4.918  48.898  1.00  0.00     0.002 A 
HETATM    9  C9  UNL     1      26.314   6.037  49.237  1.00  0.00     0.026 A 
HETATM   10  C10 UNL     1      25.223   5.883  50.065  1.00  0.00     0.067 A 
HETATM   11 CL1  UNL     1      24.365   7.346  50.444  1.00  0.00    -0.081 Cl
HETATM   12  C11 UNL     1      24.888   4.608  50.532  1.00  0.00     0.095 A 
BRANCH  12  13
HETATM   13  O1  UNL     1      23.752   4.672  51.355  1.00  0.00    -0.358 OA
HETATM   14  H14 UNL     1      23.144   3.867  51.437  1.00  0.00     0.217 HD
ENDBRANCH  12  13
ENDBRANCH   5   6
ENDBRANCH   3   5
BRANCH   4  15
HETATM   15  N2  UNL     1      23.686   0.472  52.820  1.00  0.00    -0.377 N 
HETATM   16  C13 UNL     1      22.461   1.154  52.624  1.00  0.00     0.147 C 
HETATM   17  C14 UNL     1      21.494   0.931  53.752  1.00  0.00     0.004 C 
HETATM   18  C15 UNL     1      21.213  -0.344  53.946  1.00  0.00    -0.031 C 
HETATM   19  C16 UNL     1      22.129  -1.180  53.573  1.00  0.00     0.004 C 
HETATM   20  C17 UNL     1      23.583  -0.816  53.417  1.00  0.00     0.147 C 
ENDBRANCH   4  15
BRANCH   1  21
HETATM   21  C2  UNL     1      26.815   0.601  54.600  1.00  0.00     0.005 C 
HETATM   22  C1  UNL     1      28.313   0.423  54.497  1.00  0.00     0.005 C 
ENDBRANCH   1  21
TORSDOF 5
ENDMDL
