MODEL 1
REMARK VINA RESULT:      -8.8      0.000      0.000
REMARK  2 active torsions:
REMARK  status: ('A' for Active; 'I' for Inactive)
REMARK    1  A    between atoms: C11_16  and  N4_17 
REMARK    2  A    between atoms: N4_17  and  C12_18 
ROOT
HETATM    1  N1  UNL     1      29.036   1.285  54.631  1.00  0.00    -0.170 NA
HETATM    2  C1  UNL     1      28.510   1.798  53.739  1.00  0.00     0.208 C 
HETATM    3  N2  UNL     1      27.854   2.407  52.654  1.00  0.00    -0.146 NA
HETATM    4  C2  UNL     1      26.625   2.004  52.441  1.00  0.00     0.209 C 
HETATM    5  O1  UNL     1      26.053   1.036  53.261  1.00  0.00    -0.289 OA
HETATM    6  C3  UNL     1      24.698   0.703  53.405  1.00  0.00     0.086 A 
HETATM    7  C4  UNL     1      24.584  -0.493  54.111  1.00  0.00     0.041 A 
HETATM    8  C5  UNL     1      23.337  -0.997  54.362  1.00  0.00     0.045 A 
HETATM    9  C6  UNL     1      22.225  -0.304  53.905  1.00  0.00     0.117 A 
HETATM   10  F1  UNL     1      20.975  -0.775  54.134  1.00  0.00    -0.206 F 
HETATM   11  C7  UNL     1      22.367   0.877  53.207  1.00  0.00     0.054 A 
HETATM   12  C8  UNL     1      23.612   1.415  52.937  1.00  0.00    -0.004 A 
HETATM   13  C9  UNL     1      23.482   2.684  52.179  1.00  0.00     0.161 C 
HETATM   14  N3  UNL     1      24.517   2.812  51.143  1.00  0.00    -0.381 N 
HETATM   15  C10 UNL     1      25.935   2.643  51.303  1.00  0.00     0.098 C 
HETATM   16  C11 UNL     1      26.709   3.096  50.359  1.00  0.00     0.121 C 
HETATM   17  H6  UNL     1      24.190   3.055  50.162  1.00  0.00     0.160 HD
ENDROOT
BRANCH  16  18
HETATM   18  N4  UNL     1      26.780   3.752  49.103  1.00  0.00    -0.365 N 
HETATM   19  H8  UNL     1      26.890   3.273  48.170  1.00  0.00     0.165 HD
BRANCH  18  20
HETATM   20  C12 UNL     1      26.716   5.163  48.959  1.00  0.00     0.040 C 
HETATM   21  C13 UNL     1      27.333   6.243  48.408  1.00  0.00     0.053 C 
HETATM   22 CL1  UNL     1      28.577   7.065  47.465  1.00  0.00    -0.086 Cl
HETATM   23  C14 UNL     1      26.454   6.977  49.331  1.00  0.00     0.085 A 
HETATM   24  C15 UNL     1      25.381   7.106  50.112  1.00  0.00     0.100 A 
HETATM   25  C16 UNL     1      25.454   5.842  49.374  1.00  0.00     0.118 A 
HETATM   26  F2  UNL     1      24.530   7.743  50.975  1.00  0.00    -0.213 F 
ENDBRANCH  18  20
ENDBRANCH  16  18
TORSDOF 2
ENDMDL
MODEL 2
REMARK VINA RESULT:      -8.6      2.159      2.576
REMARK  2 active torsions:
REMARK  status: ('A' for Active; 'I' for Inactive)
REMARK    1  A    between atoms: C11_16  and  N4_17 
REMARK    2  A    between atoms: N4_17  and  C12_18 
ROOT
HETATM    1  N1  UNL     1      26.903   0.937  54.947  1.00  0.00    -0.170 NA
HETATM    2  C1  UNL     1      26.390   1.462  54.053  1.00  0.00     0.208 C 
HETATM    3  N2  UNL     1      25.751   2.084  52.966  1.00  0.00    -0.146 NA
HETATM    4  C2  UNL     1      24.564   1.613  52.667  1.00  0.00     0.209 C 
HETATM    5  O1  UNL     1      24.018   0.567  53.405  1.00  0.00    -0.289 OA
HETATM    6  C3  UNL     1      22.683   0.139  53.458  1.00  0.00     0.086 A 
HETATM    7  C4  UNL     1      22.615  -1.097  54.097  1.00  0.00     0.041 A 
HETATM    8  C5  UNL     1      21.393  -1.694  54.254  1.00  0.00     0.045 A 
HETATM    9  C6  UNL     1      20.262  -1.052  53.771  1.00  0.00     0.117 A 
HETATM   10  F1  UNL     1      19.037  -1.614  53.909  1.00  0.00    -0.206 F 
HETATM   11  C7  UNL     1      20.359   0.171  53.142  1.00  0.00     0.054 A 
HETATM   12  C8  UNL     1      21.577   0.803  52.967  1.00  0.00    -0.004 A 
HETATM   13  C9  UNL     1      21.399   2.100  52.267  1.00  0.00     0.161 C 
HETATM   14  N3  UNL     1      22.476   2.349  51.296  1.00  0.00    -0.381 N 
HETATM   15  C10 UNL     1      23.892   2.265  51.526  1.00  0.00     0.098 C 
HETATM   16  C11 UNL     1      24.680   2.817  50.648  1.00  0.00     0.121 C 
HETATM   17  H6  UNL     1      22.184   2.622  50.312  1.00  0.00     0.160 HD
ENDROOT
BRANCH  16  18
HETATM   18  N4  UNL     1      24.771   3.542  49.432  1.00  0.00    -0.365 N 
HETATM   19  H8  UNL     1      24.246   3.314  48.546  1.00  0.00     0.165 HD
BRANCH  18  20
HETATM   20  C12 UNL     1      25.603   4.680  49.267  1.00  0.00     0.040 C 
HETATM   21  C13 UNL     1      25.612   6.040  49.222  1.00  0.00     0.053 C 
HETATM   22 CL1  UNL     1      24.888   7.647  49.296  1.00  0.00    -0.086 Cl
HETATM   23  C14 UNL     1      26.950   5.822  48.650  1.00  0.00     0.085 A 
HETATM   24  C15 UNL     1      28.052   5.106  48.424  1.00  0.00     0.100 A 
HETATM   25  C16 UNL     1      27.078   4.470  49.317  1.00  0.00     0.118 A 
HETATM   26  F2  UNL     1      29.296   4.850  47.914  1.00  0.00    -0.213 F 
ENDBRANCH  18  20
ENDBRANCH  16  18
TORSDOF 2
ENDMDL
MODEL 3
REMARK VINA RESULT:      -8.6      2.627      4.118
REMARK  2 active torsions:
REMARK  status: ('A' for Active; 'I' for Inactive)
REMARK    1  A    between atoms: C11_16  and  N4_17 
REMARK    2  A    between atoms: N4_17  and  C12_18 
ROOT
HETATM    1  N1  UNL     1      19.875   2.558  52.652  1.00  0.00    -0.170 NA
HETATM    2  C1  UNL     1      20.758   3.233  52.333  1.00  0.00     0.208 C 
HETATM    3  N2  UNL     1      21.845   4.041  51.955  1.00  0.00    -0.146 NA
HETATM    4  C2  UNL     1      23.029   3.499  52.108  1.00  0.00     0.209 C 
HETATM    5  O1  UNL     1      23.149   2.208  52.616  1.00  0.00    -0.289 OA
HETATM    6  C3  UNL     1      24.257   1.350  52.565  1.00  0.00     0.086 A 
HETATM    7  C4  UNL     1      24.051   0.272  53.424  1.00  0.00     0.041 A 
HETATM    8  C5  UNL     1      25.020  -0.689  53.523  1.00  0.00     0.045 A 
HETATM    9  C6  UNL     1      26.177  -0.562  52.768  1.00  0.00     0.117 A 
HETATM   10  F1  UNL     1      27.157  -1.494  52.842  1.00  0.00    -0.206 F 
HETATM   11  C7  UNL     1      26.355   0.517  51.927  1.00  0.00     0.054 A 
HETATM   12  C8  UNL     1      25.396   1.506  51.802  1.00  0.00    -0.004 A 
HETATM   13  C9  UNL     1      25.836   2.543  50.835  1.00  0.00     0.161 C 
HETATM   14  N3  UNL     1      25.465   3.896  51.277  1.00  0.00    -0.381 N 
HETATM   15  C10 UNL     1      24.171   4.346  51.711  1.00  0.00     0.098 C 
HETATM   16  C11 UNL     1      23.964   5.631  51.764  1.00  0.00     0.121 C 
HETATM   17  H6  UNL     1      26.233   4.629  51.281  1.00  0.00     0.160 HD
ENDROOT
BRANCH  16  18
HETATM   18  N4  UNL     1      24.511   6.924  51.563  1.00  0.00    -0.365 N 
HETATM   19  H8  UNL     1      24.430   7.731  52.238  1.00  0.00     0.165 HD
BRANCH  18  20
HETATM   20  C12 UNL     1      25.241   7.288  50.402  1.00  0.00     0.040 C 
HETATM   21  C13 UNL     1      26.104   6.829  49.455  1.00  0.00     0.053 C 
HETATM   22 CL1  UNL     1      27.106   5.615  48.660  1.00  0.00    -0.086 Cl
HETATM   23  C14 UNL     1      26.270   8.265  49.183  1.00  0.00     0.085 A 
HETATM   24  C15 UNL     1      25.887   9.542  49.223  1.00  0.00     0.100 A 
HETATM   25  C16 UNL     1      24.908   8.591  49.757  1.00  0.00     0.118 A 
HETATM   26  F2  UNL     1      25.992  10.888  48.997  1.00  0.00    -0.213 F 
ENDBRANCH  18  20
ENDBRANCH  16  18
TORSDOF 2
ENDMDL
MODEL 4
REMARK VINA RESULT:      -8.6      4.182      5.847
REMARK  2 active torsions:
REMARK  status: ('A' for Active; 'I' for Inactive)
REMARK    1  A    between atoms: C11_16  and  N4_17 
REMARK    2  A    between atoms: N4_17  and  C12_18 
ROOT
HETATM    1  N1  UNL     1      22.049   2.570  48.254  1.00  0.00    -0.170 NA
HETATM    2  C1  UNL     1      22.722   2.391  49.177  1.00  0.00     0.208 C 
HETATM    3  N2  UNL     1      23.522   2.169  50.312  1.00  0.00    -0.146 NA
HETATM    4  C2  UNL     1      22.918   1.592  51.322  1.00  0.00     0.209 C 
HETATM    5  O1  UNL     1      21.573   1.242  51.229  1.00  0.00    -0.289 OA
HETATM    6  C3  UNL     1      20.841   0.363  52.040  1.00  0.00     0.086 A 
HETATM    7  C4  UNL     1      19.481   0.509  51.777  1.00  0.00     0.041 A 
HETATM    8  C5  UNL     1      18.587  -0.264  52.467  1.00  0.00     0.045 A 
HETATM    9  C6  UNL     1      19.061  -1.167  53.407  1.00  0.00     0.117 A 
HETATM   10  F1  UNL     1      18.204  -1.949  54.108  1.00  0.00    -0.206 F 
HETATM   11  C7  UNL     1      20.414  -1.291  53.648  1.00  0.00     0.054 A 
HETATM   12  C8  UNL     1      21.344  -0.526  52.969  1.00  0.00    -0.004 A 
HETATM   13  C9  UNL     1      22.721  -0.857  53.415  1.00  0.00     0.161 C 
HETATM   14  N3  UNL     1      23.567   0.342  53.512  1.00  0.00    -0.381 N 
HETATM   15  C10 UNL     1      23.756   1.358  52.515  1.00  0.00     0.098 C 
HETATM   16  C11 UNL     1      24.769   2.165  52.657  1.00  0.00     0.121 C 
HETATM   17  H6  UNL     1      24.102   0.481  54.419  1.00  0.00     0.160 HD
ENDROOT
BRANCH  16  18
HETATM   18  N4  UNL     1      25.889   2.527  53.449  1.00  0.00    -0.365 N 
HETATM   19  H8  UNL     1      25.955   3.389  54.054  1.00  0.00     0.165 HD
BRANCH  18  20
HETATM   20  C12 UNL     1      27.076   1.752  53.515  1.00  0.00     0.040 C 
HETATM   21  C13 UNL     1      27.588   0.504  53.340  1.00  0.00     0.053 C 
HETATM   22 CL1  UNL     1      27.515  -1.211  52.932  1.00  0.00    -0.086 Cl
HETATM   23  C14 UNL     1      28.727   1.073  54.076  1.00  0.00     0.085 A 
HETATM   24  C15 UNL     1      29.475   2.080  54.529  1.00  0.00     0.100 A 
HETATM   25  C16 UNL     1      28.370   2.482  53.654  1.00  0.00     0.118 A 
HETATM   26  F2  UNL     1      30.516   2.663  55.202  1.00  0.00    -0.213 F 
ENDBRANCH  18  20
ENDBRANCH  16  18
TORSDOF 2
ENDMDL
MODEL 5
REMARK VINA RESULT:      -8.4      2.724      4.259
REMARK  2 active torsions:
REMARK  status: ('A' for Active; 'I' for Inactive)
REMARK    1  A    between atoms: C11_16  and  N4_17 
REMARK    2  A    between atoms: N4_17  and  C12_18 
ROOT
HETATM    1  N1  UNL     1      19.283   3.176  52.028  1.00  0.00    -0.170 NA
HETATM    2  C1  UNL     1      20.261   3.763  51.838  1.00  0.00     0.208 C 
HETATM    3  N2  UNL     1      21.461   4.463  51.621  1.00  0.00    -0.146 NA
HETATM    4  C2  UNL     1      22.555   3.822  51.954  1.00  0.00     0.209 C 
HETATM    5  O1  UNL     1      22.481   2.537  52.485  1.00  0.00    -0.289 OA
HETATM    6  C3  UNL     1      23.500   1.583  52.609  1.00  0.00     0.086 A 
HETATM    7  C4  UNL     1      23.072   0.547  53.436  1.00  0.00     0.041 A 
HETATM    8  C5  UNL     1      23.924  -0.495  53.687  1.00  0.00     0.045 A 
HETATM    9  C6  UNL     1      25.187  -0.487  53.113  1.00  0.00     0.117 A 
HETATM   10  F1  UNL     1      26.056  -1.501  53.341  1.00  0.00    -0.206 F 
HETATM   11  C7  UNL     1      25.586   0.553  52.299  1.00  0.00     0.054 A 
HETATM   12  C8  UNL     1      24.750   1.620  52.023  1.00  0.00    -0.004 A 
HETATM   13  C9  UNL     1      25.421   2.592  51.124  1.00  0.00     0.161 C 
HETATM   14  N3  UNL     1      25.113   3.982  51.494  1.00  0.00    -0.381 N 
HETATM   15  C10 UNL     1      23.816   4.555  51.725  1.00  0.00     0.098 C 
HETATM   16  C11 UNL     1      23.721   5.854  51.736  1.00  0.00     0.121 C 
HETATM   17  H6  UNL     1      25.936   4.644  51.606  1.00  0.00     0.160 HD
ENDROOT
BRANCH  16  18
HETATM   18  N4  UNL     1      24.407   7.089  51.608  1.00  0.00    -0.365 N 
HETATM   19  H8  UNL     1      24.445   7.844  52.344  1.00  0.00     0.165 HD
BRANCH  18  20
HETATM   20  C12 UNL     1      25.133   7.459  50.445  1.00  0.00     0.040 C 
HETATM   21  C13 UNL     1      26.208   8.159  49.995  1.00  0.00     0.053 C 
HETATM   22 CL1  UNL     1      27.642   9.172  50.167  1.00  0.00    -0.086 Cl
HETATM   23  C14 UNL     1      25.540   7.983  48.697  1.00  0.00     0.085 A 
HETATM   24  C15 UNL     1      24.694   7.381  47.859  1.00  0.00     0.100 A 
HETATM   25  C16 UNL     1      24.809   6.746  49.175  1.00  0.00     0.118 A 
HETATM   26  F2  UNL     1      24.041   7.174  46.673  1.00  0.00    -0.213 F 
ENDBRANCH  18  20
ENDBRANCH  16  18
TORSDOF 2
ENDMDL
MODEL 6
REMARK VINA RESULT:      -8.3      2.458      3.927
REMARK  2 active torsions:
REMARK  status: ('A' for Active; 'I' for Inactive)
REMARK    1  A    between atoms: C11_16  and  N4_17 
REMARK    2  A    between atoms: N4_17  and  C12_18 
ROOT
HETATM    1  N1  UNL     1      21.390   2.325  48.372  1.00  0.00    -0.170 NA
HETATM    2  C1  UNL     1      22.373   2.873  48.639  1.00  0.00     0.208 C 
HETATM    3  N2  UNL     1      23.567   3.531  48.982  1.00  0.00    -0.146 NA
HETATM    4  C2  UNL     1      24.142   3.115  50.085  1.00  0.00     0.209 C 
HETATM    5  O1  UNL     1      23.568   2.089  50.831  1.00  0.00    -0.289 OA
HETATM    6  C3  UNL     1      24.156   1.303  51.832  1.00  0.00     0.086 A 
HETATM    7  C4  UNL     1      23.168   0.589  52.505  1.00  0.00     0.041 A 
HETATM    8  C5  UNL     1      23.534  -0.246  53.526  1.00  0.00     0.045 A 
HETATM    9  C6  UNL     1      24.876  -0.354  53.861  1.00  0.00     0.117 A 
HETATM   10  F1  UNL     1      25.274  -1.170  54.867  1.00  0.00    -0.206 F 
HETATM   11  C7  UNL     1      25.834   0.367  53.178  1.00  0.00     0.054 A 
HETATM   12  C8  UNL     1      25.499   1.218  52.141  1.00  0.00    -0.004 A 
HETATM   13  C9  UNL     1      26.712   1.864  51.581  1.00  0.00     0.161 C 
HETATM   14  N3  UNL     1      26.472   3.273  51.235  1.00  0.00    -0.381 N 
HETATM   15  C10 UNL     1      25.395   3.805  50.448  1.00  0.00     0.098 C 
HETATM   16  C11 UNL     1      25.520   5.020  49.994  1.00  0.00     0.121 C 
HETATM   17  H6  UNL     1      27.167   3.985  51.607  1.00  0.00     0.160 HD
ENDROOT
BRANCH  16  18
HETATM   18  N4  UNL     1      26.337   6.178  49.928  1.00  0.00    -0.365 N 
HETATM   19  H8  UNL     1      26.427   6.905  50.688  1.00  0.00     0.165 HD
BRANCH  18  20
HETATM   20  C12 UNL     1      27.142   6.499  48.804  1.00  0.00     0.040 C 
HETATM   21  C13 UNL     1      28.316   6.222  48.175  1.00  0.00     0.053 C 
HETATM   22 CL1  UNL     1      29.859   5.393  47.962  1.00  0.00    -0.086 Cl
HETATM   23  C14 UNL     1      28.001   7.462  47.450  1.00  0.00     0.085 A 
HETATM   24  C15 UNL     1      27.175   8.411  47.007  1.00  0.00     0.100 A 
HETATM   25  C16 UNL     1      26.519   7.311  47.719  1.00  0.00     0.118 A 
HETATM   26  F2  UNL     1      26.827   9.560  46.348  1.00  0.00    -0.213 F 
ENDBRANCH  18  20
ENDBRANCH  16  18
TORSDOF 2
ENDMDL
MODEL 7
REMARK VINA RESULT:      -8.1      2.892      4.409
REMARK  2 active torsions:
REMARK  status: ('A' for Active; 'I' for Inactive)
REMARK    1  A    between atoms: C11_16  and  N4_17 
REMARK    2  A    between atoms: N4_17  and  C12_18 
ROOT
HETATM    1  N1  UNL     1      20.293   1.025  51.956  1.00  0.00    -0.170 NA
HETATM    2  C1  UNL     1      21.035   1.900  51.809  1.00  0.00     0.208 C 
HETATM    3  N2  UNL     1      21.952   2.953  51.643  1.00  0.00    -0.146 NA
HETATM    4  C2  UNL     1      23.196   2.668  51.943  1.00  0.00     0.209 C 
HETATM    5  O1  UNL     1      23.535   1.395  52.393  1.00  0.00    -0.289 OA
HETATM    6  C3  UNL     1      24.804   0.803  52.464  1.00  0.00     0.086 A 
HETATM    7  C4  UNL     1      24.733  -0.363  53.222  1.00  0.00     0.041 A 
HETATM    8  C5  UNL     1      25.872  -1.098  53.414  1.00  0.00     0.045 A 
HETATM    9  C6  UNL     1      27.061  -0.659  52.850  1.00  0.00     0.117 A 
HETATM   10  F1  UNL     1      28.208  -1.362  53.020  1.00  0.00    -0.206 F 
HETATM   11  C7  UNL     1      27.103   0.501  52.105  1.00  0.00     0.054 A 
HETATM   12  C8  UNL     1      25.972   1.266  51.890  1.00  0.00    -0.004 A 
HETATM   13  C9  UNL     1      26.292   2.453  51.058  1.00  0.00     0.161 C 
HETATM   14  N3  UNL     1      25.568   3.651  51.511  1.00  0.00    -0.381 N 
HETATM   15  C10 UNL     1      24.160   3.772  51.769  1.00  0.00     0.098 C 
HETATM   16  C11 UNL     1      23.663   4.973  51.860  1.00  0.00     0.121 C 
HETATM   17  H6  UNL     1      26.144   4.529  51.670  1.00  0.00     0.160 HD
ENDROOT
BRANCH  16  18
HETATM   18  N4  UNL     1      23.925   6.366  51.813  1.00  0.00    -0.365 N 
HETATM   19  H8  UNL     1      23.903   7.018  52.642  1.00  0.00     0.165 HD
BRANCH  18  20
HETATM   20  C12 UNL     1      24.250   7.056  50.616  1.00  0.00     0.040 C 
HETATM   21  C13 UNL     1      23.796   7.965  49.712  1.00  0.00     0.053 C 
HETATM   22 CL1  UNL     1      22.633   9.111  49.042  1.00  0.00    -0.086 Cl
HETATM   23  C14 UNL     1      24.909   7.438  48.908  1.00  0.00     0.085 A 
HETATM   24  C15 UNL     1      26.074   6.809  48.746  1.00  0.00     0.100 A 
HETATM   25  C16 UNL     1      25.662   6.987  50.141  1.00  0.00     0.118 A 
HETATM   26  F2  UNL     1      27.134   6.297  48.046  1.00  0.00    -0.213 F 
ENDBRANCH  18  20
ENDBRANCH  16  18
TORSDOF 2
ENDMDL
MODEL 8
REMARK VINA RESULT:      -8.1      2.917      4.444
REMARK  2 active torsions:
REMARK  status: ('A' for Active; 'I' for Inactive)
REMARK    1  A    between atoms: C11_16  and  N4_17 
REMARK    2  A    between atoms: N4_17  and  C12_18 
ROOT
HETATM    1  N1  UNL     1      21.470  -0.475  53.709  1.00  0.00    -0.170 NA
HETATM    2  C1  UNL     1      21.811   0.527  53.244  1.00  0.00     0.208 C 
HETATM    3  N2  UNL     1      22.245   1.745  52.690  1.00  0.00    -0.146 NA
HETATM    4  C2  UNL     1      23.521   2.007  52.837  1.00  0.00     0.209 C 
HETATM    5  O1  UNL     1      24.349   1.110  53.505  1.00  0.00    -0.289 OA
HETATM    6  C3  UNL     1      25.750   1.043  53.499  1.00  0.00     0.086 A 
HETATM    7  C4  UNL     1      26.180   0.183  54.506  1.00  0.00     0.041 A 
HETATM    8  C5  UNL     1      27.523  -0.024  54.670  1.00  0.00     0.045 A 
HETATM    9  C6  UNL     1      28.414   0.630  53.831  1.00  0.00     0.117 A 
HETATM   10  F1  UNL     1      29.750   0.448  53.966  1.00  0.00    -0.206 F 
HETATM   11  C7  UNL     1      27.960   1.477  52.842  1.00  0.00     0.054 A 
HETATM   12  C8  UNL     1      26.610   1.708  52.648  1.00  0.00    -0.004 A 
HETATM   13  C9  UNL     1      26.397   2.653  51.523  1.00  0.00     0.161 C 
HETATM   14  N3  UNL     1      25.304   3.598  51.802  1.00  0.00    -0.381 N 
HETATM   15  C10 UNL     1      23.977   3.285  52.255  1.00  0.00     0.098 C 
HETATM   16  C11 UNL     1      23.068   4.211  52.148  1.00  0.00     0.121 C 
HETATM   17  H6  UNL     1      25.511   4.629  51.656  1.00  0.00     0.160 HD
ENDROOT
BRANCH  16  18
HETATM   18  N4  UNL     1      22.775   5.538  51.739  1.00  0.00    -0.365 N 
HETATM   19  H8  UNL     1      22.081   6.180  52.206  1.00  0.00     0.165 HD
BRANCH  18  20
HETATM   20  C12 UNL     1      23.395   6.162  50.625  1.00  0.00     0.040 C 
HETATM   21  C13 UNL     1      23.395   6.243  49.267  1.00  0.00     0.053 C 
HETATM   22 CL1  UNL     1      22.833   5.848  47.642  1.00  0.00    -0.086 Cl
HETATM   23  C14 UNL     1      24.689   6.903  49.496  1.00  0.00     0.085 A 
HETATM   24  C15 UNL     1      25.581   7.561  50.237  1.00  0.00     0.100 A 
HETATM   25  C16 UNL     1      24.294   7.321  50.896  1.00  0.00     0.118 A 
HETATM   26  F2  UNL     1      26.771   8.185  50.505  1.00  0.00    -0.213 F 
ENDBRANCH  18  20
ENDBRANCH  16  18
TORSDOF 2
ENDMDL
MODEL 9
REMARK VINA RESULT:      -8.0      5.636      9.342
REMARK  2 active torsions:
REMARK  status: ('A' for Active; 'I' for Inactive)
REMARK    1  A    between atoms: C11_16  and  N4_17 
REMARK    2  A    between atoms: N4_17  and  C12_18 
ROOT
HETATM    1  N1  UNL     1      20.803   3.816  51.975  1.00  0.00    -0.170 NA
HETATM    2  C1  UNL     1      20.585   2.802  52.488  1.00  0.00     0.208 C 
HETATM    3  N2  UNL     1      20.339   1.563  53.104  1.00  0.00    -0.146 NA
HETATM    4  C2  UNL     1      21.368   0.753  53.171  1.00  0.00     0.209 C 
HETATM    5  O1  UNL     1      22.600   1.141  52.653  1.00  0.00    -0.289 OA
HETATM    6  C3  UNL     1      23.864   0.582  52.893  1.00  0.00     0.086 A 
HETATM    7  C4  UNL     1      24.780   1.088  51.973  1.00  0.00     0.041 A 
HETATM    8  C5  UNL     1      26.081   0.668  52.036  1.00  0.00     0.045 A 
HETATM    9  C6  UNL     1      26.447  -0.249  53.011  1.00  0.00     0.117 A 
HETATM   10  F1  UNL     1      27.727  -0.687  53.101  1.00  0.00    -0.206 F 
HETATM   11  C7  UNL     1      25.519  -0.734  53.908  1.00  0.00     0.054 A 
HETATM   12  C8  UNL     1      24.197  -0.330  53.874  1.00  0.00    -0.004 A 
HETATM   13  C9  UNL     1      23.417  -0.999  54.944  1.00  0.00     0.161 C 
HETATM   14  N3  UNL     1      22.073  -1.382  54.485  1.00  0.00    -0.381 N 
HETATM   15  C10 UNL     1      21.111  -0.549  53.817  1.00  0.00     0.098 C 
HETATM   16  C11 UNL     1      19.879  -0.967  53.769  1.00  0.00     0.121 C 
HETATM   17  H6  UNL     1      21.771  -2.385  54.661  1.00  0.00     0.160 HD
ENDROOT
BRANCH  16  18
HETATM   18  N4  UNL     1      18.965  -1.995  54.120  1.00  0.00    -0.365 N 
HETATM   19  H8  UNL     1      19.074  -2.654  54.936  1.00  0.00     0.165 HD
BRANCH  18  20
HETATM   20  C12 UNL     1      17.776  -2.259  53.392  1.00  0.00     0.040 C 
HETATM   21  C13 UNL     1      16.844  -1.709  52.568  1.00  0.00     0.053 C 
HETATM   22 CL1  UNL     1      16.115  -0.413  51.619  1.00  0.00    -0.086 Cl
HETATM   23  C14 UNL     1      16.093  -2.924  52.919  1.00  0.00     0.085 A 
HETATM   24  C15 UNL     1      15.985  -4.178  53.360  1.00  0.00     0.100 A 
HETATM   25  C16 UNL     1      17.360  -3.684  53.244  1.00  0.00     0.118 A 
HETATM   26  F2  UNL     1      15.335  -5.333  53.704  1.00  0.00    -0.213 F 
ENDBRANCH  18  20
ENDBRANCH  16  18
TORSDOF 2
ENDMDL
