MODEL 1
REMARK VINA RESULT:      -8.4      0.000      0.000
REMARK  5 active torsions:
REMARK  status: ('A' for Active; 'I' for Inactive)
REMARK    1  A    between atoms: N1_2  and  C1_3 
REMARK    2  A    between atoms: C11_15  and  C12_16 
REMARK    3  A    between atoms: C12_16  and  C13_17 
REMARK    4  A    between atoms: C13_17  and  C14_18 
REMARK    5  A    between atoms: C14_18  and  O2_19 
ROOT
HETATM    1  C1  UNL     1      29.134   0.432  53.403  1.00  0.00     0.172 C 
HETATM    2  C2  UNL     1      29.303   1.727  54.126  1.00  0.00     0.039 C 
HETATM    3  C3  UNL     1      28.109   2.525  53.671  1.00  0.00     0.042 C 
HETATM    4  C4  UNL     1      27.055   1.516  53.413  1.00  0.00    -0.049 A 
HETATM    5  C5  UNL     1      25.668   1.552  53.304  1.00  0.00     0.020 A 
HETATM    6  C6  UNL     1      24.929   0.391  53.046  1.00  0.00    -0.024 A 
HETATM    7  C7  UNL     1      23.542   0.655  52.937  1.00  0.00    -0.007 A 
HETATM    8  C8  UNL     1      22.378   1.266  52.510  1.00  0.00     0.091 A 
HETATM    9  N2  UNL     1      21.217   0.799  52.998  1.00  0.00    -0.216 NA
HETATM   10  N3  UNL     1      21.463  -0.183  53.811  1.00  0.00     0.000 N 
HETATM   11  C9  UNL     1      22.806  -0.240  53.754  1.00  0.00    -0.033 A 
HETATM   12  C10 UNL     1      22.325  -1.321  54.705  1.00  0.00     0.035 A 
HETATM   13  C11 UNL     1      20.970  -1.048  54.573  1.00  0.00     0.021 A 
HETATM   14  C12 UNL     1      20.262   0.024  53.744  1.00  0.00     0.087 A 
HETATM   15  C15 UNL     1      25.526  -0.833  52.891  1.00  0.00     0.013 A 
HETATM   16  C16 UNL     1      26.891  -0.800  53.009  1.00  0.00     0.011 A 
HETATM   17  C17 UNL     1      27.649   0.301  53.257  1.00  0.00    -0.025 A 
ENDROOT
BRANCH  14  18
HETATM   18  C13 UNL     1      19.430  -0.767  52.726  1.00  0.00     0.048 C 
BRANCH  18  19
HETATM   19  C14 UNL     1      17.969  -0.517  52.892  1.00  0.00     0.165 C 
BRANCH  19  20
HETATM   20  O2  UNL     1      17.478  -1.248  53.979  1.00  0.00    -0.401 OA
HETATM   21  H15 UNL     1      17.135  -0.639  54.691  1.00  0.00     0.209 HD
ENDBRANCH  19  20
ENDBRANCH  18  19
ENDBRANCH  14  18
BRANCH   1  22
HETATM   22  N1  UNL     1      29.665  -0.615  54.239  1.00  0.00    -0.131 NA
HETATM   23  O1  UNL     1      30.181  -1.608  53.824  1.00  0.00    -0.066 OA
ENDBRANCH   1  22
TORSDOF 5
ENDMDL
MODEL 2
REMARK VINA RESULT:      -8.2      2.065      7.795
REMARK  5 active torsions:
REMARK  status: ('A' for Active; 'I' for Inactive)
REMARK    1  A    between atoms: N1_2  and  C1_3 
REMARK    2  A    between atoms: C11_15  and  C12_16 
REMARK    3  A    between atoms: C12_16  and  C13_17 
REMARK    4  A    between atoms: C13_17  and  C14_18 
REMARK    5  A    between atoms: C14_18  and  O2_19 
ROOT
HETATM    1  C1  UNL     1      18.470  -0.929  53.340  1.00  0.00     0.172 C 
HETATM    2  C2  UNL     1      18.099  -0.531  51.950  1.00  0.00     0.039 C 
HETATM    3  C3  UNL     1      19.001   0.647  51.685  1.00  0.00     0.042 C 
HETATM    4  C4  UNL     1      20.218   0.379  52.486  1.00  0.00    -0.049 A 
HETATM    5  C5  UNL     1      21.531   0.842  52.460  1.00  0.00     0.020 A 
HETATM    6  C6  UNL     1      22.481   0.384  53.380  1.00  0.00    -0.024 A 
HETATM    7  C7  UNL     1      23.740   1.007  53.203  1.00  0.00    -0.007 A 
HETATM    8  C8  UNL     1      24.661   2.026  53.042  1.00  0.00     0.091 A 
HETATM    9  N2  UNL     1      25.953   1.681  52.921  1.00  0.00    -0.216 NA
HETATM   10  N3  UNL     1      26.056   0.388  52.987  1.00  0.00     0.000 N 
HETATM   11  C9  UNL     1      24.768   0.032  53.148  1.00  0.00    -0.033 A 
HETATM   12  C10 UNL     1      25.611  -1.230  53.132  1.00  0.00     0.035 A 
HETATM   13  C11 UNL     1      26.834  -0.593  52.967  1.00  0.00     0.021 A 
HETATM   14  C12 UNL     1      27.155   0.895  52.827  1.00  0.00     0.087 A 
HETATM   15  C15 UNL     1      22.173  -0.537  54.348  1.00  0.00     0.013 A 
HETATM   16  C16 UNL     1      20.867  -0.951  54.320  1.00  0.00     0.011 A 
HETATM   17  C17 UNL     1      19.912  -0.534  53.447  1.00  0.00    -0.025 A 
ENDROOT
BRANCH  14  18
HETATM   18  C13 UNL     1      28.005   1.222  54.060  1.00  0.00     0.048 C 
BRANCH  18  19
HETATM   19  C14 UNL     1      28.999   2.297  53.777  1.00  0.00     0.165 C 
BRANCH  19  20
HETATM   20  O2  UNL     1      28.600   3.038  52.659  1.00  0.00    -0.401 OA
HETATM   21  H15 UNL     1      27.963   3.760  52.920  1.00  0.00     0.209 HD
ENDBRANCH  19  20
ENDBRANCH  18  19
ENDBRANCH  14  18
BRANCH   1  22
HETATM   22  N1  UNL     1      18.316  -2.357  53.448  1.00  0.00    -0.131 NA
HETATM   23  O1  UNL     1      17.264  -2.920  53.452  1.00  0.00    -0.066 OA
ENDBRANCH   1  22
TORSDOF 5
ENDMDL
MODEL 3
REMARK VINA RESULT:      -8.2      2.779      7.531
REMARK  5 active torsions:
REMARK  status: ('A' for Active; 'I' for Inactive)
REMARK    1  A    between atoms: N1_2  and  C1_3 
REMARK    2  A    between atoms: C11_15  and  C12_16 
REMARK    3  A    between atoms: C12_16  and  C13_17 
REMARK    4  A    between atoms: C13_17  and  C14_18 
REMARK    5  A    between atoms: C14_18  and  O2_19 
ROOT
HETATM    1  C1  UNL     1      20.988   3.027  51.140  1.00  0.00     0.172 C 
HETATM    2  C2  UNL     1      20.170   2.878  52.380  1.00  0.00     0.039 C 
HETATM    3  C3  UNL     1      20.689   1.594  52.973  1.00  0.00     0.042 C 
HETATM    4  C4  UNL     1      22.108   1.529  52.555  1.00  0.00    -0.049 A 
HETATM    5  C5  UNL     1      23.231   0.836  52.998  1.00  0.00     0.020 A 
HETATM    6  C6  UNL     1      24.475   0.992  52.373  1.00  0.00    -0.024 A 
HETATM    7  C7  UNL     1      25.471   0.170  52.955  1.00  0.00    -0.007 A 
HETATM    8  C8  UNL     1      26.070  -0.975  53.444  1.00  0.00     0.091 A 
HETATM    9  N2  UNL     1      27.321  -0.866  53.921  1.00  0.00    -0.216 NA
HETATM   10  N3  UNL     1      27.712   0.367  53.808  1.00  0.00     0.000 N 
HETATM   11  C9  UNL     1      26.628   0.936  53.250  1.00  0.00    -0.033 A 
HETATM   12  C10 UNL     1      27.683   2.009  53.436  1.00  0.00     0.035 A 
HETATM   13  C11 UNL     1      28.647   1.180  53.996  1.00  0.00     0.021 A 
HETATM   14  C12 UNL     1      28.588  -0.313  54.317  1.00  0.00     0.087 A 
HETATM   15  C15 UNL     1      24.652   1.829  51.302  1.00  0.00     0.013 A 
HETATM   16  C16 UNL     1      23.509   2.481  50.916  1.00  0.00     0.011 A 
HETATM   17  C17 UNL     1      22.283   2.359  51.491  1.00  0.00    -0.025 A 
ENDROOT
BRANCH  14  18
HETATM   18  C13 UNL     1      29.657  -0.941  53.415  1.00  0.00     0.048 C 
BRANCH  18  19
HETATM   19  C14 UNL     1      29.988  -2.333  53.836  1.00  0.00     0.165 C 
BRANCH  19  20
HETATM   20  O2  UNL     1      28.960  -3.205  53.461  1.00  0.00    -0.401 OA
HETATM   21  H15 UNL     1      28.200  -3.157  54.105  1.00  0.00     0.209 HD
ENDBRANCH  19  20
ENDBRANCH  18  19
ENDBRANCH  14  18
BRANCH   1  22
HETATM   22  N1  UNL     1      21.180   4.435  50.902  1.00  0.00    -0.131 NA
HETATM   23  O1  UNL     1      21.536   5.213  51.734  1.00  0.00    -0.066 OA
ENDBRANCH   1  22
TORSDOF 5
ENDMDL
MODEL 4
REMARK VINA RESULT:      -7.8      2.113      3.435
REMARK  5 active torsions:
REMARK  status: ('A' for Active; 'I' for Inactive)
REMARK    1  A    between atoms: N1_2  and  C1_3 
REMARK    2  A    between atoms: C11_15  and  C12_16 
REMARK    3  A    between atoms: C12_16  and  C13_17 
REMARK    4  A    between atoms: C13_17  and  C14_18 
REMARK    5  A    between atoms: C14_18  and  O2_19 
ROOT
HETATM    1  C1  UNL     1      26.581   1.281  53.547  1.00  0.00     0.172 C 
HETATM    2  C2  UNL     1      27.045  -0.138  53.504  1.00  0.00     0.039 C 
HETATM    3  C3  UNL     1      25.851  -0.898  54.019  1.00  0.00     0.042 C 
HETATM    4  C4  UNL     1      24.680  -0.091  53.604  1.00  0.00    -0.049 A 
HETATM    5  C5  UNL     1      23.320  -0.343  53.446  1.00  0.00     0.020 A 
HETATM    6  C6  UNL     1      22.439   0.660  53.028  1.00  0.00    -0.024 A 
HETATM    7  C7  UNL     1      21.100   0.204  52.969  1.00  0.00    -0.007 A 
HETATM    8  C8  UNL     1      19.924  -0.395  53.383  1.00  0.00     0.091 A 
HETATM    9  N2  UNL     1      18.891  -0.391  52.526  1.00  0.00    -0.216 NA
HETATM   10  N3  UNL     1      19.247   0.212  51.433  1.00  0.00     0.000 N 
HETATM   11  C9  UNL     1      20.520   0.542  51.719  1.00  0.00    -0.033 A 
HETATM   12  C10 UNL     1      20.205   1.040  50.321  1.00  0.00     0.035 A 
HETATM   13  C11 UNL     1      18.891   0.590  50.293  1.00  0.00     0.021 A 
HETATM   14  C12 UNL     1      18.093  -0.175  51.348  1.00  0.00     0.087 A 
HETATM   15  C15 UNL     1      22.864   1.934  52.751  1.00  0.00     0.013 A 
HETATM   16  C16 UNL     1      24.211   2.117  52.926  1.00  0.00     0.011 A 
HETATM   17  C17 UNL     1      25.102   1.174  53.331  1.00  0.00    -0.025 A 
ENDROOT
BRANCH  14  18
HETATM   18  C13 UNL     1      16.961   0.783  51.740  1.00  0.00     0.048 C 
BRANCH  18  19
HETATM   19  C14 UNL     1      15.738   0.046  52.173  1.00  0.00     0.165 C 
BRANCH  19  20
HETATM   20  O2  UNL     1      15.960  -0.566  53.412  1.00  0.00    -0.401 OA
HETATM   21  H15 UNL     1      16.793  -0.218  53.837  1.00  0.00     0.209 HD
ENDBRANCH  19  20
ENDBRANCH  18  19
ENDBRANCH  14  18
BRANCH   1  22
HETATM   22  N1  UNL     1      27.213   1.987  52.461  1.00  0.00    -0.131 NA
HETATM   23  O1  UNL     1      28.287   2.502  52.531  1.00  0.00    -0.066 OA
ENDBRANCH   1  22
TORSDOF 5
ENDMDL
MODEL 5
REMARK VINA RESULT:      -7.7      2.967      3.937
REMARK  5 active torsions:
REMARK  status: ('A' for Active; 'I' for Inactive)
REMARK    1  A    between atoms: N1_2  and  C1_3 
REMARK    2  A    between atoms: C11_15  and  C12_16 
REMARK    3  A    between atoms: C12_16  and  C13_17 
REMARK    4  A    between atoms: C13_17  and  C14_18 
REMARK    5  A    between atoms: C14_18  and  O2_19 
ROOT
HETATM    1  C1  UNL     1      28.433   0.595  54.502  1.00  0.00     0.172 C 
HETATM    2  C2  UNL     1      28.964  -0.489  53.624  1.00  0.00     0.039 C 
HETATM    3  C3  UNL     1      27.712  -1.129  53.084  1.00  0.00     0.042 C 
HETATM    4  C4  UNL     1      26.718  -0.031  53.030  1.00  0.00    -0.049 A 
HETATM    5  C5  UNL     1      25.520   0.175  52.354  1.00  0.00     0.020 A 
HETATM    6  C6  UNL     1      24.786   1.357  52.518  1.00  0.00    -0.024 A 
HETATM    7  C7  UNL     1      23.584   1.347  51.770  1.00  0.00    -0.007 A 
HETATM    8  C8  UNL     1      22.375   0.885  51.282  1.00  0.00     0.091 A 
HETATM    9  N2  UNL     1      21.713   1.673  50.419  1.00  0.00    -0.216 NA
HETATM   10  N3  UNL     1      22.398   2.760  50.225  1.00  0.00     0.000 N 
HETATM   11  C9  UNL     1      23.465   2.541  51.014  1.00  0.00    -0.033 A 
HETATM   12  C10 UNL     1      23.637   3.894  50.350  1.00  0.00     0.035 A 
HETATM   13  C11 UNL     1      22.447   3.864  49.634  1.00  0.00     0.021 A 
HETATM   14  C12 UNL     1      21.373   2.778  49.563  1.00  0.00     0.087 A 
HETATM   15  C15 UNL     1      25.207   2.366  53.345  1.00  0.00     0.013 A 
HETATM   16  C16 UNL     1      26.392   2.100  53.981  1.00  0.00     0.011 A 
HETATM   17  C17 UNL     1      27.135   0.969  53.853  1.00  0.00    -0.025 A 
ENDROOT
BRANCH  14  18
HETATM   18  C13 UNL     1      20.121   3.438  50.155  1.00  0.00     0.048 C 
BRANCH  18  19
HETATM   19  C14 UNL     1      18.895   3.095  49.378  1.00  0.00     0.165 C 
BRANCH  19  20
HETATM   20  O2  UNL     1      19.156   2.023  48.517  1.00  0.00    -0.401 OA
HETATM   21  H15 UNL     1      18.416   1.907  47.859  1.00  0.00     0.209 HD
ENDBRANCH  19  20
ENDBRANCH  18  19
ENDBRANCH  14  18
BRANCH   1  22
HETATM   22  N1  UNL     1      29.365   1.693  54.464  1.00  0.00    -0.131 NA
HETATM   23  O1  UNL     1      29.700   2.322  55.422  1.00  0.00    -0.066 OA
ENDBRANCH   1  22
TORSDOF 5
ENDMDL
MODEL 6
REMARK VINA RESULT:      -7.7      2.405      8.382
REMARK  5 active torsions:
REMARK  status: ('A' for Active; 'I' for Inactive)
REMARK    1  A    between atoms: N1_2  and  C1_3 
REMARK    2  A    between atoms: C11_15  and  C12_16 
REMARK    3  A    between atoms: C12_16  and  C13_17 
REMARK    4  A    between atoms: C13_17  and  C14_18 
REMARK    5  A    between atoms: C14_18  and  O2_19 
ROOT
HETATM    1  C1  UNL     1      17.099  -0.401  51.399  1.00  0.00     0.172 C 
HETATM    2  C2  UNL     1      16.633  -0.724  52.780  1.00  0.00     0.039 C 
HETATM    3  C3  UNL     1      17.859  -1.324  53.417  1.00  0.00     0.042 C 
HETATM    4  C4  UNL     1      19.000  -0.656  52.748  1.00  0.00    -0.049 A 
HETATM    5  C5  UNL     1      20.346  -0.474  53.052  1.00  0.00     0.020 A 
HETATM    6  C6  UNL     1      21.197   0.227  52.189  1.00  0.00    -0.024 A 
HETATM    7  C7  UNL     1      22.530   0.263  52.668  1.00  0.00    -0.007 A 
HETATM    8  C8  UNL     1      23.730  -0.203  53.172  1.00  0.00     0.091 A 
HETATM    9  N2  UNL     1      24.704   0.696  53.386  1.00  0.00    -0.216 NA
HETATM   10  N3  UNL     1      24.275   1.875  53.051  1.00  0.00     0.000 N 
HETATM   11  C9  UNL     1      23.024   1.592  52.643  1.00  0.00    -0.033 A 
HETATM   12  C10 UNL     1      23.246   3.086  52.493  1.00  0.00     0.035 A 
HETATM   13  C11 UNL     1      24.554   3.093  52.958  1.00  0.00     0.021 A 
HETATM   14  C12 UNL     1      25.421   1.940  53.465  1.00  0.00     0.087 A 
HETATM   15  C15 UNL     1      20.755   0.768  51.010  1.00  0.00     0.013 A 
HETATM   16  C16 UNL     1      19.423   0.554  50.770  1.00  0.00     0.011 A 
HETATM   17  C17 UNL     1      18.560  -0.120  51.577  1.00  0.00    -0.025 A 
ENDROOT
BRANCH  14  18
HETATM   18  C13 UNL     1      26.577   1.860  52.460  1.00  0.00     0.048 C 
BRANCH  18  19
HETATM   19  C14 UNL     1      27.904   1.878  53.141  1.00  0.00     0.165 C 
BRANCH  19  20
HETATM   20  O2  UNL     1      27.918   2.858  54.140  1.00  0.00    -0.401 OA
HETATM   21  H15 UNL     1      27.009   2.976  54.535  1.00  0.00     0.209 HD
ENDBRANCH  19  20
ENDBRANCH  18  19
ENDBRANCH  14  18
BRANCH   1  22
HETATM   22  N1  UNL     1      16.397   0.778  50.958  1.00  0.00    -0.131 NA
HETATM   23  O1  UNL     1      16.140   1.707  51.661  1.00  0.00    -0.066 OA
ENDBRANCH   1  22
TORSDOF 5
ENDMDL
MODEL 7
REMARK VINA RESULT:      -7.6      4.239      7.532
REMARK  5 active torsions:
REMARK  status: ('A' for Active; 'I' for Inactive)
REMARK    1  A    between atoms: N1_2  and  C1_3 
REMARK    2  A    between atoms: C11_15  and  C12_16 
REMARK    3  A    between atoms: C12_16  and  C13_17 
REMARK    4  A    between atoms: C13_17  and  C14_18 
REMARK    5  A    between atoms: C14_18  and  O2_19 
ROOT
HETATM    1  C1  UNL     1      21.638  -1.376  53.630  1.00  0.00     0.172 C 
HETATM    2  C2  UNL     1      22.382  -1.376  54.924  1.00  0.00     0.039 C 
HETATM    3  C3  UNL     1      23.751  -0.889  54.525  1.00  0.00     0.042 C 
HETATM    4  C4  UNL     1      23.511   0.010  53.372  1.00  0.00    -0.049 A 
HETATM    5  C5  UNL     1      24.237   1.021  52.748  1.00  0.00     0.020 A 
HETATM    6  C6  UNL     1      23.723   1.708  51.642  1.00  0.00    -0.024 A 
HETATM    7  C7  UNL     1      24.635   2.667  51.139  1.00  0.00    -0.007 A 
HETATM    8  C8  UNL     1      25.827   3.191  50.674  1.00  0.00     0.091 A 
HETATM    9  N2  UNL     1      25.841   4.486  50.320  1.00  0.00    -0.216 NA
HETATM   10  N3  UNL     1      24.657   4.988  50.504  1.00  0.00     0.000 N 
HETATM   11  C9  UNL     1      23.989   3.919  50.974  1.00  0.00    -0.033 A 
HETATM   12  C10 UNL     1      23.027   5.091  50.916  1.00  0.00     0.035 A 
HETATM   13  C11 UNL     1      23.939   6.011  50.414  1.00  0.00     0.021 A 
HETATM   14  C12 UNL     1      25.421   5.840  50.078  1.00  0.00     0.087 A 
HETATM   15  C15 UNL     1      22.488   1.425  51.118  1.00  0.00     0.013 A 
HETATM   16  C16 UNL     1      21.827   0.421  51.776  1.00  0.00     0.011 A 
HETATM   17  C17 UNL     1      22.286  -0.273  52.851  1.00  0.00    -0.025 A 
ENDROOT
BRANCH  14  18
HETATM   18  C13 UNL     1      25.499   6.073  48.564  1.00  0.00     0.048 C 
BRANCH  18  19
HETATM   19  C14 UNL     1      26.700   6.873  48.189  1.00  0.00     0.165 C 
BRANCH  19  20
HETATM   20  O2  UNL     1      27.574   6.967  49.278  1.00  0.00    -0.401 OA
HETATM   21  H15 UNL     1      27.511   6.156  49.855  1.00  0.00     0.209 HD
ENDBRANCH  19  20
ENDBRANCH  18  19
ENDBRANCH  14  18
BRANCH   1  22
HETATM   22  N1  UNL     1      20.259  -1.068  53.913  1.00  0.00    -0.131 NA
HETATM   23  O1  UNL     1      19.359  -1.842  53.786  1.00  0.00    -0.066 OA
ENDBRANCH   1  22
TORSDOF 5
ENDMDL
MODEL 8
REMARK VINA RESULT:      -7.3      5.312      6.725
REMARK  5 active torsions:
REMARK  status: ('A' for Active; 'I' for Inactive)
REMARK    1  A    between atoms: N1_2  and  C1_3 
REMARK    2  A    between atoms: C11_15  and  C12_16 
REMARK    3  A    between atoms: C12_16  and  C13_17 
REMARK    4  A    between atoms: C13_17  and  C14_18 
REMARK    5  A    between atoms: C14_18  and  O2_19 
ROOT
HETATM    1  C1  UNL     1      26.444  -0.594  53.779  1.00  0.00     0.172 C 
HETATM    2  C2  UNL     1      27.713  -0.136  54.419  1.00  0.00     0.039 C 
HETATM    3  C3  UNL     1      28.349   0.705  53.343  1.00  0.00     0.042 C 
HETATM    4  C4  UNL     1      27.210   1.272  52.583  1.00  0.00    -0.049 A 
HETATM    5  C5  UNL     1      27.048   2.350  51.718  1.00  0.00     0.020 A 
HETATM    6  C6  UNL     1      25.806   2.638  51.140  1.00  0.00    -0.024 A 
HETATM    7  C7  UNL     1      25.868   3.749  50.265  1.00  0.00    -0.007 A 
HETATM    8  C8  UNL     1      26.323   4.554  49.237  1.00  0.00     0.091 A 
HETATM    9  N2  UNL     1      25.667   5.705  49.014  1.00  0.00    -0.216 NA
HETATM   10  N3  UNL     1      24.692   5.810  49.865  1.00  0.00     0.000 N 
HETATM   11  C9  UNL     1      24.835   4.672  50.569  1.00  0.00    -0.033 A 
HETATM   12  C10 UNL     1      23.651   5.434  51.134  1.00  0.00     0.035 A 
HETATM   13  C11 UNL     1      23.729   6.508  50.258  1.00  0.00     0.021 A 
HETATM   14  C12 UNL     1      24.724   6.785  49.131  1.00  0.00     0.087 A 
HETATM   15  C15 UNL     1      24.691   1.881  51.395  1.00  0.00     0.013 A 
HETATM   16  C16 UNL     1      24.918   0.836  52.253  1.00  0.00     0.011 A 
HETATM   17  C17 UNL     1      26.105   0.519  52.835  1.00  0.00    -0.025 A 
ENDROOT
BRANCH  14  18
HETATM   18  C13 UNL     1      23.871   6.780  47.857  1.00  0.00     0.048 C 
BRANCH  18  19
HETATM   19  C14 UNL     1      24.303   7.837  46.898  1.00  0.00     0.165 C 
BRANCH  19  20
HETATM   20  O2  UNL     1      25.688   8.022  46.979  1.00  0.00    -0.401 OA
HETATM   21  H15 UNL     1      26.050   7.630  47.822  1.00  0.00     0.209 HD
ENDBRANCH  19  20
ENDBRANCH  18  19
ENDBRANCH  14  18
BRANCH   1  22
HETATM   22  N1  UNL     1      25.447  -0.718  54.812  1.00  0.00    -0.131 NA
HETATM   23  O1  UNL     1      25.695  -0.871  55.969  1.00  0.00    -0.066 OA
ENDBRANCH   1  22
TORSDOF 5
ENDMDL
MODEL 9
REMARK VINA RESULT:      -7.2      4.770      5.480
REMARK  5 active torsions:
REMARK  status: ('A' for Active; 'I' for Inactive)
REMARK    1  A    between atoms: N1_2  and  C1_3 
REMARK    2  A    between atoms: C11_15  and  C12_16 
REMARK    3  A    between atoms: C12_16  and  C13_17 
REMARK    4  A    between atoms: C13_17  and  C14_18 
REMARK    5  A    between atoms: C14_18  and  O2_19 
ROOT
HETATM    1  C1  UNL     1      27.557   6.208  48.271  1.00  0.00     0.172 C 
HETATM    2  C2  UNL     1      27.173   7.462  48.985  1.00  0.00     0.039 C 
HETATM    3  C3  UNL     1      25.767   7.172  49.442  1.00  0.00     0.042 C 
HETATM    4  C4  UNL     1      25.733   5.707  49.657  1.00  0.00    -0.049 A 
HETATM    5  C5  UNL     1      24.909   4.838  50.367  1.00  0.00     0.020 A 
HETATM    6  C6  UNL     1      25.143   3.458  50.375  1.00  0.00    -0.024 A 
HETATM    7  C7  UNL     1      24.168   2.756  51.125  1.00  0.00    -0.007 A 
HETATM    8  C8  UNL     1      22.916   2.357  51.555  1.00  0.00     0.091 A 
HETATM    9  N2  UNL     1      22.860   1.430  52.525  1.00  0.00    -0.216 NA
HETATM   10  N3  UNL     1      24.068   1.094  52.862  1.00  0.00     0.000 N 
HETATM   11  C9  UNL     1      24.795   1.873  52.041  1.00  0.00    -0.033 A 
HETATM   12  C10 UNL     1      25.752   1.052  52.886  1.00  0.00     0.035 A 
HETATM   13  C11 UNL     1      24.776   0.370  53.600  1.00  0.00     0.021 A 
HETATM   14  C12 UNL     1      23.253   0.478  53.530  1.00  0.00     0.087 A 
HETATM   15  C15 UNL     1      26.188   2.892  49.692  1.00  0.00     0.013 A 
HETATM   16  C16 UNL     1      26.960   3.800  49.015  1.00  0.00     0.011 A 
HETATM   17  C17 UNL     1      26.770   5.146  48.977  1.00  0.00    -0.025 A 
ENDROOT
BRANCH  14  18
HETATM   18  C13 UNL     1      22.793  -0.903  53.047  1.00  0.00     0.048 C 
BRANCH  18  19
HETATM   19  C14 UNL     1      21.811  -1.518  53.986  1.00  0.00     0.165 C 
BRANCH  19  20
HETATM   20  O2  UNL     1      22.264  -1.394  55.304  1.00  0.00    -0.401 OA
HETATM   21  H15 UNL     1      21.503  -1.432  55.947  1.00  0.00     0.209 HD
ENDBRANCH  19  20
ENDBRANCH  18  19
ENDBRANCH  14  18
BRANCH   1  22
HETATM   22  N1  UNL     1      28.972   6.009  48.453  1.00  0.00    -0.131 NA
HETATM   23  O1  UNL     1      29.797   6.849  48.260  1.00  0.00    -0.066 OA
ENDBRANCH   1  22
TORSDOF 5
ENDMDL
