MODEL 1
REMARK VINA RESULT:      -5.7      0.000      0.000
REMARK  10 active torsions:
REMARK  status: ('A' for Active; 'I' for Inactive)
REMARK    1  A    between atoms: C2_2  and  N1_3 
REMARK    2  A    between atoms: N1_3  and  C4_5 
REMARK    3  A    between atoms: C4_5  and  C5_6 
REMARK    4  A    between atoms: C5_6  and  N2_7 
REMARK    5  A    between atoms: N2_7  and  C6_8 
REMARK    6  A    between atoms: C6_8  and  C7_9 
REMARK    7  A    between atoms: C7_9  and  C8_10 
REMARK    8  A    between atoms: C8_10  and  O1_11 
REMARK    9  A    between atoms: O1_11  and  C9_12 
REMARK   10  A    between atoms: C15_19  and  O2_20 
ROOT
HETATM    1  O1  UNL     1      26.964   3.091  50.800  1.00  0.00    -0.348 OA
ENDROOT
BRANCH   1   2
HETATM    2  C8  UNL     1      26.541   3.248  49.457  1.00  0.00     0.177 C 
BRANCH   2   3
HETATM    3  C7  UNL     1      27.261   4.519  48.967  1.00  0.00     0.056 C 
BRANCH   3   4
HETATM    4  C6  UNL     1      26.187   5.593  49.000  1.00  0.00     0.272 C 
BRANCH   4   5
HETATM    5  N2  UNL     1      25.734   5.881  50.315  1.00  0.00     0.085 N 
HETATM    6  H11 UNL     1      26.137   5.252  51.020  1.00  0.00     0.315 HD
BRANCH   5   7
HETATM    7  C5  UNL     1      24.320   6.048  50.382  1.00  0.00     0.289 C 
BRANCH   7   8
HETATM    8  C4  UNL     1      23.753   5.094  51.415  1.00  0.00     0.151 C 
BRANCH   8   9
HETATM    9  N1  UNL     1      22.732   4.320  50.676  1.00  0.00    -0.393 N 
HETATM   10  C3  UNL     1      21.565   3.689  51.307  1.00  0.00     0.148 C 
BRANCH   9  11
HETATM   11  C2  UNL     1      22.760   4.094  49.253  1.00  0.00     0.075 C 
HETATM   12  C1  UNL     1      22.945   2.801  48.973  1.00  0.00     0.029 C 
ENDBRANCH   9  11
ENDBRANCH   8   9
ENDBRANCH   7   8
ENDBRANCH   5   7
ENDBRANCH   4   5
ENDBRANCH   3   4
ENDBRANCH   2   3
ENDBRANCH   1   2
BRANCH   1  13
HETATM   13  C9  UNL     1      26.379   2.170  51.641  1.00  0.00     0.105 A 
HETATM   14  C10 UNL     1      25.127   1.736  51.781  1.00  0.00     0.053 A 
HETATM   15  C11 UNL     1      25.145   0.740  52.860  1.00  0.00    -0.006 A 
HETATM   16  C12 UNL     1      24.331  -0.075  53.526  1.00  0.00     0.006 A 
HETATM   17  C14 UNL     1      26.524   0.623  53.346  1.00  0.00     0.075 A 
HETATM   18  C13 UNL     1      25.093  -0.828  54.538  1.00  0.00     0.148 A 
HETATM   19  N3  UNL     1      26.455  -0.351  54.379  1.00  0.00    -0.383 N 
HETATM   20  H22 UNL     1      27.285  -0.660  54.929  1.00  0.00     0.160 HD
HETATM   21  C15 UNL     1      27.234   1.480  52.607  1.00  0.00     0.129 A 
BRANCH  21  22
HETATM   22  O2  UNL     1      28.612   1.590  52.847  1.00  0.00    -0.351 OA
HETATM   23  C16 UNL     1      29.053   2.326  53.987  1.00  0.00     0.210 C 
ENDBRANCH  21  22
ENDBRANCH   1  13
TORSDOF 10
ENDMDL
MODEL 2
REMARK VINA RESULT:      -5.6      3.093      5.795
REMARK  10 active torsions:
REMARK  status: ('A' for Active; 'I' for Inactive)
REMARK    1  A    between atoms: C2_2  and  N1_3 
REMARK    2  A    between atoms: N1_3  and  C4_5 
REMARK    3  A    between atoms: C4_5  and  C5_6 
REMARK    4  A    between atoms: C5_6  and  N2_7 
REMARK    5  A    between atoms: N2_7  and  C6_8 
REMARK    6  A    between atoms: C6_8  and  C7_9 
REMARK    7  A    between atoms: C7_9  and  C8_10 
REMARK    8  A    between atoms: C8_10  and  O1_11 
REMARK    9  A    between atoms: O1_11  and  C9_12 
REMARK   10  A    between atoms: C15_19  and  O2_20 
ROOT
HETATM    1  O1  UNL     1      23.065   2.988  51.515  1.00  0.00    -0.348 OA
ENDROOT
BRANCH   1   2
HETATM    2  C8  UNL     1      23.729   2.925  50.264  1.00  0.00     0.177 C 
BRANCH   2   3
HETATM    3  C7  UNL     1      24.947   3.855  50.422  1.00  0.00     0.056 C 
BRANCH   3   4
HETATM    4  C6  UNL     1      26.081   2.922  50.815  1.00  0.00     0.272 C 
BRANCH   4   5
HETATM    5  N2  UNL     1      26.199   2.760  52.221  1.00  0.00     0.085 N 
HETATM    6  H11 UNL     1      25.947   3.608  52.741  1.00  0.00     0.315 HD
BRANCH   5   7
HETATM    7  C5  UNL     1      27.432   2.154  52.600  1.00  0.00     0.289 C 
BRANCH   7   8
HETATM    8  C4  UNL     1      27.274   0.647  52.585  1.00  0.00     0.151 C 
BRANCH   8   9
HETATM    9  N1  UNL     1      27.508   0.241  53.988  1.00  0.00    -0.393 N 
HETATM   10  C3  UNL     1      26.455   0.177  55.010  1.00  0.00     0.148 C 
BRANCH   9  11
HETATM   11  C2  UNL     1      28.794  -0.138  54.518  1.00  0.00     0.075 C 
HETATM   12  C1  UNL     1      29.585  -0.629  53.560  1.00  0.00     0.029 C 
ENDBRANCH   9  11
ENDBRANCH   8   9
ENDBRANCH   7   8
ENDBRANCH   5   7
ENDBRANCH   4   5
ENDBRANCH   3   4
ENDBRANCH   2   3
ENDBRANCH   1   2
BRANCH   1  13
HETATM   13  C9  UNL     1      22.652   1.851  52.173  1.00  0.00     0.105 A 
HETATM   14  C10 UNL     1      23.228   0.670  52.393  1.00  0.00     0.053 A 
HETATM   15  C11 UNL     1      22.266  -0.130  53.165  1.00  0.00    -0.006 A 
HETATM   16  C12 UNL     1      22.135  -1.332  53.720  1.00  0.00     0.006 A 
HETATM   17  C14 UNL     1      21.069   0.688  53.382  1.00  0.00     0.075 A 
HETATM   18  C13 UNL     1      20.818  -1.441  54.372  1.00  0.00     0.148 A 
HETATM   19  N3  UNL     1      20.197  -0.151  54.129  1.00  0.00    -0.383 N 
HETATM   20  H22 UNL     1      19.249   0.147  54.444  1.00  0.00     0.160 HD
HETATM   21  C15 UNL     1      21.322   1.856  52.785  1.00  0.00     0.129 A 
BRANCH  21  22
HETATM   22  O2  UNL     1      20.342   2.858  52.827  1.00  0.00    -0.351 OA
HETATM   23  C16 UNL     1      19.414   2.955  51.747  1.00  0.00     0.210 C 
ENDBRANCH  21  22
ENDBRANCH   1  13
TORSDOF 10
ENDMDL
MODEL 3
REMARK VINA RESULT:      -5.5      1.775      2.225
REMARK  10 active torsions:
REMARK  status: ('A' for Active; 'I' for Inactive)
REMARK    1  A    between atoms: C2_2  and  N1_3 
REMARK    2  A    between atoms: N1_3  and  C4_5 
REMARK    3  A    between atoms: C4_5  and  C5_6 
REMARK    4  A    between atoms: C5_6  and  N2_7 
REMARK    5  A    between atoms: N2_7  and  C6_8 
REMARK    6  A    between atoms: C6_8  and  C7_9 
REMARK    7  A    between atoms: C7_9  and  C8_10 
REMARK    8  A    between atoms: C8_10  and  O1_11 
REMARK    9  A    between atoms: O1_11  and  C9_12 
REMARK   10  A    between atoms: C15_19  and  O2_20 
ROOT
HETATM    1  O1  UNL     1      26.525   0.945  51.696  1.00  0.00    -0.348 OA
ENDROOT
BRANCH   1   2
HETATM    2  C8  UNL     1      26.878   2.317  51.745  1.00  0.00     0.177 C 
BRANCH   2   3
HETATM    3  C7  UNL     1      26.526   2.861  50.346  1.00  0.00     0.056 C 
BRANCH   3   4
HETATM    4  C6  UNL     1      25.120   3.415  50.502  1.00  0.00     0.272 C 
BRANCH   4   5
HETATM    5  N2  UNL     1      24.856   3.887  51.815  1.00  0.00     0.085 N 
HETATM    6  H11 UNL     1      25.048   3.182  52.536  1.00  0.00     0.315 HD
BRANCH   5   7
HETATM    7  C5  UNL     1      23.591   4.536  51.918  1.00  0.00     0.289 C 
BRANCH   7   8
HETATM    8  C4  UNL     1      22.504   3.490  52.068  1.00  0.00     0.151 C 
BRANCH   8   9
HETATM    9  N1  UNL     1      21.586   3.753  50.938  1.00  0.00    -0.393 N 
HETATM   10  C3  UNL     1      20.733   4.944  50.834  1.00  0.00     0.148 C 
BRANCH   9  11
HETATM   11  C2  UNL     1      21.420   2.873  49.809  1.00  0.00     0.075 C 
HETATM   12  C1  UNL     1      21.808   1.630  50.103  1.00  0.00     0.029 C 
ENDBRANCH   9  11
ENDBRANCH   8   9
ENDBRANCH   7   8
ENDBRANCH   5   7
ENDBRANCH   4   5
ENDBRANCH   3   4
ENDBRANCH   2   3
ENDBRANCH   1   2
BRANCH   1  13
HETATM   13  C9  UNL     1      25.617   0.399  52.575  1.00  0.00     0.105 A 
HETATM   14  C10 UNL     1      24.285   0.394  52.617  1.00  0.00     0.053 A 
HETATM   15  C11 UNL     1      23.906  -0.366  53.817  1.00  0.00    -0.006 A 
HETATM   16  C12 UNL     1      22.827  -0.772  54.482  1.00  0.00     0.006 A 
HETATM   17  C14 UNL     1      25.136  -0.809  54.480  1.00  0.00     0.075 A 
HETATM   18  C13 UNL     1      23.233  -1.538  55.673  1.00  0.00     0.148 A 
HETATM   19  N3  UNL     1      24.685  -1.528  55.620  1.00  0.00    -0.383 N 
HETATM   20  H22 UNL     1      25.330  -1.976  56.305  1.00  0.00     0.160 HD
HETATM   21  C15 UNL     1      26.135  -0.343  53.725  1.00  0.00     0.129 A 
BRANCH  21  22
HETATM   22  O2  UNL     1      27.454  -0.615  54.115  1.00  0.00    -0.351 OA
HETATM   23  C16 UNL     1      28.200   0.409  54.771  1.00  0.00     0.210 C 
ENDBRANCH  21  22
ENDBRANCH   1  13
TORSDOF 10
ENDMDL
MODEL 4
REMARK VINA RESULT:      -5.5      3.956      6.468
REMARK  10 active torsions:
REMARK  status: ('A' for Active; 'I' for Inactive)
REMARK    1  A    between atoms: C2_2  and  N1_3 
REMARK    2  A    between atoms: N1_3  and  C4_5 
REMARK    3  A    between atoms: C4_5  and  C5_6 
REMARK    4  A    between atoms: C5_6  and  N2_7 
REMARK    5  A    between atoms: N2_7  and  C6_8 
REMARK    6  A    between atoms: C6_8  and  C7_9 
REMARK    7  A    between atoms: C7_9  and  C8_10 
REMARK    8  A    between atoms: C8_10  and  O1_11 
REMARK    9  A    between atoms: O1_11  and  C9_12 
REMARK   10  A    between atoms: C15_19  and  O2_20 
ROOT
HETATM    1  O1  UNL     1      22.678   1.461  52.894  1.00  0.00    -0.348 OA
ENDROOT
BRANCH   1   2
HETATM    2  C8  UNL     1      22.981   2.732  52.344  1.00  0.00     0.177 C 
BRANCH   2   3
HETATM    3  C7  UNL     1      23.907   2.430  51.150  1.00  0.00     0.056 C 
BRANCH   3   4
HETATM    4  C6  UNL     1      25.129   1.781  51.778  1.00  0.00     0.272 C 
BRANCH   4   5
HETATM    5  N2  UNL     1      26.263   2.636  51.787  1.00  0.00     0.085 N 
HETATM    6  H11 UNL     1      26.581   2.884  50.842  1.00  0.00     0.315 HD
BRANCH   5   7
HETATM    7  C5  UNL     1      27.283   2.182  52.674  1.00  0.00     0.289 C 
BRANCH   7   8
HETATM    8  C4  UNL     1      27.356   0.669  52.618  1.00  0.00     0.151 C 
BRANCH   8   9
HETATM    9  N1  UNL     1      27.564   0.261  54.024  1.00  0.00    -0.393 N 
HETATM   10  C3  UNL     1      26.485   0.161  55.017  1.00  0.00     0.148 C 
BRANCH   9  11
HETATM   11  C2  UNL     1      28.845  -0.085  54.586  1.00  0.00     0.075 C 
HETATM   12  C1  UNL     1      29.687  -0.513  53.642  1.00  0.00     0.029 C 
ENDBRANCH   9  11
ENDBRANCH   8   9
ENDBRANCH   7   8
ENDBRANCH   5   7
ENDBRANCH   4   5
ENDBRANCH   3   4
ENDBRANCH   2   3
ENDBRANCH   1   2
BRANCH   1  13
HETATM   13  C9  UNL     1      21.445   0.874  52.723  1.00  0.00     0.105 A 
HETATM   14  C10 UNL     1      20.547   0.918  51.738  1.00  0.00     0.053 A 
HETATM   15  C11 UNL     1      19.423   0.068  52.156  1.00  0.00    -0.006 A 
HETATM   16  C12 UNL     1      18.235  -0.354  51.730  1.00  0.00     0.006 A 
HETATM   17  C14 UNL     1      19.739  -0.483  53.478  1.00  0.00     0.075 A 
HETATM   18  C13 UNL     1      17.629  -1.241  52.738  1.00  0.00     0.148 A 
HETATM   19  N3  UNL     1      18.612  -1.285  53.806  1.00  0.00    -0.383 N 
HETATM   20  H22 UNL     1      18.530  -1.818  54.697  1.00  0.00     0.160 HD
HETATM   21  C15 UNL     1      20.940   0.010  53.791  1.00  0.00     0.129 A 
BRANCH  21  22
HETATM   22  O2  UNL     1      21.513  -0.350  55.020  1.00  0.00    -0.351 OA
HETATM   23  C16 UNL     1      22.610  -1.262  55.024  1.00  0.00     0.210 C 
ENDBRANCH  21  22
ENDBRANCH   1  13
TORSDOF 10
ENDMDL
MODEL 5
REMARK VINA RESULT:      -5.4      1.948      6.465
REMARK  10 active torsions:
REMARK  status: ('A' for Active; 'I' for Inactive)
REMARK    1  A    between atoms: C2_2  and  N1_3 
REMARK    2  A    between atoms: N1_3  and  C4_5 
REMARK    3  A    between atoms: C4_5  and  C5_6 
REMARK    4  A    between atoms: C5_6  and  N2_7 
REMARK    5  A    between atoms: N2_7  and  C6_8 
REMARK    6  A    between atoms: C6_8  and  C7_9 
REMARK    7  A    between atoms: C7_9  and  C8_10 
REMARK    8  A    between atoms: C8_10  and  O1_11 
REMARK    9  A    between atoms: O1_11  and  C9_12 
REMARK   10  A    between atoms: C15_19  and  O2_20 
ROOT
HETATM    1  O1  UNL     1      23.145   1.464  50.764  1.00  0.00    -0.348 OA
ENDROOT
BRANCH   1   2
HETATM    2  C8  UNL     1      22.012   1.380  51.611  1.00  0.00     0.177 C 
BRANCH   2   3
HETATM    3  C7  UNL     1      22.222   0.083  52.416  1.00  0.00     0.056 C 
BRANCH   3   4
HETATM    4  C6  UNL     1      23.349   0.418  53.378  1.00  0.00     0.272 C 
BRANCH   4   5
HETATM    5  N2  UNL     1      24.634   0.139  52.841  1.00  0.00     0.085 N 
HETATM    6  H11 UNL     1      24.597  -0.156  51.858  1.00  0.00     0.315 HD
BRANCH   5   7
HETATM    7  C5  UNL     1      25.417  -0.688  53.698  1.00  0.00     0.289 C 
BRANCH   7   8
HETATM    8  C4  UNL     1      26.249   0.189  54.613  1.00  0.00     0.151 C 
BRANCH   8   9
HETATM    9  N1  UNL     1      27.645  -0.064  54.191  1.00  0.00    -0.393 N 
HETATM   10  C3  UNL     1      28.810   0.631  54.753  1.00  0.00     0.148 C 
BRANCH   9  11
HETATM   11  C2  UNL     1      28.025  -1.019  53.181  1.00  0.00     0.075 C 
HETATM   12  C1  UNL     1      29.279  -1.439  53.362  1.00  0.00     0.029 C 
ENDBRANCH   9  11
ENDBRANCH   8   9
ENDBRANCH   7   8
ENDBRANCH   5   7
ENDBRANCH   4   5
ENDBRANCH   3   4
ENDBRANCH   2   3
ENDBRANCH   1   2
BRANCH   1  13
HETATM   13  C9  UNL     1      23.588   2.668  50.265  1.00  0.00     0.105 A 
HETATM   14  C10 UNL     1      23.144   3.467  49.295  1.00  0.00     0.053 A 
HETATM   15  C11 UNL     1      24.059   4.616  49.245  1.00  0.00    -0.006 A 
HETATM   16  C12 UNL     1      24.253   5.751  48.579  1.00  0.00     0.006 A 
HETATM   17  C14 UNL     1      25.086   4.422  50.273  1.00  0.00     0.075 A 
HETATM   18  C13 UNL     1      25.445   6.441  49.103  1.00  0.00     0.148 A 
HETATM   19  N3  UNL     1      25.924   5.565  50.158  1.00  0.00    -0.383 N 
HETATM   20  H22 UNL     1      26.758   5.725  50.761  1.00  0.00     0.160 HD
HETATM   21  C15 UNL     1      24.785   3.261  50.862  1.00  0.00     0.129 A 
BRANCH  21  22
HETATM   22  O2  UNL     1      25.605   2.806  51.905  1.00  0.00    -0.351 OA
HETATM   23  C16 UNL     1      26.934   2.387  51.600  1.00  0.00     0.210 C 
ENDBRANCH  21  22
ENDBRANCH   1  13
TORSDOF 10
ENDMDL
MODEL 6
REMARK VINA RESULT:      -5.4      2.094      6.711
REMARK  10 active torsions:
REMARK  status: ('A' for Active; 'I' for Inactive)
REMARK    1  A    between atoms: C2_2  and  N1_3 
REMARK    2  A    between atoms: N1_3  and  C4_5 
REMARK    3  A    between atoms: C4_5  and  C5_6 
REMARK    4  A    between atoms: C5_6  and  N2_7 
REMARK    5  A    between atoms: N2_7  and  C6_8 
REMARK    6  A    between atoms: C6_8  and  C7_9 
REMARK    7  A    between atoms: C7_9  and  C8_10 
REMARK    8  A    between atoms: C8_10  and  O1_11 
REMARK    9  A    between atoms: O1_11  and  C9_12 
REMARK   10  A    between atoms: C15_19  and  O2_20 
ROOT
HETATM    1  O1  UNL     1      23.851   2.597  51.972  1.00  0.00    -0.348 OA
ENDROOT
BRANCH   1   2
HETATM    2  C8  UNL     1      23.219   1.393  51.572  1.00  0.00     0.177 C 
BRANCH   2   3
HETATM    3  C7  UNL     1      22.507   0.886  52.840  1.00  0.00     0.056 C 
BRANCH   3   4
HETATM    4  C6  UNL     1      23.458  -0.150  53.416  1.00  0.00     0.272 C 
BRANCH   4   5
HETATM    5  N2  UNL     1      24.813   0.275  53.396  1.00  0.00     0.085 N 
HETATM    6  H11 UNL     1      25.150   0.485  52.449  1.00  0.00     0.315 HD
BRANCH   5   7
HETATM    7  C5  UNL     1      25.661  -0.567  54.173  1.00  0.00     0.289 C 
BRANCH   7   8
HETATM    8  C4  UNL     1      26.716   0.281  54.856  1.00  0.00     0.151 C 
BRANCH   8   9
HETATM    9  N1  UNL     1      27.783   0.423  53.842  1.00  0.00    -0.393 N 
HETATM   10  C3  UNL     1      28.254   1.714  53.321  1.00  0.00     0.148 C 
BRANCH   9  11
HETATM   11  C2  UNL     1      28.486  -0.685  53.246  1.00  0.00     0.075 C 
HETATM   12  C1  UNL     1      29.687  -0.852  53.806  1.00  0.00     0.029 C 
ENDBRANCH   9  11
ENDBRANCH   8   9
ENDBRANCH   7   8
ENDBRANCH   5   7
ENDBRANCH   4   5
ENDBRANCH   3   4
ENDBRANCH   2   3
ENDBRANCH   1   2
BRANCH   1  13
HETATM   13  C9  UNL     1      24.715   3.273  51.140  1.00  0.00     0.105 A 
HETATM   14  C10 UNL     1      25.810   2.904  50.476  1.00  0.00     0.053 A 
HETATM   15  C11 UNL     1      26.286   4.094  49.757  1.00  0.00    -0.006 A 
HETATM   16  C12 UNL     1      27.260   4.484  48.938  1.00  0.00     0.006 A 
HETATM   17  C14 UNL     1      25.371   5.200  50.055  1.00  0.00     0.075 A 
HETATM   18  C13 UNL     1      27.092   5.908  48.602  1.00  0.00     0.148 A 
HETATM   19  N3  UNL     1      25.897   6.303  49.328  1.00  0.00    -0.383 N 
HETATM   20  H22 UNL     1      25.464   7.250  49.334  1.00  0.00     0.160 HD
HETATM   21  C15 UNL     1      24.450   4.688  50.876  1.00  0.00     0.129 A 
BRANCH  21  22
HETATM   22  O2  UNL     1      23.424   5.525  51.339  1.00  0.00    -0.351 OA
HETATM   23  C16 UNL     1      22.147   5.459  50.704  1.00  0.00     0.210 C 
ENDBRANCH  21  22
ENDBRANCH   1  13
TORSDOF 10
ENDMDL
MODEL 7
REMARK VINA RESULT:      -5.4      2.416      4.498
REMARK  10 active torsions:
REMARK  status: ('A' for Active; 'I' for Inactive)
REMARK    1  A    between atoms: C2_2  and  N1_3 
REMARK    2  A    between atoms: N1_3  and  C4_5 
REMARK    3  A    between atoms: C4_5  and  C5_6 
REMARK    4  A    between atoms: C5_6  and  N2_7 
REMARK    5  A    between atoms: N2_7  and  C6_8 
REMARK    6  A    between atoms: C6_8  and  C7_9 
REMARK    7  A    between atoms: C7_9  and  C8_10 
REMARK    8  A    between atoms: C8_10  and  O1_11 
REMARK    9  A    between atoms: O1_11  and  C9_12 
REMARK   10  A    between atoms: C15_19  and  O2_20 
ROOT
HETATM    1  O1  UNL     1      24.487  -0.449  52.960  1.00  0.00    -0.348 OA
ENDROOT
BRANCH   1   2
HETATM    2  C8  UNL     1      23.568  -0.723  54.004  1.00  0.00     0.177 C 
BRANCH   2   3
HETATM    3  C7  UNL     1      22.205  -0.859  53.299  1.00  0.00     0.056 C 
BRANCH   3   4
HETATM    4  C6  UNL     1      22.192   0.275  52.288  1.00  0.00     0.272 C 
BRANCH   4   5
HETATM    5  N2  UNL     1      22.457   1.540  52.875  1.00  0.00     0.085 N 
HETATM    6  H11 UNL     1      22.067   1.629  53.821  1.00  0.00     0.315 HD
BRANCH   5   7
HETATM    7  C5  UNL     1      22.170   2.623  51.993  1.00  0.00     0.289 C 
BRANCH   7   8
HETATM    8  C4  UNL     1      23.164   2.611  50.848  1.00  0.00     0.151 C 
BRANCH   8   9
HETATM    9  N1  UNL     1      23.964   3.839  51.046  1.00  0.00    -0.393 N 
HETATM   10  C3  UNL     1      25.241   4.104  50.370  1.00  0.00     0.148 C 
BRANCH   9  11
HETATM   11  C2  UNL     1      23.587   4.919  51.923  1.00  0.00     0.075 C 
HETATM   12  C1  UNL     1      23.720   6.102  51.318  1.00  0.00     0.029 C 
ENDBRANCH   9  11
ENDBRANCH   8   9
ENDBRANCH   7   8
ENDBRANCH   5   7
ENDBRANCH   4   5
ENDBRANCH   3   4
ENDBRANCH   2   3
ENDBRANCH   1   2
BRANCH   1  13
HETATM   13  C9  UNL     1      25.833  -0.705  53.094  1.00  0.00     0.105 A 
HETATM   14  C10 UNL     1      26.620  -1.682  52.643  1.00  0.00     0.053 A 
HETATM   15  C11 UNL     1      27.975  -1.388  53.130  1.00  0.00    -0.006 A 
HETATM   16  C12 UNL     1      29.213  -1.875  53.093  1.00  0.00     0.006 A 
HETATM   17  C14 UNL     1      27.917  -0.148  53.911  1.00  0.00     0.075 A 
HETATM   18  C13 UNL     1      30.119  -0.998  53.854  1.00  0.00     0.148 A 
HETATM   19  N3  UNL     1      29.255   0.063  54.341  1.00  0.00    -0.383 N 
HETATM   20  H22 UNL     1      29.546   0.875  54.925  1.00  0.00     0.160 HD
HETATM   21  C15 UNL     1      26.638   0.236  53.874  1.00  0.00     0.129 A 
BRANCH  21  22
HETATM   22  O2  UNL     1      26.272   1.413  54.543  1.00  0.00    -0.351 OA
HETATM   23  C16 UNL     1      25.851   2.537  53.772  1.00  0.00     0.210 C 
ENDBRANCH  21  22
ENDBRANCH   1  13
TORSDOF 10
ENDMDL
MODEL 8
REMARK VINA RESULT:      -5.3      2.593      4.922
REMARK  10 active torsions:
REMARK  status: ('A' for Active; 'I' for Inactive)
REMARK    1  A    between atoms: C2_2  and  N1_3 
REMARK    2  A    between atoms: N1_3  and  C4_5 
REMARK    3  A    between atoms: C4_5  and  C5_6 
REMARK    4  A    between atoms: C5_6  and  N2_7 
REMARK    5  A    between atoms: N2_7  and  C6_8 
REMARK    6  A    between atoms: C6_8  and  C7_9 
REMARK    7  A    between atoms: C7_9  and  C8_10 
REMARK    8  A    between atoms: C8_10  and  O1_11 
REMARK    9  A    between atoms: O1_11  and  C9_12 
REMARK   10  A    between atoms: C15_19  and  O2_20 
ROOT
HETATM    1  O1  UNL     1      23.365   0.132  53.171  1.00  0.00    -0.348 OA
ENDROOT
BRANCH   1   2
HETATM    2  C8  UNL     1      22.726  -1.070  53.566  1.00  0.00     0.177 C 
BRANCH   2   3
HETATM    3  C7  UNL     1      21.675  -0.630  54.603  1.00  0.00     0.056 C 
BRANCH   3   4
HETATM    4  C6  UNL     1      20.508  -0.133  53.766  1.00  0.00     0.272 C 
BRANCH   4   5
HETATM    5  N2  UNL     1      20.543   1.271  53.552  1.00  0.00     0.085 N 
HETATM    6  H11 UNL     1      20.174   1.803  54.349  1.00  0.00     0.315 HD
BRANCH   5   7
HETATM    7  C5  UNL     1      20.024   1.642  52.277  1.00  0.00     0.289 C 
BRANCH   7   8
HETATM    8  C4  UNL     1      20.887   2.740  51.688  1.00  0.00     0.151 C 
BRANCH   8   9
HETATM    9  N1  UNL     1      21.322   2.201  50.381  1.00  0.00    -0.393 N 
HETATM   10  C3  UNL     1      21.462   0.767  50.090  1.00  0.00     0.148 C 
BRANCH   9  11
HETATM   11  C2  UNL     1      21.659   3.015  49.240  1.00  0.00     0.075 C 
HETATM   12  C1  UNL     1      22.510   2.381  48.429  1.00  0.00     0.029 C 
ENDBRANCH   9  11
ENDBRANCH   8   9
ENDBRANCH   7   8
ENDBRANCH   5   7
ENDBRANCH   4   5
ENDBRANCH   3   4
ENDBRANCH   2   3
ENDBRANCH   1   2
BRANCH   1  13
HETATM   13  C9  UNL     1      24.696   0.365  53.434  1.00  0.00     0.105 A 
HETATM   14  C10 UNL     1      25.707  -0.434  53.775  1.00  0.00     0.053 A 
HETATM   15  C11 UNL     1      26.892   0.424  53.915  1.00  0.00    -0.006 A 
HETATM   16  C12 UNL     1      28.187   0.354  54.214  1.00  0.00     0.006 A 
HETATM   17  C14 UNL     1      26.489   1.803  53.625  1.00  0.00     0.075 A 
HETATM   18  C13 UNL     1      28.788   1.697  54.153  1.00  0.00     0.148 A 
HETATM   19  N3  UNL     1      27.681   2.562  53.781  1.00  0.00    -0.383 N 
HETATM   20  H22 UNL     1      27.725   3.593  53.641  1.00  0.00     0.160 HD
HETATM   21  C15 UNL     1      25.185   1.741  53.343  1.00  0.00     0.129 A 
BRANCH  21  22
HETATM   22  O2  UNL     1      24.511   2.928  53.019  1.00  0.00    -0.351 OA
HETATM   23  C16 UNL     1      24.542   3.386  51.668  1.00  0.00     0.210 C 
ENDBRANCH  21  22
ENDBRANCH   1  13
TORSDOF 10
ENDMDL
MODEL 9
REMARK VINA RESULT:      -5.2      1.964      3.752
REMARK  10 active torsions:
REMARK  status: ('A' for Active; 'I' for Inactive)
REMARK    1  A    between atoms: C2_2  and  N1_3 
REMARK    2  A    between atoms: N1_3  and  C4_5 
REMARK    3  A    between atoms: C4_5  and  C5_6 
REMARK    4  A    between atoms: C5_6  and  N2_7 
REMARK    5  A    between atoms: N2_7  and  C6_8 
REMARK    6  A    between atoms: C6_8  and  C7_9 
REMARK    7  A    between atoms: C7_9  and  C8_10 
REMARK    8  A    between atoms: C8_10  and  O1_11 
REMARK    9  A    between atoms: O1_11  and  C9_12 
REMARK   10  A    between atoms: C15_19  and  O2_20 
ROOT
HETATM    1  O1  UNL     1      25.154   2.069  53.178  1.00  0.00    -0.348 OA
ENDROOT
BRANCH   1   2
HETATM    2  C8  UNL     1      23.981   2.268  52.407  1.00  0.00     0.177 C 
BRANCH   2   3
HETATM    3  C7  UNL     1      23.510   3.688  52.772  1.00  0.00     0.056 C 
BRANCH   3   4
HETATM    4  C6  UNL     1      23.547   4.446  51.455  1.00  0.00     0.272 C 
BRANCH   4   5
HETATM    5  N2  UNL     1      24.868   4.660  50.980  1.00  0.00     0.085 N 
HETATM    6  H11 UNL     1      25.489   5.053  51.696  1.00  0.00     0.315 HD
BRANCH   5   7
HETATM    7  C5  UNL     1      24.894   5.324  49.718  1.00  0.00     0.289 C 
BRANCH   7   8
HETATM    8  C4  UNL     1      25.853   6.495  49.790  1.00  0.00     0.151 C 
BRANCH   8   9
HETATM    9  N1  UNL     1      27.014   6.067  48.979  1.00  0.00    -0.393 N 
HETATM   10  C3  UNL     1      27.388   4.663  48.761  1.00  0.00     0.148 C 
BRANCH   9  11
HETATM   11  C2  UNL     1      27.912   6.973  48.310  1.00  0.00     0.075 C 
HETATM   12  C1  UNL     1      28.980   6.328  47.831  1.00  0.00     0.029 C 
ENDBRANCH   9  11
ENDBRANCH   8   9
ENDBRANCH   7   8
ENDBRANCH   5   7
ENDBRANCH   4   5
ENDBRANCH   3   4
ENDBRANCH   2   3
ENDBRANCH   1   2
BRANCH   1  13
HETATM   13  C9  UNL     1      25.885   0.905  53.098  1.00  0.00     0.105 A 
HETATM   14  C10 UNL     1      25.638  -0.286  52.552  1.00  0.00     0.053 A 
HETATM   15  C11 UNL     1      26.824  -1.117  52.804  1.00  0.00    -0.006 A 
HETATM   16  C12 UNL     1      27.291  -2.342  52.579  1.00  0.00     0.006 A 
HETATM   17  C14 UNL     1      27.795  -0.308  53.548  1.00  0.00     0.075 A 
HETATM   18  C13 UNL     1      28.640  -2.477  53.157  1.00  0.00     0.148 A 
HETATM   19  N3  UNL     1      28.902  -1.177  53.748  1.00  0.00    -0.383 N 
HETATM   20  H22 UNL     1      29.767  -0.893  54.254  1.00  0.00     0.160 HD
HETATM   21  C15 UNL     1      27.215   0.885  53.709  1.00  0.00     0.129 A 
BRANCH  21  22
HETATM   22  O2  UNL     1      27.918   1.885  54.396  1.00  0.00    -0.351 OA
HETATM   23  C16 UNL     1      29.012   2.526  53.742  1.00  0.00     0.210 C 
ENDBRANCH  21  22
ENDBRANCH   1  13
TORSDOF 10
ENDMDL
