MODEL 1
REMARK VINA RESULT:      -7.9      0.000      0.000
REMARK  5 active torsions:
REMARK  status: ('A' for Active; 'I' for Inactive)
REMARK    1  A    between atoms: N1_2  and  C2_3 
REMARK    2  A    between atoms: C2_3  and  C3_4 
REMARK    3  A    between atoms: C3_4  and  C4_5 
REMARK       I    between atoms: C4_5  and  N2_7 
REMARK    4  A    between atoms: N2_7  and  C5_8 
REMARK    5  A    between atoms: N3_12  and  C9_13 
ROOT
HETATM    1  C5  UNL     1      24.650   0.701  53.008  1.00  0.00     0.112 A 
HETATM    2  C6  UNL     1      24.249  -0.517  53.506  1.00  0.00     0.064 A 
HETATM    3  C7  UNL     1      22.874  -0.507  53.603  1.00  0.00     0.015 A 
HETATM    4  C8  UNL     1      22.543   0.728  53.152  1.00  0.00     0.077 A 
HETATM    5  N3  UNL     1      23.555   1.503  52.780  1.00  0.00    -0.319 N 
HETATM    6  C14 UNL     1      21.154   1.117  53.096  1.00  0.00     0.117 A 
HETATM    7  C15 UNL     1      20.573   2.337  52.643  1.00  0.00     0.109 C 
HETATM    8  N4  UNL     1      20.080   3.325  52.276  1.00  0.00    -0.191 NA
HETATM    9  S1  UNL     1      20.006   0.030  53.593  1.00  0.00    -0.065 SA
HETATM   10  N5  UNL     1      20.724  -1.532  54.144  1.00  0.00    -0.236 NA
HETATM   11  C16 UNL     1      22.011  -1.555  54.065  1.00  0.00     0.138 A 
HETATM   12  H15 UNL     1      18.730   0.456  54.072  1.00  0.00     0.121 HD
ENDROOT
BRANCH   5  13
HETATM   13  C9  UNL     1      23.919   2.771  52.271  1.00  0.00     0.139 A 
HETATM   14  C10 UNL     1      23.145   3.964  52.521  1.00  0.00     0.004 A 
HETATM   15  C11 UNL     1      22.622   4.478  51.392  1.00  0.00     0.017 A 
HETATM   16  C12 UNL     1      23.011   3.654  50.258  1.00  0.00     0.009 A 
HETATM   17 BR1  UNL     1      22.502   3.998  48.458  1.00  0.00    -0.051 Br
HETATM   18  C13 UNL     1      23.750   2.683  50.760  1.00  0.00     0.021 A 
ENDBRANCH   5  13
BRANCH   1  19
HETATM   19  N2  UNL     1      26.030   1.021  52.775  1.00  0.00    -0.313 N 
HETATM   20  C4  UNL     1      26.963   1.333  53.773  1.00  0.00     0.224 C 
HETATM   21  O1  UNL     1      26.641   1.352  54.979  1.00  0.00    -0.273 OA
HETATM   22  H9  UNL     1      26.475   1.048  51.827  1.00  0.00     0.170 HD
BRANCH  20  23
HETATM   23  C3  UNL     1      28.341   1.645  53.429  1.00  0.00     0.133 C 
BRANCH  23  24
HETATM   24  C2  UNL     1      29.364   0.659  53.870  1.00  0.00     0.278 C 
BRANCH  24  25
HETATM   25  N1  UNL     1      28.814  -0.596  54.238  1.00  0.00     0.079 N 
HETATM   26  C1  UNL     1      29.323  -1.655  53.390  1.00  0.00     0.306 C 
HETATM   27  H4  UNL     1      29.016  -0.829  55.218  1.00  0.00     0.315 HD
ENDBRANCH  24  25
ENDBRANCH  23  24
ENDBRANCH  20  23
ENDBRANCH   1  19
TORSDOF 5
ENDMDL
MODEL 2
REMARK VINA RESULT:      -7.1      3.275      4.903
REMARK  5 active torsions:
REMARK  status: ('A' for Active; 'I' for Inactive)
REMARK    1  A    between atoms: N1_2  and  C2_3 
REMARK    2  A    between atoms: C2_3  and  C3_4 
REMARK    3  A    between atoms: C3_4  and  C4_5 
REMARK       I    between atoms: C4_5  and  N2_7 
REMARK    4  A    between atoms: N2_7  and  C5_8 
REMARK    5  A    between atoms: N3_12  and  C9_13 
ROOT
HETATM    1  C5  UNL     1      26.089   2.860  51.628  1.00  0.00     0.112 A 
HETATM    2  C6  UNL     1      27.086   2.077  52.160  1.00  0.00     0.064 A 
HETATM    3  C7  UNL     1      26.493   1.074  52.896  1.00  0.00     0.015 A 
HETATM    4  C8  UNL     1      25.168   1.327  52.751  1.00  0.00     0.077 A 
HETATM    5  N3  UNL     1      24.856   2.380  52.005  1.00  0.00    -0.319 N 
HETATM    6  C14 UNL     1      24.204   0.462  53.388  1.00  0.00     0.117 A 
HETATM    7  C15 UNL     1      22.780   0.516  53.357  1.00  0.00     0.109 C 
HETATM    8  N4  UNL     1      21.617   0.544  53.344  1.00  0.00    -0.191 NA
HETATM    9  S1  UNL     1      24.757  -0.818  54.283  1.00  0.00    -0.065 SA
HETATM   10  N5  UNL     1      26.560  -0.918  54.309  1.00  0.00    -0.236 NA
HETATM   11  C16 UNL     1      27.129   0.018  53.630  1.00  0.00     0.138 A 
HETATM   12  H15 UNL     1      23.980  -1.383  55.340  1.00  0.00     0.121 HD
ENDROOT
BRANCH   5  13
HETATM   13  C9  UNL     1      23.796   3.158  51.483  1.00  0.00     0.139 A 
HETATM   14  C10 UNL     1      22.552   3.355  52.188  1.00  0.00     0.004 A 
HETATM   15  C11 UNL     1      21.505   2.821  51.531  1.00  0.00     0.017 A 
HETATM   16  C12 UNL     1      21.969   2.205  50.298  1.00  0.00     0.009 A 
HETATM   17 BR1  UNL     1      20.837   1.325  49.046  1.00  0.00    -0.051 Br
HETATM   18  C13 UNL     1      23.273   2.398  50.271  1.00  0.00     0.021 A 
ENDBRANCH   5  13
BRANCH   1  19
HETATM   19  N2  UNL     1      26.365   3.997  50.795  1.00  0.00    -0.313 N 
HETATM   20  C4  UNL     1      26.854   3.934  49.484  1.00  0.00     0.224 C 
HETATM   21  O1  UNL     1      27.089   2.840  48.931  1.00  0.00    -0.273 OA
HETATM   22  H9  UNL     1      26.222   4.992  51.092  1.00  0.00     0.170 HD
BRANCH  20  23
HETATM   23  C3  UNL     1      27.102   5.150  48.725  1.00  0.00     0.133 C 
BRANCH  23  24
HETATM   24  C2  UNL     1      26.345   6.355  49.158  1.00  0.00     0.278 C 
BRANCH  24  25
HETATM   25  N1  UNL     1      27.175   7.394  49.654  1.00  0.00     0.079 N 
HETATM   26  C1  UNL     1      26.391   8.559  50.013  1.00  0.00     0.306 C 
HETATM   27  H4  UNL     1      27.716   7.092  50.473  1.00  0.00     0.315 HD
ENDBRANCH  24  25
ENDBRANCH  23  24
ENDBRANCH  20  23
ENDBRANCH   1  19
TORSDOF 5
ENDMDL
MODEL 3
REMARK VINA RESULT:      -7.1      2.920      5.988
REMARK  5 active torsions:
REMARK  status: ('A' for Active; 'I' for Inactive)
REMARK    1  A    between atoms: N1_2  and  C2_3 
REMARK    2  A    between atoms: C2_3  and  C3_4 
REMARK    3  A    between atoms: C3_4  and  C4_5 
REMARK       I    between atoms: C4_5  and  N2_7 
REMARK    4  A    between atoms: N2_7  and  C5_8 
REMARK    5  A    between atoms: N3_12  and  C9_13 
ROOT
HETATM    1  C5  UNL     1      22.701   0.576  52.130  1.00  0.00     0.112 A 
HETATM    2  C6  UNL     1      23.212  -0.284  53.073  1.00  0.00     0.064 A 
HETATM    3  C7  UNL     1      24.568  -0.053  53.169  1.00  0.00     0.015 A 
HETATM    4  C8  UNL     1      24.777   0.939  52.269  1.00  0.00     0.077 A 
HETATM    5  N3  UNL     1      23.703   1.364  51.612  1.00  0.00    -0.319 N 
HETATM    6  C14 UNL     1      26.108   1.467  52.086  1.00  0.00     0.117 A 
HETATM    7  C15 UNL     1      26.557   2.512  51.227  1.00  0.00     0.109 C 
HETATM    8  N4  UNL     1      26.943   3.362  50.533  1.00  0.00    -0.191 NA
HETATM    9  S1  UNL     1      27.343   0.832  52.989  1.00  0.00    -0.065 SA
HETATM   10  N5  UNL     1      26.785  -0.475  54.104  1.00  0.00    -0.236 NA
HETATM   11  C16 UNL     1      25.520  -0.706  54.021  1.00  0.00     0.138 A 
HETATM   12  H15 UNL     1      28.698   0.880  52.542  1.00  0.00     0.121 HD
ENDROOT
BRANCH   5  13
HETATM   13  C9  UNL     1      23.224   2.264  50.632  1.00  0.00     0.139 A 
HETATM   14  C10 UNL     1      24.002   2.647  49.478  1.00  0.00     0.004 A 
HETATM   15  C11 UNL     1      24.302   3.960  49.479  1.00  0.00     0.017 A 
HETATM   16  C12 UNL     1      23.735   4.585  50.664  1.00  0.00     0.009 A 
HETATM   17 BR1  UNL     1      23.904   6.433  51.087  1.00  0.00    -0.051 Br
HETATM   18  C13 UNL     1      23.121   3.619  51.319  1.00  0.00     0.021 A 
ENDBRANCH   5  13
BRANCH   1  19
HETATM   19  N2  UNL     1      21.305   0.603  51.789  1.00  0.00    -0.313 N 
HETATM   20  C4  UNL     1      20.252   0.454  52.701  1.00  0.00     0.224 C 
HETATM   21  O1  UNL     1      20.467   0.282  53.917  1.00  0.00    -0.273 OA
HETATM   22  H9  UNL     1      20.941   0.743  50.817  1.00  0.00     0.170 HD
BRANCH  20  23
HETATM   23  C3  UNL     1      18.870   0.496  52.250  1.00  0.00     0.133 C 
BRANCH  23  24
HETATM   24  C2  UNL     1      18.110  -0.778  52.354  1.00  0.00     0.278 C 
BRANCH  24  25
HETATM   25  N1  UNL     1      17.994  -1.258  53.685  1.00  0.00     0.079 N 
HETATM   26  C1  UNL     1      17.844  -2.699  53.706  1.00  0.00     0.306 C 
HETATM   27  H4  UNL     1      18.808  -1.001  54.256  1.00  0.00     0.315 HD
ENDBRANCH  24  25
ENDBRANCH  23  24
ENDBRANCH  20  23
ENDBRANCH   1  19
TORSDOF 5
ENDMDL
MODEL 4
REMARK VINA RESULT:      -7.0      3.497      5.177
REMARK  5 active torsions:
REMARK  status: ('A' for Active; 'I' for Inactive)
REMARK    1  A    between atoms: N1_2  and  C2_3 
REMARK    2  A    between atoms: C2_3  and  C3_4 
REMARK    3  A    between atoms: C3_4  and  C4_5 
REMARK       I    between atoms: C4_5  and  N2_7 
REMARK    4  A    between atoms: N2_7  and  C5_8 
REMARK    5  A    between atoms: N3_12  and  C9_13 
ROOT
HETATM    1  C5  UNL     1      25.813   3.077  50.842  1.00  0.00     0.112 A 
HETATM    2  C6  UNL     1      26.712   3.586  49.935  1.00  0.00     0.064 A 
HETATM    3  C7  UNL     1      26.233   4.801  49.495  1.00  0.00     0.015 A 
HETATM    4  C8  UNL     1      25.069   4.938  50.176  1.00  0.00     0.077 A 
HETATM    5  N3  UNL     1      24.756   3.944  51.000  1.00  0.00    -0.319 N 
HETATM    6  C14 UNL     1      24.264   6.121  49.981  1.00  0.00     0.117 A 
HETATM    7  C15 UNL     1      23.033   6.490  50.597  1.00  0.00     0.109 C 
HETATM    8  N4  UNL     1      22.028   6.808  51.088  1.00  0.00    -0.191 NA
HETATM    9  S1  UNL     1      24.798   7.276  48.920  1.00  0.00    -0.065 SA
HETATM   10  N5  UNL     1      26.372   6.837  48.152  1.00  0.00    -0.236 NA
HETATM   11  C16 UNL     1      26.830   5.699  48.549  1.00  0.00     0.138 A 
HETATM   12  H15 UNL     1      23.893   8.169  48.270  1.00  0.00     0.121 HD
ENDROOT
BRANCH   5  13
HETATM   13  C9  UNL     1      23.800   3.460  51.923  1.00  0.00     0.139 A 
HETATM   14  C10 UNL     1      24.050   2.329  52.784  1.00  0.00     0.004 A 
HETATM   15  C11 UNL     1      23.232   1.294  52.517  1.00  0.00     0.017 A 
HETATM   16  C12 UNL     1      22.338   1.652  51.426  1.00  0.00     0.009 A 
HETATM   17 BR1  UNL     1      21.007   0.499  50.707  1.00  0.00    -0.051 Br
HETATM   18  C13 UNL     1      22.662   2.886  51.089  1.00  0.00     0.021 A 
ENDBRANCH   5  13
BRANCH   1  19
HETATM   19  N2  UNL     1      26.014   1.818  51.503  1.00  0.00    -0.313 N 
HETATM   20  C4  UNL     1      27.119   1.497  52.302  1.00  0.00     0.224 C 
HETATM   21  O1  UNL     1      28.036   2.319  52.501  1.00  0.00    -0.273 OA
HETATM   22  H9  UNL     1      25.344   1.013  51.451  1.00  0.00     0.170 HD
BRANCH  20  23
HETATM   23  C3  UNL     1      27.227   0.188  52.927  1.00  0.00     0.133 C 
BRANCH  23  24
HETATM   24  C2  UNL     1      27.585   0.180  54.370  1.00  0.00     0.278 C 
BRANCH  24  25
HETATM   25  N1  UNL     1      28.985   0.216  54.604  1.00  0.00     0.079 N 
HETATM   26  C1  UNL     1      29.672  -0.769  53.792  1.00  0.00     0.306 C 
HETATM   27  H4  UNL     1      29.381   1.143  54.409  1.00  0.00     0.315 HD
ENDBRANCH  24  25
ENDBRANCH  23  24
ENDBRANCH  20  23
ENDBRANCH   1  19
TORSDOF 5
ENDMDL
MODEL 5
REMARK VINA RESULT:      -6.9      1.322      1.538
REMARK  5 active torsions:
REMARK  status: ('A' for Active; 'I' for Inactive)
REMARK    1  A    between atoms: N1_2  and  C2_3 
REMARK    2  A    between atoms: C2_3  and  C3_4 
REMARK    3  A    between atoms: C3_4  and  C4_5 
REMARK       I    between atoms: C4_5  and  N2_7 
REMARK    4  A    between atoms: N2_7  and  C5_8 
REMARK    5  A    between atoms: N3_12  and  C9_13 
ROOT
HETATM    1  C5  UNL     1      24.581   0.655  52.877  1.00  0.00     0.112 A 
HETATM    2  C6  UNL     1      24.306  -0.191  53.926  1.00  0.00     0.064 A 
HETATM    3  C7  UNL     1      22.958  -0.479  53.899  1.00  0.00     0.015 A 
HETATM    4  C8  UNL     1      22.515   0.222  52.826  1.00  0.00     0.077 A 
HETATM    5  N3  UNL     1      23.432   0.921  52.169  1.00  0.00    -0.319 N 
HETATM    6  C14 UNL     1      21.118   0.163  52.465  1.00  0.00     0.117 A 
HETATM    7  C15 UNL     1      20.437   0.787  51.379  1.00  0.00     0.109 C 
HETATM    8  N4  UNL     1      19.864   1.287  50.499  1.00  0.00    -0.191 NA
HETATM    9  S1  UNL     1      20.100  -0.763  53.386  1.00  0.00    -0.065 SA
HETATM   10  N5  UNL     1      20.953  -1.583  54.750  1.00  0.00    -0.236 NA
HETATM   11  C16 UNL     1      22.213  -1.319  54.792  1.00  0.00     0.138 A 
HETATM   12  H15 UNL     1      18.700  -0.488  53.461  1.00  0.00     0.121 HD
ENDROOT
BRANCH   5  13
HETATM   13  C9  UNL     1      23.665   1.794  51.080  1.00  0.00     0.139 A 
HETATM   14  C10 UNL     1      24.984   2.260  50.722  1.00  0.00     0.004 A 
HETATM   15  C11 UNL     1      25.110   3.593  50.865  1.00  0.00     0.017 A 
HETATM   16  C12 UNL     1      23.853   4.149  51.341  1.00  0.00     0.009 A 
HETATM   17 BR1  UNL     1      23.561   5.997  51.687  1.00  0.00    -0.051 Br
HETATM   18  C13 UNL     1      23.032   3.124  51.463  1.00  0.00     0.021 A 
ENDBRANCH   5  13
BRANCH   1  19
HETATM   19  N2  UNL     1      25.905   1.145  52.611  1.00  0.00    -0.313 N 
HETATM   20  C4  UNL     1      26.768   1.689  53.569  1.00  0.00     0.224 C 
HETATM   21  O1  UNL     1      26.430   1.786  54.767  1.00  0.00    -0.273 OA
HETATM   22  H9  UNL     1      26.354   1.138  51.664  1.00  0.00     0.170 HD
BRANCH  20  23
HETATM   23  C3  UNL     1      28.092   2.160  53.193  1.00  0.00     0.133 C 
BRANCH  23  24
HETATM   24  C2  UNL     1      29.233   1.298  53.602  1.00  0.00     0.278 C 
BRANCH  24  25
HETATM   25  N1  UNL     1      28.843  -0.018  53.962  1.00  0.00     0.079 N 
HETATM   26  C1  UNL     1      29.922  -0.960  53.738  1.00  0.00     0.306 C 
HETATM   27  H4  UNL     1      28.552  -0.075  54.946  1.00  0.00     0.315 HD
ENDBRANCH  24  25
ENDBRANCH  23  24
ENDBRANCH  20  23
ENDBRANCH   1  19
TORSDOF 5
ENDMDL
MODEL 6
REMARK VINA RESULT:      -6.9      3.272      5.039
REMARK  5 active torsions:
REMARK  status: ('A' for Active; 'I' for Inactive)
REMARK    1  A    between atoms: N1_2  and  C2_3 
REMARK    2  A    between atoms: C2_3  and  C3_4 
REMARK    3  A    between atoms: C3_4  and  C4_5 
REMARK       I    between atoms: C4_5  and  N2_7 
REMARK    4  A    between atoms: N2_7  and  C5_8 
REMARK    5  A    between atoms: N3_12  and  C9_13 
ROOT
HETATM    1  C5  UNL     1      23.410   1.644  51.295  1.00  0.00     0.112 A 
HETATM    2  C6  UNL     1      22.179   1.625  50.682  1.00  0.00     0.064 A 
HETATM    3  C7  UNL     1      21.332   0.856  51.450  1.00  0.00     0.015 A 
HETATM    4  C8  UNL     1      22.121   0.464  52.482  1.00  0.00     0.077 A 
HETATM    5  N3  UNL     1      23.376   0.899  52.452  1.00  0.00    -0.319 N 
HETATM    6  C14 UNL     1      21.571  -0.370  53.523  1.00  0.00     0.117 A 
HETATM    7  C15 UNL     1      22.194  -0.878  54.700  1.00  0.00     0.109 C 
HETATM    8  N4  UNL     1      22.685  -1.302  55.666  1.00  0.00    -0.191 NA
HETATM    9  S1  UNL     1      19.981  -0.824  53.417  1.00  0.00    -0.065 SA
HETATM   10  N5  UNL     1      19.168  -0.164  51.946  1.00  0.00    -0.236 NA
HETATM   11  C16 UNL     1      19.950   0.552  51.213  1.00  0.00     0.138 A 
HETATM   12  H15 UNL     1      19.499  -2.013  54.046  1.00  0.00     0.121 HD
ENDROOT
BRANCH   5  13
HETATM   13  C9  UNL     1      24.624   0.886  53.116  1.00  0.00     0.139 A 
HETATM   14  C10 UNL     1      25.811   1.488  52.559  1.00  0.00     0.004 A 
HETATM   15  C11 UNL     1      26.770   0.579  52.299  1.00  0.00     0.017 A 
HETATM   16  C12 UNL     1      26.296  -0.745  52.673  1.00  0.00     0.009 A 
HETATM   17 BR1  UNL     1      27.314  -2.341  52.485  1.00  0.00    -0.051 Br
HETATM   18  C13 UNL     1      25.075  -0.568  53.138  1.00  0.00     0.021 A 
ENDBRANCH   5  13
BRANCH   1  19
HETATM   19  N2  UNL     1      24.528   2.367  50.755  1.00  0.00    -0.313 N 
HETATM   20  C4  UNL     1      24.558   3.749  50.530  1.00  0.00     0.224 C 
HETATM   21  O1  UNL     1      23.575   4.471  50.795  1.00  0.00    -0.273 OA
HETATM   22  H9  UNL     1      25.437   1.924  50.481  1.00  0.00     0.170 HD
BRANCH  20  23
HETATM   23  C3  UNL     1      25.744   4.384  49.976  1.00  0.00     0.133 C 
BRANCH  23  24
HETATM   24  C2  UNL     1      25.671   5.859  49.798  1.00  0.00     0.278 C 
BRANCH  24  25
HETATM   25  N1  UNL     1      26.918   6.448  49.464  1.00  0.00     0.079 N 
HETATM   26  C1  UNL     1      27.636   5.636  48.502  1.00  0.00     0.306 C 
HETATM   27  H4  UNL     1      26.803   7.394  49.080  1.00  0.00     0.315 HD
ENDBRANCH  24  25
ENDBRANCH  23  24
ENDBRANCH  20  23
ENDBRANCH   1  19
TORSDOF 5
ENDMDL
MODEL 7
REMARK VINA RESULT:      -6.8      2.977      6.156
REMARK  5 active torsions:
REMARK  status: ('A' for Active; 'I' for Inactive)
REMARK    1  A    between atoms: N1_2  and  C2_3 
REMARK    2  A    between atoms: C2_3  and  C3_4 
REMARK    3  A    between atoms: C3_4  and  C4_5 
REMARK       I    between atoms: C4_5  and  N2_7 
REMARK    4  A    between atoms: N2_7  and  C5_8 
REMARK    5  A    between atoms: N3_12  and  C9_13 
ROOT
HETATM    1  C5  UNL     1      22.267   1.051  51.932  1.00  0.00     0.112 A 
HETATM    2  C6  UNL     1      22.574   0.143  52.918  1.00  0.00     0.064 A 
HETATM    3  C7  UNL     1      23.936   0.182  53.124  1.00  0.00     0.015 A 
HETATM    4  C8  UNL     1      24.355   1.120  52.238  1.00  0.00     0.077 A 
HETATM    5  N3  UNL     1      23.409   1.681  51.494  1.00  0.00    -0.319 N 
HETATM    6  C14 UNL     1      25.758   1.452  52.163  1.00  0.00     0.117 A 
HETATM    7  C15 UNL     1      26.419   2.409  51.338  1.00  0.00     0.109 C 
HETATM    8  N4  UNL     1      26.976   3.185  50.674  1.00  0.00    -0.191 NA
HETATM    9  S1  UNL     1      26.814   0.665  53.167  1.00  0.00    -0.065 SA
HETATM   10  N5  UNL     1      25.989  -0.532  54.239  1.00  0.00    -0.236 NA
HETATM   11  C16 UNL     1      24.715  -0.584  54.054  1.00  0.00     0.138 A 
HETATM   12  H15 UNL     1      28.194   0.514  52.832  1.00  0.00     0.121 HD
ENDROOT
BRANCH   5  13
HETATM   13  C9  UNL     1      23.143   2.623  50.473  1.00  0.00     0.139 A 
HETATM   14  C10 UNL     1      24.076   2.906  49.409  1.00  0.00     0.004 A 
HETATM   15  C11 UNL     1      24.525   4.175  49.448  1.00  0.00     0.017 A 
HETATM   16  C12 UNL     1      23.913   4.870  50.569  1.00  0.00     0.009 A 
HETATM   17 BR1  UNL     1      24.252   6.689  51.017  1.00  0.00    -0.051 Br
HETATM   18  C13 UNL     1      23.127   3.986  51.152  1.00  0.00     0.021 A 
ENDBRANCH   5  13
BRANCH   1  19
HETATM   19  N2  UNL     1      20.921   1.269  51.478  1.00  0.00    -0.313 N 
HETATM   20  C4  UNL     1      20.015   2.169  52.053  1.00  0.00     0.224 C 
HETATM   21  O1  UNL     1      20.331   2.868  53.037  1.00  0.00    -0.273 OA
HETATM   22  H9  UNL     1      20.489   0.773  50.663  1.00  0.00     0.170 HD
BRANCH  20  23
HETATM   23  C3  UNL     1      18.671   2.313  51.515  1.00  0.00     0.133 C 
BRANCH  23  24
HETATM   24  C2  UNL     1      18.509   3.304  50.418  1.00  0.00     0.278 C 
BRANCH  24  25
HETATM   25  N1  UNL     1      19.521   4.299  50.404  1.00  0.00     0.079 N 
HETATM   26  C1  UNL     1      19.076   5.483  49.698  1.00  0.00     0.306 C 
HETATM   27  H4  UNL     1      19.808   4.566  51.353  1.00  0.00     0.315 HD
ENDBRANCH  24  25
ENDBRANCH  23  24
ENDBRANCH  20  23
ENDBRANCH   1  19
TORSDOF 5
ENDMDL
MODEL 8
REMARK VINA RESULT:      -6.7      2.819      5.913
REMARK  5 active torsions:
REMARK  status: ('A' for Active; 'I' for Inactive)
REMARK    1  A    between atoms: N1_2  and  C2_3 
REMARK    2  A    between atoms: C2_3  and  C3_4 
REMARK    3  A    between atoms: C3_4  and  C4_5 
REMARK       I    between atoms: C4_5  and  N2_7 
REMARK    4  A    between atoms: N2_7  and  C5_8 
REMARK    5  A    between atoms: N3_12  and  C9_13 
ROOT
HETATM    1  C5  UNL     1      23.412  -0.108  53.149  1.00  0.00     0.112 A 
HETATM    2  C6  UNL     1      24.381  -0.520  54.033  1.00  0.00     0.064 A 
HETATM    3  C7  UNL     1      25.503   0.254  53.826  1.00  0.00     0.015 A 
HETATM    4  C8  UNL     1      25.125   1.084  52.822  1.00  0.00     0.077 A 
HETATM    5  N3  UNL     1      23.886   0.923  52.370  1.00  0.00    -0.319 N 
HETATM    6  C14 UNL     1      26.055   2.069  52.324  1.00  0.00     0.117 A 
HETATM    7  C15 UNL     1      25.874   3.051  51.306  1.00  0.00     0.109 C 
HETATM    8  N4  UNL     1      25.746   3.859  50.479  1.00  0.00    -0.191 NA
HETATM    9  S1  UNL     1      27.565   2.146  53.000  1.00  0.00    -0.065 SA
HETATM   10  N5  UNL     1      27.801   0.927  54.311  1.00  0.00    -0.236 NA
HETATM   11  C16 UNL     1      26.761   0.192  54.512  1.00  0.00     0.138 A 
HETATM   12  H15 UNL     1      28.682   2.667  52.278  1.00  0.00     0.121 HD
ENDROOT
BRANCH   5  13
HETATM   13  C9  UNL     1      22.923   1.378  51.440  1.00  0.00     0.139 A 
HETATM   14  C10 UNL     1      23.274   1.863  50.127  1.00  0.00     0.004 A 
HETATM   15  C11 UNL     1      22.969   3.165  49.966  1.00  0.00     0.017 A 
HETATM   16  C12 UNL     1      22.368   3.676  51.188  1.00  0.00     0.009 A 
HETATM   17 BR1  UNL     1      21.776   5.469  51.424  1.00  0.00    -0.051 Br
HETATM   18  C13 UNL     1      22.343   2.658  52.026  1.00  0.00     0.021 A 
ENDBRANCH   5  13
BRANCH   1  19
HETATM   19  N2  UNL     1      22.106  -0.705  53.105  1.00  0.00    -0.313 N 
HETATM   20  C4  UNL     1      21.438  -1.259  54.204  1.00  0.00     0.224 C 
HETATM   21  O1  UNL     1      21.954  -1.268  55.340  1.00  0.00    -0.273 OA
HETATM   22  H9  UNL     1      21.524  -0.780  52.237  1.00  0.00     0.170 HD
BRANCH  20  23
HETATM   23  C3  UNL     1      20.114  -1.842  54.051  1.00  0.00     0.133 C 
BRANCH  23  24
HETATM   24  C2  UNL     1      19.069  -0.949  53.483  1.00  0.00     0.278 C 
BRANCH  24  25
HETATM   25  N1  UNL     1      17.748  -1.340  53.823  1.00  0.00     0.079 N 
HETATM   26  C1  UNL     1      16.896  -1.368  52.651  1.00  0.00     0.306 C 
HETATM   27  H4  UNL     1      17.726  -2.264  54.272  1.00  0.00     0.315 HD
ENDBRANCH  24  25
ENDBRANCH  23  24
ENDBRANCH  20  23
ENDBRANCH   1  19
TORSDOF 5
ENDMDL
MODEL 9
REMARK VINA RESULT:      -6.6      2.257      2.691
REMARK  5 active torsions:
REMARK  status: ('A' for Active; 'I' for Inactive)
REMARK    1  A    between atoms: N1_2  and  C2_3 
REMARK    2  A    between atoms: C2_3  and  C3_4 
REMARK    3  A    between atoms: C3_4  and  C4_5 
REMARK       I    between atoms: C4_5  and  N2_7 
REMARK    4  A    between atoms: N2_7  and  C5_8 
REMARK    5  A    between atoms: N3_12  and  C9_13 
ROOT
HETATM    1  C5  UNL     1      24.843   2.096  52.170  1.00  0.00     0.112 A 
HETATM    2  C6  UNL     1      24.021   1.597  53.154  1.00  0.00     0.064 A 
HETATM    3  C7  UNL     1      22.810   1.280  52.577  1.00  0.00     0.015 A 
HETATM    4  C8  UNL     1      22.992   1.613  51.275  1.00  0.00     0.077 A 
HETATM    5  N3  UNL     1      24.184   2.107  50.962  1.00  0.00    -0.319 N 
HETATM    6  C14 UNL     1      21.917   1.412  50.332  1.00  0.00     0.117 A 
HETATM    7  C15 UNL     1      21.886   1.663  48.929  1.00  0.00     0.109 C 
HETATM    8  N4  UNL     1      21.841   1.860  47.783  1.00  0.00    -0.191 NA
HETATM    9  S1  UNL     1      20.489   0.779  50.881  1.00  0.00    -0.065 SA
HETATM   10  N5  UNL     1      20.521   0.429  52.652  1.00  0.00    -0.236 NA
HETATM   11  C16 UNL     1      21.646   0.726  53.207  1.00  0.00     0.138 A 
HETATM   12  H15 UNL     1      19.253   1.027  50.209  1.00  0.00     0.121 HD
ENDROOT
BRANCH   5  13
HETATM   13  C9  UNL     1      24.990   2.618  49.918  1.00  0.00     0.139 A 
HETATM   14  C10 UNL     1      26.407   2.848  50.068  1.00  0.00     0.004 A 
HETATM   15  C11 UNL     1      26.726   4.151  49.959  1.00  0.00     0.017 A 
HETATM   16  C12 UNL     1      25.519   4.927  49.719  1.00  0.00     0.009 A 
HETATM   17 BR1  UNL     1      25.485   6.817  49.499  1.00  0.00    -0.051 Br
HETATM   18  C13 UNL     1      24.532   4.053  49.695  1.00  0.00     0.021 A 
ENDBRANCH   5  13
BRANCH   1  19
HETATM   19  N2  UNL     1      26.190   2.518  52.433  1.00  0.00    -0.313 N 
HETATM   20  C4  UNL     1      27.060   1.908  53.346  1.00  0.00     0.224 C 
HETATM   21  O1  UNL     1      26.706   0.916  54.015  1.00  0.00    -0.273 OA
HETATM   22  H9  UNL     1      26.655   3.329  51.960  1.00  0.00     0.170 HD
BRANCH  20  23
HETATM   23  C3  UNL     1      28.409   2.417  53.539  1.00  0.00     0.133 C 
BRANCH  23  24
HETATM   24  C2  UNL     1      29.342   1.528  54.281  1.00  0.00     0.278 C 
BRANCH  24  25
HETATM   25  N1  UNL     1      30.041   0.620  53.443  1.00  0.00     0.079 N 
HETATM   26  C1  UNL     1      29.693  -0.751  53.758  1.00  0.00     0.306 C 
HETATM   27  H4  UNL     1      29.849   0.792  52.449  1.00  0.00     0.315 HD
ENDBRANCH  24  25
ENDBRANCH  23  24
ENDBRANCH  20  23
ENDBRANCH   1  19
TORSDOF 5
ENDMDL
