MODEL 1
REMARK VINA RESULT:      -7.6      0.000      0.000
REMARK  10 active torsions:
REMARK  status: ('A' for Active; 'I' for Inactive)
REMARK    1  A    between atoms: C2_2  and  C3_3 
REMARK    2  A    between atoms: C3_3  and  N4_25 
REMARK    3  A    between atoms: C4_4  and  C5_5 
REMARK    4  A    between atoms: C8_10  and  N3_11 
REMARK    5  A    between atoms: N3_11  and  C9_12 
REMARK    6  A    between atoms: C9_12  and  C12_15 
REMARK    7  A    between atoms: C13_16  and  O1_17 
REMARK    8  A    between atoms: O1_17  and  C14_18 
REMARK    9  A    between atoms: C14_18  and  C15_19 
REMARK   10  A    between atoms: C15_19  and  C16_20 
REMARK       I    between atoms: N4_25  and  C19_26 
REMARK       I    between atoms: C19_26  and  N5_27 
ROOT
HETATM    1  C5  UNL     1      23.972  -0.288  53.970  1.00  0.00     0.010 A 
HETATM    2  C6  UNL     1      23.602  -1.055  55.184  1.00  0.00     0.192 A 
HETATM    3  N1  UNL     1      22.268  -1.551  55.047  1.00  0.00    -0.278 NA
HETATM    4  C7  UNL     1      21.497  -1.373  54.050  1.00  0.00     0.229 A 
HETATM    5  N2  UNL     1      21.877  -0.633  52.902  1.00  0.00    -0.224 NA
HETATM    6  C8  UNL     1      23.053  -0.111  52.851  1.00  0.00     0.137 A 
ENDROOT
BRANCH   6   7
HETATM    7  N3  UNL     1      23.362   0.629  51.660  1.00  0.00    -0.340 N 
HETATM    8  H7  UNL     1      24.078   0.176  51.025  1.00  0.00     0.167 HD
BRANCH   7   9
HETATM    9  C9  UNL     1      22.725   1.887  51.388  1.00  0.00     0.038 C 
HETATM   10  C10 UNL     1      21.755   2.051  50.505  1.00  0.00    -0.001 C 
HETATM   11  C11 UNL     1      21.315   0.833  49.760  1.00  0.00     0.038 C 
BRANCH   9  12
HETATM   12  C12 UNL     1      23.272   2.967  52.199  1.00  0.00     0.004 A 
HETATM   13  C13 UNL     1      23.296   4.348  52.188  1.00  0.00     0.059 A 
HETATM   14  C18 UNL     1      23.973   3.679  53.262  1.00  0.00     0.108 A 
BRANCH  13  15
HETATM   15  O1  UNL     1      23.081   5.688  51.810  1.00  0.00    -0.354 OA
BRANCH  15  16
HETATM   16  C14 UNL     1      23.943   6.321  50.884  1.00  0.00     0.182 C 
BRANCH  16  17
HETATM   17  C15 UNL     1      23.880   5.550  49.565  1.00  0.00     0.097 C 
BRANCH  17  18
HETATM   18  C16 UNL     1      25.228   4.986  49.228  1.00  0.00     0.106 C 
HETATM   19  F1  UNL     1      25.220   3.614  49.258  1.00  0.00    -0.210 F 
HETATM   20  C17 UNL     1      26.334   5.671  48.930  1.00  0.00     0.122 C 
HETATM   21 CL1  UNL     1      27.825   4.794  48.564  1.00  0.00    -0.094 Cl
ENDBRANCH  17  18
ENDBRANCH  16  17
ENDBRANCH  15  16
ENDBRANCH  13  15
ENDBRANCH   9  12
ENDBRANCH   7   9
ENDBRANCH   6   7
BRANCH   1  22
HETATM   22  C4  UNL     1      25.169   0.282  53.839  1.00  0.00     0.051 C 
HETATM   23  C3  UNL     1      26.440  -0.057  53.277  1.00  0.00     0.079 C 
BRANCH  23  24
HETATM   24  C2  UNL     1      26.550  -1.250  52.705  1.00  0.00    -0.126 C 
HETATM   25  C1  UNL     1      26.905  -2.447  52.286  1.00  0.00     0.099 C 
ENDBRANCH  23  24
BRANCH  23  26
HETATM   26  N4  UNL     1      27.647   0.690  53.224  1.00  0.00    -0.302 N 
HETATM   27  C19 UNL     1      28.643   0.590  54.181  1.00  0.00     0.318 C 
HETATM   28  N5  UNL     1      29.755   1.458  53.881  1.00  0.00    -0.352 N 
HETATM   29  O2  UNL     1      28.555  -0.162  55.159  1.00  0.00    -0.247 OA
HETATM   30  H20 UNL     1      30.665   0.951  53.838  1.00  0.00     0.160 HD
HETATM   31  H21 UNL     1      29.570   2.476  53.737  1.00  0.00     0.160 HD
HETATM   32  H19 UNL     1      27.639   1.306  52.357  1.00  0.00     0.171 HD
ENDBRANCH  23  26
ENDBRANCH   1  22
TORSDOF 10
ENDMDL
MODEL 2
REMARK VINA RESULT:      -7.2      2.793      3.797
REMARK  10 active torsions:
REMARK  status: ('A' for Active; 'I' for Inactive)
REMARK    1  A    between atoms: C2_2  and  C3_3 
REMARK    2  A    between atoms: C3_3  and  N4_25 
REMARK    3  A    between atoms: C4_4  and  C5_5 
REMARK    4  A    between atoms: C8_10  and  N3_11 
REMARK    5  A    between atoms: N3_11  and  C9_12 
REMARK    6  A    between atoms: C9_12  and  C12_15 
REMARK    7  A    between atoms: C13_16  and  O1_17 
REMARK    8  A    between atoms: O1_17  and  C14_18 
REMARK    9  A    between atoms: C14_18  and  C15_19 
REMARK   10  A    between atoms: C15_19  and  C16_20 
REMARK       I    between atoms: N4_25  and  C19_26 
REMARK       I    between atoms: C19_26  and  N5_27 
ROOT
HETATM    1  C5  UNL     1      24.077   1.466  52.932  1.00  0.00     0.010 A 
HETATM    2  C6  UNL     1      23.327   0.189  53.015  1.00  0.00     0.192 A 
HETATM    3  N1  UNL     1      22.106   0.304  52.283  1.00  0.00    -0.278 NA
HETATM    4  C7  UNL     1      21.700   1.333  51.650  1.00  0.00     0.229 A 
HETATM    5  N2  UNL     1      22.437   2.541  51.589  1.00  0.00    -0.224 NA
HETATM    6  C8  UNL     1      23.571   2.618  52.196  1.00  0.00     0.137 A 
ENDROOT
BRANCH   6   7
HETATM    7  N3  UNL     1      24.255   3.877  52.093  1.00  0.00    -0.340 N 
HETATM    8  H7  UNL     1      24.519   4.320  53.018  1.00  0.00     0.167 HD
BRANCH   7   9
HETATM    9  C9  UNL     1      24.540   4.459  50.811  1.00  0.00     0.038 C 
HETATM   10  C10 UNL     1      23.877   5.481  50.298  1.00  0.00    -0.001 C 
HETATM   11  C11 UNL     1      22.767   6.044  51.125  1.00  0.00     0.038 C 
BRANCH   9  12
HETATM   12  C12 UNL     1      25.648   3.792  50.139  1.00  0.00     0.004 A 
HETATM   13  C13 UNL     1      26.740   4.141  49.368  1.00  0.00     0.059 A 
HETATM   14  C18 UNL     1      26.541   2.748  49.651  1.00  0.00     0.108 A 
BRANCH  13  15
HETATM   15  O1  UNL     1      27.685   4.900  48.652  1.00  0.00    -0.354 OA
BRANCH  15  16
HETATM   16  C14 UNL     1      27.541   6.302  48.533  1.00  0.00     0.182 C 
BRANCH  16  17
HETATM   17  C15 UNL     1      28.581   6.809  47.533  1.00  0.00     0.097 C 
BRANCH  17  18
HETATM   18  C16 UNL     1      29.560   7.716  48.216  1.00  0.00     0.106 C 
HETATM   19  F1  UNL     1      30.854   7.324  47.982  1.00  0.00    -0.210 F 
HETATM   20  C17 UNL     1      29.278   8.781  48.969  1.00  0.00     0.122 C 
HETATM   21 CL1  UNL     1      30.601   9.713  49.683  1.00  0.00    -0.094 Cl
ENDBRANCH  17  18
ENDBRANCH  16  17
ENDBRANCH  15  16
ENDBRANCH  13  15
ENDBRANCH   9  12
ENDBRANCH   7   9
ENDBRANCH   6   7
BRANCH   1  22
HETATM   22  C4  UNL     1      25.257   1.626  53.530  1.00  0.00     0.051 C 
HETATM   23  C3  UNL     1      26.509   0.938  53.587  1.00  0.00     0.079 C 
BRANCH  23  24
HETATM   24  C2  UNL     1      26.619  -0.179  52.877  1.00  0.00    -0.126 C 
HETATM   25  C1  UNL     1      26.837  -1.393  52.417  1.00  0.00     0.099 C 
ENDBRANCH  23  24
BRANCH  23  26
HETATM   26  N4  UNL     1      27.698   1.256  54.297  1.00  0.00    -0.302 N 
HETATM   27  C19 UNL     1      28.673   2.105  53.801  1.00  0.00     0.318 C 
HETATM   28  N5  UNL     1      29.769   2.251  54.728  1.00  0.00    -0.352 N 
HETATM   29  O2  UNL     1      28.580   2.655  52.697  1.00  0.00    -0.247 OA
HETATM   30  H20 UNL     1      29.965   3.246  54.970  1.00  0.00     0.160 HD
HETATM   31  H21 UNL     1      30.256   1.391  55.065  1.00  0.00     0.160 HD
HETATM   32  H19 UNL     1      27.695   0.745  55.229  1.00  0.00     0.171 HD
ENDBRANCH  23  26
ENDBRANCH   1  22
TORSDOF 10
ENDMDL
MODEL 3
REMARK VINA RESULT:      -7.2      1.512      2.341
REMARK  10 active torsions:
REMARK  status: ('A' for Active; 'I' for Inactive)
REMARK    1  A    between atoms: C2_2  and  C3_3 
REMARK    2  A    between atoms: C3_3  and  N4_25 
REMARK    3  A    between atoms: C4_4  and  C5_5 
REMARK    4  A    between atoms: C8_10  and  N3_11 
REMARK    5  A    between atoms: N3_11  and  C9_12 
REMARK    6  A    between atoms: C9_12  and  C12_15 
REMARK    7  A    between atoms: C13_16  and  O1_17 
REMARK    8  A    between atoms: O1_17  and  C14_18 
REMARK    9  A    between atoms: C14_18  and  C15_19 
REMARK   10  A    between atoms: C15_19  and  C16_20 
REMARK       I    between atoms: N4_25  and  C19_26 
REMARK       I    between atoms: C19_26  and  N5_27 
ROOT
HETATM    1  C5  UNL     1      24.247  -0.452  54.363  1.00  0.00     0.010 A 
HETATM    2  C6  UNL     1      23.666  -1.326  55.411  1.00  0.00     0.192 A 
HETATM    3  N1  UNL     1      22.378  -1.783  54.991  1.00  0.00    -0.278 NA
HETATM    4  C7  UNL     1      21.798  -1.497  53.893  1.00  0.00     0.229 A 
HETATM    5  N2  UNL     1      22.378  -0.658  52.910  1.00  0.00    -0.224 NA
HETATM    6  C8  UNL     1      23.544  -0.153  53.121  1.00  0.00     0.137 A 
ENDROOT
BRANCH   6   7
HETATM    7  N3  UNL     1      24.061   0.693  52.082  1.00  0.00    -0.340 N 
HETATM    8  H7  UNL     1      25.001   0.399  51.692  1.00  0.00     0.167 HD
BRANCH   7   9
HETATM    9  C9  UNL     1      23.326   1.843  51.634  1.00  0.00     0.038 C 
HETATM   10  C10 UNL     1      23.425   3.044  52.177  1.00  0.00    -0.001 C 
HETATM   11  C11 UNL     1      24.368   3.182  53.328  1.00  0.00     0.038 C 
BRANCH   9  12
HETATM   12  C12 UNL     1      22.456   1.533  50.506  1.00  0.00     0.004 A 
HETATM   13  C13 UNL     1      22.314   1.911  49.185  1.00  0.00     0.059 A 
HETATM   14  C18 UNL     1      21.394   0.939  49.702  1.00  0.00     0.108 A 
BRANCH  13  15
HETATM   15  O1  UNL     1      22.517   2.550  47.946  1.00  0.00    -0.354 OA
BRANCH  15  16
HETATM   16  C14 UNL     1      22.336   3.947  47.818  1.00  0.00     0.182 C 
BRANCH  16  17
HETATM   17  C15 UNL     1      22.879   4.619  49.080  1.00  0.00     0.097 C 
BRANCH  17  18
HETATM   18  C16 UNL     1      24.349   4.876  48.938  1.00  0.00     0.106 C 
HETATM   19  F1  UNL     1      25.083   3.743  49.186  1.00  0.00    -0.210 F 
HETATM   20  C17 UNL     1      24.936   6.032  48.618  1.00  0.00     0.122 C 
HETATM   21 CL1  UNL     1      26.699   6.107  48.507  1.00  0.00    -0.094 Cl
ENDBRANCH  17  18
ENDBRANCH  16  17
ENDBRANCH  15  16
ENDBRANCH  13  15
ENDBRANCH   9  12
ENDBRANCH   7   9
ENDBRANCH   6   7
BRANCH   1  22
HETATM   22  C4  UNL     1      25.448   0.108  54.505  1.00  0.00     0.051 C 
HETATM   23  C3  UNL     1      26.777  -0.120  54.029  1.00  0.00     0.079 C 
BRANCH  23  24
HETATM   24  C2  UNL     1      26.960  -1.152  53.214  1.00  0.00    -0.126 C 
HETATM   25  C1  UNL     1      26.862  -2.144  52.353  1.00  0.00     0.099 C 
ENDBRANCH  23  24
BRANCH  23  26
HETATM   26  N4  UNL     1      27.978   0.594  54.287  1.00  0.00    -0.302 N 
HETATM   27  C19 UNL     1      28.382   1.691  53.546  1.00  0.00     0.318 C 
HETATM   28  N5  UNL     1      29.635   2.222  54.025  1.00  0.00    -0.352 N 
HETATM   29  O2  UNL     1      27.723   2.135  52.598  1.00  0.00    -0.247 OA
HETATM   30  H20 UNL     1      29.582   3.235  54.262  1.00  0.00     0.160 HD
HETATM   31  H21 UNL     1      30.456   1.580  54.092  1.00  0.00     0.160 HD
HETATM   32  H19 UNL     1      28.479   0.148  55.113  1.00  0.00     0.171 HD
ENDBRANCH  23  26
ENDBRANCH   1  22
TORSDOF 10
ENDMDL
MODEL 4
REMARK VINA RESULT:      -7.1      4.249      6.481
REMARK  10 active torsions:
REMARK  status: ('A' for Active; 'I' for Inactive)
REMARK    1  A    between atoms: C2_2  and  C3_3 
REMARK    2  A    between atoms: C3_3  and  N4_25 
REMARK    3  A    between atoms: C4_4  and  C5_5 
REMARK    4  A    between atoms: C8_10  and  N3_11 
REMARK    5  A    between atoms: N3_11  and  C9_12 
REMARK    6  A    between atoms: C9_12  and  C12_15 
REMARK    7  A    between atoms: C13_16  and  O1_17 
REMARK    8  A    between atoms: O1_17  and  C14_18 
REMARK    9  A    between atoms: C14_18  and  C15_19 
REMARK   10  A    between atoms: C15_19  and  C16_20 
REMARK       I    between atoms: N4_25  and  C19_26 
REMARK       I    between atoms: C19_26  and  N5_27 
ROOT
HETATM    1  C5  UNL     1      24.536   2.339  51.545  1.00  0.00     0.010 A 
HETATM    2  C6  UNL     1      24.988   3.448  50.671  1.00  0.00     0.192 A 
HETATM    3  N1  UNL     1      24.078   4.544  50.782  1.00  0.00    -0.278 NA
HETATM    4  C7  UNL     1      23.034   4.586  51.510  1.00  0.00     0.229 A 
HETATM    5  N2  UNL     1      22.625   3.509  52.335  1.00  0.00    -0.224 NA
HETATM    6  C8  UNL     1      23.332   2.432  52.361  1.00  0.00     0.137 A 
ENDROOT
BRANCH   6   7
HETATM    7  N3  UNL     1      22.849   1.384  53.215  1.00  0.00    -0.340 N 
HETATM    8  H7  UNL     1      23.043   1.522  54.247  1.00  0.00     0.167 HD
BRANCH   7   9
HETATM    9  C9  UNL     1      22.160   0.247  52.671  1.00  0.00     0.038 C 
HETATM   10  C10 UNL     1      22.067  -0.923  53.278  1.00  0.00    -0.001 C 
HETATM   11  C11 UNL     1      22.729  -1.040  54.612  1.00  0.00     0.038 C 
BRANCH   9  12
HETATM   12  C12 UNL     1      21.574   0.532  51.367  1.00  0.00     0.004 A 
HETATM   13  C13 UNL     1      20.317   0.721  50.827  1.00  0.00     0.059 A 
HETATM   14  C18 UNL     1      21.442   0.810  49.941  1.00  0.00     0.108 A 
BRANCH  13  15
HETATM   15  O1  UNL     1      18.920   0.842  50.697  1.00  0.00    -0.354 OA
BRANCH  15  16
HETATM   16  C14 UNL     1      18.066  -0.213  51.095  1.00  0.00     0.182 C 
BRANCH  16  17
HETATM   17  C15 UNL     1      18.007  -0.232  52.624  1.00  0.00     0.097 C 
BRANCH  17  18
HETATM   18  C16 UNL     1      17.912  -1.643  53.122  1.00  0.00     0.106 C 
HETATM   19  F1  UNL     1      19.070  -2.034  53.744  1.00  0.00    -0.210 F 
HETATM   20  C17 UNL     1      16.868  -2.468  53.007  1.00  0.00     0.122 C 
HETATM   21 CL1  UNL     1      16.977  -4.102  53.673  1.00  0.00    -0.094 Cl
ENDBRANCH  17  18
ENDBRANCH  16  17
ENDBRANCH  15  16
ENDBRANCH  13  15
ENDBRANCH   9  12
ENDBRANCH   7   9
ENDBRANCH   6   7
BRANCH   1  22
HETATM   22  C4  UNL     1      25.212   1.193  51.628  1.00  0.00     0.051 C 
HETATM   23  C3  UNL     1      26.489   0.757  52.102  1.00  0.00     0.079 C 
BRANCH  23  24
HETATM   24  C2  UNL     1      27.291   1.681  52.618  1.00  0.00    -0.126 C 
HETATM   25  C1  UNL     1      28.157   2.388  53.314  1.00  0.00     0.099 C 
ENDBRANCH  23  24
BRANCH  23  26
HETATM   26  N4  UNL     1      27.068  -0.540  52.114  1.00  0.00    -0.302 N 
HETATM   27  C19 UNL     1      26.851  -1.457  53.129  1.00  0.00     0.318 C 
HETATM   28  N5  UNL     1      27.558  -2.692  52.887  1.00  0.00    -0.352 N 
HETATM   29  O2  UNL     1      26.133  -1.214  54.106  1.00  0.00    -0.247 OA
HETATM   30  H20 UNL     1      26.934  -3.526  52.903  1.00  0.00     0.160 HD
HETATM   31  H21 UNL     1      28.589  -2.653  52.725  1.00  0.00     0.160 HD
HETATM   32  H19 UNL     1      27.665  -0.665  51.243  1.00  0.00     0.171 HD
ENDBRANCH  23  26
ENDBRANCH   1  22
TORSDOF 10
ENDMDL
MODEL 5
REMARK VINA RESULT:      -7.0      3.617      6.924
REMARK  10 active torsions:
REMARK  status: ('A' for Active; 'I' for Inactive)
REMARK    1  A    between atoms: C2_2  and  C3_3 
REMARK    2  A    between atoms: C3_3  and  N4_25 
REMARK    3  A    between atoms: C4_4  and  C5_5 
REMARK    4  A    between atoms: C8_10  and  N3_11 
REMARK    5  A    between atoms: N3_11  and  C9_12 
REMARK    6  A    between atoms: C9_12  and  C12_15 
REMARK    7  A    between atoms: C13_16  and  O1_17 
REMARK    8  A    between atoms: O1_17  and  C14_18 
REMARK    9  A    between atoms: C14_18  and  C15_19 
REMARK   10  A    between atoms: C15_19  and  C16_20 
REMARK       I    between atoms: N4_25  and  C19_26 
REMARK       I    between atoms: C19_26  and  N5_27 
ROOT
HETATM    1  C5  UNL     1      23.135   4.176  49.325  1.00  0.00     0.010 A 
HETATM    2  C6  UNL     1      22.578   4.318  47.958  1.00  0.00     0.192 A 
HETATM    3  N1  UNL     1      21.657   3.254  47.705  1.00  0.00    -0.278 NA
HETATM    4  C7  UNL     1      21.349   2.318  48.511  1.00  0.00     0.229 A 
HETATM    5  N2  UNL     1      21.899   2.206  49.812  1.00  0.00    -0.224 NA
HETATM    6  C8  UNL     1      22.752   3.085  50.212  1.00  0.00     0.137 A 
ENDROOT
BRANCH   6   7
HETATM    7  N3  UNL     1      23.269   2.900  51.539  1.00  0.00    -0.340 N 
HETATM    8  H7  UNL     1      22.845   3.531  52.277  1.00  0.00     0.167 HD
BRANCH   7   9
HETATM    9  C9  UNL     1      24.286   1.922  51.804  1.00  0.00     0.038 C 
HETATM   10  C10 UNL     1      24.091   0.822  52.511  1.00  0.00    -0.001 C 
HETATM   11  C11 UNL     1      22.715   0.611  53.053  1.00  0.00     0.038 C 
BRANCH   9  12
HETATM   12  C12 UNL     1      25.565   2.282  51.204  1.00  0.00     0.004 A 
HETATM   13  C13 UNL     1      26.890   2.362  51.583  1.00  0.00     0.059 A 
HETATM   14  C18 UNL     1      26.563   2.709  50.230  1.00  0.00     0.108 A 
BRANCH  13  15
HETATM   15  O1  UNL     1      28.068   2.307  52.354  1.00  0.00    -0.354 OA
BRANCH  15  16
HETATM   16  C14 UNL     1      28.001   2.244  53.766  1.00  0.00     0.182 C 
BRANCH  16  17
HETATM   17  C15 UNL     1      27.146   1.036  54.153  1.00  0.00     0.097 C 
BRANCH  17  18
HETATM   18  C16 UNL     1      27.795  -0.231  53.682  1.00  0.00     0.106 C 
HETATM   19  F1  UNL     1      26.969  -0.935  52.843  1.00  0.00    -0.210 F 
HETATM   20  C17 UNL     1      29.012  -0.677  54.000  1.00  0.00     0.122 C 
HETATM   21 CL1  UNL     1      29.578  -2.210  53.324  1.00  0.00    -0.094 Cl
ENDBRANCH  17  18
ENDBRANCH  16  17
ENDBRANCH  15  16
ENDBRANCH  13  15
ENDBRANCH   9  12
ENDBRANCH   7   9
ENDBRANCH   6   7
BRANCH   1  22
HETATM   22  C4  UNL     1      24.021   5.044  49.814  1.00  0.00     0.051 C 
HETATM   23  C3  UNL     1      23.998   6.320  50.458  1.00  0.00     0.079 C 
BRANCH  23  24
HETATM   24  C2  UNL     1      22.808   6.870  50.669  1.00  0.00    -0.126 C 
HETATM   25  C1  UNL     1      21.721   7.613  50.693  1.00  0.00     0.099 C 
ENDBRANCH  23  24
BRANCH  23  26
HETATM   26  N4  UNL     1      25.067   7.130  50.926  1.00  0.00    -0.302 N 
HETATM   27  C19 UNL     1      25.885   7.866  50.086  1.00  0.00     0.318 C 
HETATM   28  N5  UNL     1      26.887   8.595  50.826  1.00  0.00    -0.352 N 
HETATM   29  O2  UNL     1      25.745   7.874  48.857  1.00  0.00    -0.247 OA
HETATM   30  H20 UNL     1      26.877   9.617  50.622  1.00  0.00     0.160 HD
HETATM   31  H21 UNL     1      27.511   8.066  51.475  1.00  0.00     0.160 HD
HETATM   32  H19 UNL     1      25.116   7.065  51.986  1.00  0.00     0.171 HD
ENDBRANCH  23  26
ENDBRANCH   1  22
TORSDOF 10
ENDMDL
MODEL 6
REMARK VINA RESULT:      -6.9      3.217      6.126
REMARK  10 active torsions:
REMARK  status: ('A' for Active; 'I' for Inactive)
REMARK    1  A    between atoms: C2_2  and  C3_3 
REMARK    2  A    between atoms: C3_3  and  N4_25 
REMARK    3  A    between atoms: C4_4  and  C5_5 
REMARK    4  A    between atoms: C8_10  and  N3_11 
REMARK    5  A    between atoms: N3_11  and  C9_12 
REMARK    6  A    between atoms: C9_12  and  C12_15 
REMARK    7  A    between atoms: C13_16  and  O1_17 
REMARK    8  A    between atoms: O1_17  and  C14_18 
REMARK    9  A    between atoms: C14_18  and  C15_19 
REMARK   10  A    between atoms: C15_19  and  C16_20 
REMARK       I    between atoms: N4_25  and  C19_26 
REMARK       I    between atoms: C19_26  and  N5_27 
ROOT
HETATM    1  C5  UNL     1      23.042   3.109  49.146  1.00  0.00     0.010 A 
HETATM    2  C6  UNL     1      22.986   2.472  47.808  1.00  0.00     0.192 A 
HETATM    3  N1  UNL     1      22.011   1.427  47.818  1.00  0.00    -0.278 NA
HETATM    4  C7  UNL     1      21.292   1.076  48.809  1.00  0.00     0.229 A 
HETATM    5  N2  UNL     1      21.368   1.703  50.078  1.00  0.00    -0.224 NA
HETATM    6  C8  UNL     1      22.199   2.673  50.252  1.00  0.00     0.137 A 
ENDROOT
BRANCH   6   7
HETATM    7  N3  UNL     1      22.223   3.251  51.566  1.00  0.00    -0.340 N 
HETATM    8  H7  UNL     1      21.557   4.062  51.710  1.00  0.00     0.167 HD
BRANCH   7   9
HETATM    9  C9  UNL     1      23.101   2.740  52.581  1.00  0.00     0.038 C 
HETATM   10  C10 UNL     1      23.884   3.494  53.332  1.00  0.00    -0.001 C 
HETATM   11  C11 UNL     1      23.830   4.967  53.087  1.00  0.00     0.038 C 
BRANCH   9  12
HETATM   12  C12 UNL     1      23.030   1.288  52.689  1.00  0.00     0.004 A 
HETATM   13  C13 UNL     1      23.884   0.235  52.956  1.00  0.00     0.059 A 
HETATM   14  C18 UNL     1      22.507  -0.074  52.695  1.00  0.00     0.108 A 
BRANCH  13  15
HETATM   15  O1  UNL     1      25.044  -0.503  53.260  1.00  0.00    -0.354 OA
BRANCH  15  16
HETATM   16  C14 UNL     1      25.750  -0.271  54.463  1.00  0.00     0.182 C 
BRANCH  16  17
HETATM   17  C15 UNL     1      26.522   1.042  54.321  1.00  0.00     0.097 C 
BRANCH  17  18
HETATM   18  C16 UNL     1      27.926   0.772  53.869  1.00  0.00     0.106 C 
HETATM   19  F1  UNL     1      28.431   1.824  53.148  1.00  0.00    -0.210 F 
HETATM   20  C17 UNL     1      28.648  -0.327  54.100  1.00  0.00     0.122 C 
HETATM   21 CL1  UNL     1      30.295  -0.431  53.466  1.00  0.00    -0.094 Cl
ENDBRANCH  17  18
ENDBRANCH  16  17
ENDBRANCH  15  16
ENDBRANCH  13  15
ENDBRANCH   9  12
ENDBRANCH   7   9
ENDBRANCH   6   7
BRANCH   1  22
HETATM   22  C4  UNL     1      23.873   4.118  49.407  1.00  0.00     0.051 C 
HETATM   23  C3  UNL     1      25.203   4.283  49.905  1.00  0.00     0.079 C 
BRANCH  23  24
HETATM   24  C2  UNL     1      25.873   3.181  50.219  1.00  0.00    -0.126 C 
HETATM   25  C1  UNL     1      26.288   2.007  50.646  1.00  0.00     0.099 C 
ENDBRANCH  23  24
BRANCH  23  26
HETATM   26  N4  UNL     1      25.957   5.467  50.129  1.00  0.00    -0.302 N 
HETATM   27  C19 UNL     1      25.383   6.721  50.243  1.00  0.00     0.318 C 
HETATM   28  N5  UNL     1      26.378   7.741  50.468  1.00  0.00    -0.352 N 
HETATM   29  O2  UNL     1      24.163   6.907  50.159  1.00  0.00    -0.247 OA
HETATM   30  H20 UNL     1      26.192   8.308  51.322  1.00  0.00     0.160 HD
HETATM   31  H21 UNL     1      27.168   7.827  49.789  1.00  0.00     0.160 HD
HETATM   32  H19 UNL     1      26.989   5.217  50.189  1.00  0.00     0.171 HD
ENDBRANCH  23  26
ENDBRANCH   1  22
TORSDOF 10
ENDMDL
MODEL 7
REMARK VINA RESULT:      -6.9      2.207      3.014
REMARK  10 active torsions:
REMARK  status: ('A' for Active; 'I' for Inactive)
REMARK    1  A    between atoms: C2_2  and  C3_3 
REMARK    2  A    between atoms: C3_3  and  N4_25 
REMARK    3  A    between atoms: C4_4  and  C5_5 
REMARK    4  A    between atoms: C8_10  and  N3_11 
REMARK    5  A    between atoms: N3_11  and  C9_12 
REMARK    6  A    between atoms: C9_12  and  C12_15 
REMARK    7  A    between atoms: C13_16  and  O1_17 
REMARK    8  A    between atoms: O1_17  and  C14_18 
REMARK    9  A    between atoms: C14_18  and  C15_19 
REMARK   10  A    between atoms: C15_19  and  C16_20 
REMARK       I    between atoms: N4_25  and  C19_26 
REMARK       I    between atoms: C19_26  and  N5_27 
ROOT
HETATM    1  C5  UNL     1      24.005   1.144  52.748  1.00  0.00     0.010 A 
HETATM    2  C6  UNL     1      22.922   0.369  53.399  1.00  0.00     0.192 A 
HETATM    3  N1  UNL     1      21.806   0.271  52.512  1.00  0.00    -0.278 NA
HETATM    4  C7  UNL     1      21.729   0.764  51.340  1.00  0.00     0.229 A 
HETATM    5  N2  UNL     1      22.780   1.502  50.743  1.00  0.00    -0.224 NA
HETATM    6  C8  UNL     1      23.871   1.691  51.403  1.00  0.00     0.137 A 
ENDROOT
BRANCH   6   7
HETATM    7  N3  UNL     1      24.886   2.454  50.734  1.00  0.00    -0.340 N 
HETATM    8  H7  UNL     1      25.650   1.879  50.276  1.00  0.00     0.167 HD
BRANCH   7   9
HETATM    9  C9  UNL     1      24.836   3.889  50.710  1.00  0.00     0.038 C 
HETATM   10  C10 UNL     1      25.688   4.650  50.044  1.00  0.00    -0.001 C 
HETATM   11  C11 UNL     1      26.759   3.944  49.278  1.00  0.00     0.038 C 
BRANCH   9  12
HETATM   12  C12 UNL     1      23.733   4.413  51.506  1.00  0.00     0.004 A 
HETATM   13  C13 UNL     1      22.609   5.192  51.316  1.00  0.00     0.059 A 
HETATM   14  C18 UNL     1      22.863   4.703  52.640  1.00  0.00     0.108 A 
BRANCH  13  15
HETATM   15  O1  UNL     1      21.618   5.987  50.706  1.00  0.00    -0.354 OA
BRANCH  15  16
HETATM   16  C14 UNL     1      21.723   7.397  50.711  1.00  0.00     0.182 C 
BRANCH  16  17
HETATM   17  C15 UNL     1      23.196   7.770  50.540  1.00  0.00     0.097 C 
BRANCH  17  18
HETATM   18  C16 UNL     1      23.501   8.036  49.097  1.00  0.00     0.106 C 
HETATM   19  F1  UNL     1      23.600   9.381  48.845  1.00  0.00    -0.210 F 
HETATM   20  C17 UNL     1      23.665   7.130  48.130  1.00  0.00     0.122 C 
HETATM   21 CL1  UNL     1      24.020   7.673  46.485  1.00  0.00    -0.094 Cl
ENDBRANCH  17  18
ENDBRANCH  16  17
ENDBRANCH  15  16
ENDBRANCH  13  15
ENDBRANCH   9  12
ENDBRANCH   7   9
ENDBRANCH   6   7
BRANCH   1  22
HETATM   22  C4  UNL     1      25.164   1.382  53.362  1.00  0.00     0.051 C 
HETATM   23  C3  UNL     1      26.388   0.685  53.605  1.00  0.00     0.079 C 
BRANCH  23  24
HETATM   24  C2  UNL     1      26.490  -0.546  53.119  1.00  0.00    -0.126 C 
HETATM   25  C1  UNL     1      26.824  -1.663  52.507  1.00  0.00     0.099 C 
ENDBRANCH  23  24
BRANCH  23  26
HETATM   26  N4  UNL     1      27.556   1.099  54.301  1.00  0.00    -0.302 N 
HETATM   27  C19 UNL     1      28.503   1.947  53.754  1.00  0.00     0.318 C 
HETATM   28  N5  UNL     1      29.583   2.202  54.677  1.00  0.00    -0.352 N 
HETATM   29  O2  UNL     1      28.403   2.413  52.613  1.00  0.00    -0.247 OA
HETATM   30  H20 UNL     1      29.738   3.217  54.849  1.00  0.00     0.160 HD
HETATM   31  H21 UNL     1      30.098   1.387  55.079  1.00  0.00     0.160 HD
HETATM   32  H19 UNL     1      27.562   0.656  55.267  1.00  0.00     0.171 HD
ENDBRANCH  23  26
ENDBRANCH   1  22
TORSDOF 10
ENDMDL
MODEL 8
REMARK VINA RESULT:      -6.9      2.402      4.128
REMARK  10 active torsions:
REMARK  status: ('A' for Active; 'I' for Inactive)
REMARK    1  A    between atoms: C2_2  and  C3_3 
REMARK    2  A    between atoms: C3_3  and  N4_25 
REMARK    3  A    between atoms: C4_4  and  C5_5 
REMARK    4  A    between atoms: C8_10  and  N3_11 
REMARK    5  A    between atoms: N3_11  and  C9_12 
REMARK    6  A    between atoms: C9_12  and  C12_15 
REMARK    7  A    between atoms: C13_16  and  O1_17 
REMARK    8  A    between atoms: O1_17  and  C14_18 
REMARK    9  A    between atoms: C14_18  and  C15_19 
REMARK   10  A    between atoms: C15_19  and  C16_20 
REMARK       I    between atoms: N4_25  and  C19_26 
REMARK       I    between atoms: C19_26  and  N5_27 
ROOT
HETATM    1  C5  UNL     1      23.707   2.571  52.799  1.00  0.00     0.010 A 
HETATM    2  C6  UNL     1      24.019   4.014  52.946  1.00  0.00     0.192 A 
HETATM    3  N1  UNL     1      22.865   4.788  52.613  1.00  0.00    -0.278 NA
HETATM    4  C7  UNL     1      21.734   4.334  52.243  1.00  0.00     0.229 A 
HETATM    5  N2  UNL     1      21.464   2.949  52.110  1.00  0.00    -0.224 NA
HETATM    6  C8  UNL     1      22.396   2.098  52.371  1.00  0.00     0.137 A 
ENDROOT
BRANCH   6   7
HETATM    7  N3  UNL     1      22.049   0.715  52.206  1.00  0.00    -0.340 N 
HETATM    8  H7  UNL     1      22.814   0.107  51.798  1.00  0.00     0.167 HD
BRANCH   7   9
HETATM    9  C9  UNL     1      20.749   0.232  52.579  1.00  0.00     0.038 C 
HETATM   10  C10 UNL     1      20.464  -0.298  53.756  1.00  0.00    -0.001 C 
HETATM   11  C11 UNL     1      21.586  -0.385  54.740  1.00  0.00     0.038 C 
BRANCH   9  12
HETATM   12  C12 UNL     1      19.774   0.392  51.506  1.00  0.00     0.004 A 
HETATM   13  C13 UNL     1      19.750   0.841  50.201  1.00  0.00     0.059 A 
HETATM   14  C18 UNL     1      18.518   0.373  50.767  1.00  0.00     0.108 A 
BRANCH  13  15
HETATM   15  O1  UNL     1      20.155   1.364  48.957  1.00  0.00    -0.354 OA
BRANCH  15  16
HETATM   16  C14 UNL     1      21.504   1.267  48.541  1.00  0.00     0.182 C 
BRANCH  16  17
HETATM   17  C15 UNL     1      21.866   2.548  47.787  1.00  0.00     0.097 C 
BRANCH  17  18
HETATM   18  C16 UNL     1      22.880   3.336  48.561  1.00  0.00     0.106 C 
HETATM   19  F1  UNL     1      23.580   2.537  49.429  1.00  0.00    -0.210 F 
HETATM   20  C17 UNL     1      23.121   4.646  48.469  1.00  0.00     0.122 C 
HETATM   21 CL1  UNL     1      24.372   5.371  49.486  1.00  0.00    -0.094 Cl
ENDBRANCH  17  18
ENDBRANCH  16  17
ENDBRANCH  15  16
ENDBRANCH  13  15
ENDBRANCH   9  12
ENDBRANCH   7   9
ENDBRANCH   6   7
BRANCH   1  22
HETATM   22  C4  UNL     1      24.615   1.629  53.051  1.00  0.00     0.051 C 
HETATM   23  C3  UNL     1      25.863   1.198  52.502  1.00  0.00     0.079 C 
BRANCH  23  24
HETATM   24  C2  UNL     1      26.324   1.862  51.449  1.00  0.00    -0.126 C 
HETATM   25  C1  UNL     1      26.595   2.723  50.490  1.00  0.00     0.099 C 
ENDBRANCH  23  24
BRANCH  23  26
HETATM   26  N4  UNL     1      26.725   0.142  52.905  1.00  0.00    -0.302 N 
HETATM   27  C19 UNL     1      27.630   0.259  53.946  1.00  0.00     0.318 C 
HETATM   28  N5  UNL     1      28.376  -0.962  54.139  1.00  0.00    -0.352 N 
HETATM   29  O2  UNL     1      27.756   1.296  54.608  1.00  0.00    -0.247 OA
HETATM   30  H20 UNL     1      28.312  -1.325  55.114  1.00  0.00     0.160 HD
HETATM   31  H21 UNL     1      28.894  -1.364  53.327  1.00  0.00     0.160 HD
HETATM   32  H19 UNL     1      26.552  -0.706  52.288  1.00  0.00     0.171 HD
ENDBRANCH  23  26
ENDBRANCH   1  22
TORSDOF 10
ENDMDL
MODEL 9
REMARK VINA RESULT:      -6.9      3.869      6.965
REMARK  10 active torsions:
REMARK  status: ('A' for Active; 'I' for Inactive)
REMARK    1  A    between atoms: C2_2  and  C3_3 
REMARK    2  A    between atoms: C3_3  and  N4_25 
REMARK    3  A    between atoms: C4_4  and  C5_5 
REMARK    4  A    between atoms: C8_10  and  N3_11 
REMARK    5  A    between atoms: N3_11  and  C9_12 
REMARK    6  A    between atoms: C9_12  and  C12_15 
REMARK    7  A    between atoms: C13_16  and  O1_17 
REMARK    8  A    between atoms: O1_17  and  C14_18 
REMARK    9  A    between atoms: C14_18  and  C15_19 
REMARK   10  A    between atoms: C15_19  and  C16_20 
REMARK       I    between atoms: N4_25  and  C19_26 
REMARK       I    between atoms: C19_26  and  N5_27 
ROOT
HETATM    1  C5  UNL     1      23.190   3.592  48.932  1.00  0.00     0.010 A 
HETATM    2  C6  UNL     1      22.408   3.903  47.711  1.00  0.00     0.192 A 
HETATM    3  N1  UNL     1      21.482   2.846  47.455  1.00  0.00    -0.278 NA
HETATM    4  C7  UNL     1      21.333   1.789  48.150  1.00  0.00     0.229 A 
HETATM    5  N2  UNL     1      22.096   1.516  49.312  1.00  0.00    -0.224 NA
HETATM    6  C8  UNL     1      22.985   2.367  49.696  1.00  0.00     0.137 A 
ENDROOT
BRANCH   6   7
HETATM    7  N3  UNL     1      23.722   2.017  50.877  1.00  0.00    -0.340 N 
HETATM    8  H7  UNL     1      24.533   1.355  50.719  1.00  0.00     0.167 HD
BRANCH   7   9
HETATM    9  C9  UNL     1      23.353   2.546  52.160  1.00  0.00     0.038 C 
HETATM   10  C10 UNL     1      24.221   2.926  53.083  1.00  0.00    -0.001 C 
HETATM   11  C11 UNL     1      25.668   2.784  52.739  1.00  0.00     0.038 C 
BRANCH   9  12
HETATM   12  C12 UNL     1      21.907   2.617  52.331  1.00  0.00     0.004 A 
HETATM   13  C13 UNL     1      20.893   1.824  52.830  1.00  0.00     0.059 A 
HETATM   14  C18 UNL     1      20.534   3.109  52.303  1.00  0.00     0.108 A 
BRANCH  13  15
HETATM   15  O1  UNL     1      20.201   0.744  53.413  1.00  0.00    -0.354 OA
BRANCH  15  16
HETATM   16  C14 UNL     1      20.710   0.101  54.565  1.00  0.00     0.182 C 
BRANCH  16  17
HETATM   17  C15 UNL     1      21.505  -1.127  54.118  1.00  0.00     0.097 C 
BRANCH  17  18
HETATM   18  C16 UNL     1      22.939  -0.999  54.539  1.00  0.00     0.106 C 
HETATM   19  F1  UNL     1      23.104  -1.326  55.861  1.00  0.00    -0.210 F 
HETATM   20  C17 UNL     1      23.969  -0.619  53.779  1.00  0.00     0.122 C 
HETATM   21 CL1  UNL     1      25.586  -0.537  54.489  1.00  0.00    -0.094 Cl
ENDBRANCH  17  18
ENDBRANCH  16  17
ENDBRANCH  15  16
ENDBRANCH  13  15
ENDBRANCH   9  12
ENDBRANCH   7   9
ENDBRANCH   6   7
BRANCH   1  22
HETATM   22  C4  UNL     1      24.126   4.420  49.394  1.00  0.00     0.051 C 
HETATM   23  C3  UNL     1      24.184   5.587  50.219  1.00  0.00     0.079 C 
BRANCH  23  24
HETATM   24  C2  UNL     1      23.035   6.043  50.703  1.00  0.00    -0.126 C 
HETATM   25  C1  UNL     1      21.826   6.218  51.195  1.00  0.00     0.099 C 
ENDBRANCH  23  24
BRANCH  23  26
HETATM   26  N4  UNL     1      25.299   6.369  50.623  1.00  0.00    -0.302 N 
HETATM   27  C19 UNL     1      25.694   7.522  49.965  1.00  0.00     0.318 C 
HETATM   28  N5  UNL     1      26.853   8.115  50.587  1.00  0.00    -0.352 N 
HETATM   29  O2  UNL     1      25.102   7.959  48.972  1.00  0.00    -0.247 OA
HETATM   30  H20 UNL     1      26.704   9.112  50.853  1.00  0.00     0.160 HD
HETATM   31  H21 UNL     1      27.707   7.528  50.715  1.00  0.00     0.160 HD
HETATM   32  H19 UNL     1      25.746   5.924  51.479  1.00  0.00     0.171 HD
ENDBRANCH  23  26
ENDBRANCH   1  22
TORSDOF 10
ENDMDL
