MODEL 1
REMARK VINA RESULT:      -8.2      0.000      0.000
REMARK  6 active torsions:
REMARK  status: ('A' for Active; 'I' for Inactive)
REMARK    1  A    between atoms: O1_1  and  C1_2 
REMARK    2  A    between atoms: C3_5  and  N1_6 
REMARK    3  A    between atoms: N1_6  and  C4_7 
REMARK    4  A    between atoms: C4_7  and  C5_8 
REMARK    5  A    between atoms: C4_7  and  C12_18 
REMARK    6  A    between atoms: C5_8  and  C6_9 
ROOT
HETATM    1  C4  UNL     1      24.048   0.461  52.723  1.00  0.00     0.118 C 
ENDROOT
BRANCH   1   2
HETATM    2  N1  UNL     1      24.520  -0.626  53.520  1.00  0.00    -0.360 N 
HETATM    3  H3  UNL     1      24.262  -1.436  54.162  1.00  0.00     0.162 HD
BRANCH   2   4
HETATM    4  C3  UNL     1      25.966  -0.703  53.490  1.00  0.00     0.169 A 
HETATM    5  S1  UNL     1      27.493   0.422  53.807  1.00  0.00    -0.060 SA
HETATM    6  C2  UNL     1      28.663  -0.913  53.422  1.00  0.00     0.111 A 
HETATM    7  C1  UNL     1      27.741  -2.017  53.109  1.00  0.00     0.171 A 
HETATM    8  N3  UNL     1      26.443  -1.811  53.172  1.00  0.00    -0.200 NA
BRANCH   7   9
HETATM    9  O1  UNL     1      28.300  -3.271  52.749  1.00  0.00    -0.344 OA
HETATM   10  H1  UNL     1      28.555  -3.947  53.422  1.00  0.00     0.219 HD
ENDBRANCH   7   9
ENDBRANCH   2   4
ENDBRANCH   1   2
BRANCH   1  11
HETATM   11  C5  UNL     1      24.458   1.772  53.300  1.00  0.00     0.053 C 
BRANCH  11  12
HETATM   12  C6  UNL     1      24.545   2.810  52.218  1.00  0.00     0.085 C 
HETATM   13  C7  UNL     1      25.901   2.817  51.607  1.00  0.00    -0.006 C 
HETATM   14  C8  UNL     1      26.538   3.488  50.654  1.00  0.00     0.017 C 
HETATM   15  C9  UNL     1      26.302   4.546  49.704  1.00  0.00     0.010 C 
HETATM   16 BR1  UNL     1      27.744   4.926  48.510  1.00  0.00    -0.051 Br
HETATM   17  C10 UNL     1      25.295   5.378  49.418  1.00  0.00     0.021 C 
HETATM   18  C11 UNL     1      23.956   5.506  50.038  1.00  0.00     0.030 C 
HETATM   19  P1  UNL     1      23.329   4.997  51.517  1.00  0.00     0.028 P 
HETATM   20  N2  UNL     1      24.223   4.089  52.816  1.00  0.00    -0.284 NA
HETATM   21  H12 UNL     1      25.082   4.674  52.968  1.00  0.00     0.128 HD
ENDBRANCH  11  12
ENDBRANCH   1  11
BRANCH   1  22
HETATM   22  C12 UNL     1      22.581   0.302  52.538  1.00  0.00    -0.035 A 
HETATM   23  C13 UNL     1      22.010  -0.035  53.774  1.00  0.00     0.009 A 
HETATM   24  C14 UNL     1      20.636  -0.258  53.929  1.00  0.00     0.001 A 
HETATM   25  C15 UNL     1      19.844  -0.134  52.809  1.00  0.00     0.000 A 
HETATM   26  C16 UNL     1      20.391   0.196  51.589  1.00  0.00     0.001 A 
HETATM   27  C17 UNL     1      21.740   0.411  51.451  1.00  0.00     0.009 A 
ENDBRANCH   1  22
TORSDOF 6
ENDMDL
MODEL 2
REMARK VINA RESULT:      -8.2      3.873      5.712
REMARK  6 active torsions:
REMARK  status: ('A' for Active; 'I' for Inactive)
REMARK    1  A    between atoms: O1_1  and  C1_2 
REMARK    2  A    between atoms: C3_5  and  N1_6 
REMARK    3  A    between atoms: N1_6  and  C4_7 
REMARK    4  A    between atoms: C4_7  and  C5_8 
REMARK    5  A    between atoms: C4_7  and  C12_18 
REMARK    6  A    between atoms: C5_8  and  C6_9 
ROOT
HETATM    1  C4  UNL     1      25.934   2.576  50.899  1.00  0.00     0.118 C 
ENDROOT
BRANCH   1   2
HETATM    2  N1  UNL     1      24.592   2.110  50.750  1.00  0.00    -0.360 N 
HETATM    3  H3  UNL     1      23.953   1.339  50.388  1.00  0.00     0.162 HD
BRANCH   2   4
HETATM    4  C3  UNL     1      23.648   3.060  51.303  1.00  0.00     0.169 A 
HETATM    5  S1  UNL     1      21.811   3.584  51.087  1.00  0.00    -0.060 SA
HETATM    6  C2  UNL     1      21.933   4.852  52.383  1.00  0.00     0.111 A 
HETATM    7  C1  UNL     1      23.338   4.703  52.796  1.00  0.00     0.171 A 
HETATM    8  N3  UNL     1      24.091   3.799  52.207  1.00  0.00    -0.200 NA
BRANCH   7   9
HETATM    9  O1  UNL     1      23.824   5.551  53.825  1.00  0.00    -0.344 OA
HETATM   10  H1  UNL     1      23.482   6.468  53.957  1.00  0.00     0.219 HD
ENDBRANCH   7   9
ENDBRANCH   2   4
ENDBRANCH   1   2
BRANCH   1  11
HETATM   11  C5  UNL     1      26.580   2.792  49.574  1.00  0.00     0.053 C 
BRANCH  11  12
HETATM   12  C6  UNL     1      26.499   4.241  49.187  1.00  0.00     0.085 C 
HETATM   13  C7  UNL     1      27.804   4.714  48.655  1.00  0.00    -0.006 C 
HETATM   14  C8  UNL     1      28.312   5.847  48.182  1.00  0.00     0.017 C 
HETATM   15  C9  UNL     1      27.917   7.208  47.921  1.00  0.00     0.010 C 
HETATM   16 BR1  UNL     1      29.234   8.309  47.083  1.00  0.00    -0.051 Br
HETATM   17  C10 UNL     1      26.820   7.949  48.117  1.00  0.00     0.021 C 
HETATM   18  C11 UNL     1      25.520   7.587  48.727  1.00  0.00     0.030 C 
HETATM   19  P1  UNL     1      25.042   6.323  49.733  1.00  0.00     0.028 P 
HETATM   20  N2  UNL     1      26.101   4.984  50.365  1.00  0.00    -0.284 NA
HETATM   21  H12 UNL     1      26.911   5.500  50.789  1.00  0.00     0.128 HD
ENDBRANCH  11  12
ENDBRANCH   1  11
BRANCH   1  22
HETATM   22  C12 UNL     1      26.659   1.633  51.792  1.00  0.00    -0.035 A 
HETATM   23  C13 UNL     1      27.576   2.366  52.561  1.00  0.00     0.009 A 
HETATM   24  C14 UNL     1      28.418   1.759  53.501  1.00  0.00     0.001 A 
HETATM   25  C15 UNL     1      28.320   0.394  53.652  1.00  0.00     0.000 A 
HETATM   26  C16 UNL     1      27.424  -0.338  52.904  1.00  0.00     0.001 A 
HETATM   27  C17 UNL     1      26.604   0.269  51.985  1.00  0.00     0.009 A 
ENDBRANCH   1  22
TORSDOF 6
ENDMDL
MODEL 3
REMARK VINA RESULT:      -8.2      4.156      5.963
REMARK  6 active torsions:
REMARK  status: ('A' for Active; 'I' for Inactive)
REMARK    1  A    between atoms: O1_1  and  C1_2 
REMARK    2  A    between atoms: C3_5  and  N1_6 
REMARK    3  A    between atoms: N1_6  and  C4_7 
REMARK    4  A    between atoms: C4_7  and  C5_8 
REMARK    5  A    between atoms: C4_7  and  C12_18 
REMARK    6  A    between atoms: C5_8  and  C6_9 
ROOT
HETATM    1  C4  UNL     1      24.532   3.126  51.199  1.00  0.00     0.118 C 
ENDROOT
BRANCH   1   2
HETATM    2  N1  UNL     1      23.170   2.973  51.598  1.00  0.00    -0.360 N 
HETATM    3  H3  UNL     1      22.471   2.424  52.186  1.00  0.00     0.162 HD
BRANCH   2   4
HETATM    4  C3  UNL     1      22.324   3.951  50.944  1.00  0.00     0.169 A 
HETATM    5  S1  UNL     1      21.055   4.048  49.503  1.00  0.00    -0.060 SA
HETATM    6  C2  UNL     1      20.761   5.822  49.770  1.00  0.00     0.111 A 
HETATM    7  C1  UNL     1      21.659   6.090  50.905  1.00  0.00     0.171 A 
HETATM    8  N3  UNL     1      22.379   5.109  51.405  1.00  0.00    -0.200 NA
BRANCH   7   9
HETATM    9  O1  UNL     1      21.710   7.413  51.417  1.00  0.00    -0.344 OA
HETATM   10  H1  UNL     1      22.135   8.154  50.922  1.00  0.00     0.219 HD
ENDBRANCH   7   9
ENDBRANCH   2   4
ENDBRANCH   1   2
BRANCH   1  11
HETATM   11  C5  UNL     1      24.646   3.318  49.726  1.00  0.00     0.053 C 
BRANCH  11  12
HETATM   12  C6  UNL     1      25.429   4.564  49.424  1.00  0.00     0.085 C 
HETATM   13  C7  UNL     1      26.806   4.221  48.979  1.00  0.00    -0.006 C 
HETATM   14  C8  UNL     1      27.899   4.873  48.598  1.00  0.00     0.017 C 
HETATM   15  C9  UNL     1      28.366   6.222  48.402  1.00  0.00     0.010 C 
HETATM   16 BR1  UNL     1      30.130   6.395  47.690  1.00  0.00    -0.051 Br
HETATM   17  C10 UNL     1      27.873   7.451  48.595  1.00  0.00     0.021 C 
HETATM   18  C11 UNL     1      26.558   7.880  49.124  1.00  0.00     0.030 C 
HETATM   19  P1  UNL     1      25.378   7.090  50.030  1.00  0.00     0.028 P 
HETATM   20  N2  UNL     1      25.442   5.371  50.626  1.00  0.00    -0.284 NA
HETATM   21  H12 UNL     1      26.369   5.323  51.116  1.00  0.00     0.128 HD
ENDBRANCH  11  12
ENDBRANCH   1  11
BRANCH   1  22
HETATM   22  C12 UNL     1      25.308   1.974  51.732  1.00  0.00    -0.035 A 
HETATM   23  C13 UNL     1      24.429   1.131  52.430  1.00  0.00     0.009 A 
HETATM   24  C14 UNL     1      24.859  -0.045  53.056  1.00  0.00     0.001 A 
HETATM   25  C15 UNL     1      26.197  -0.358  52.967  1.00  0.00     0.000 A 
HETATM   26  C16 UNL     1      27.071   0.460  52.285  1.00  0.00     0.001 A 
HETATM   27  C17 UNL     1      26.637   1.611  51.676  1.00  0.00     0.009 A 
ENDBRANCH   1  22
TORSDOF 6
ENDMDL
MODEL 4
REMARK VINA RESULT:      -8.1      2.434      4.927
REMARK  6 active torsions:
REMARK  status: ('A' for Active; 'I' for Inactive)
REMARK    1  A    between atoms: O1_1  and  C1_2 
REMARK    2  A    between atoms: C3_5  and  N1_6 
REMARK    3  A    between atoms: N1_6  and  C4_7 
REMARK    4  A    between atoms: C4_7  and  C5_8 
REMARK    5  A    between atoms: C4_7  and  C12_18 
REMARK    6  A    between atoms: C5_8  and  C6_9 
ROOT
HETATM    1  C4  UNL     1      25.446   1.195  52.756  1.00  0.00     0.118 C 
ENDROOT
BRANCH   1   2
HETATM    2  N1  UNL     1      24.842   0.032  53.321  1.00  0.00    -0.360 N 
HETATM    3  H3  UNL     1      24.993  -0.945  53.721  1.00  0.00     0.162 HD
BRANCH   2   4
HETATM    4  C3  UNL     1      23.403   0.180  53.401  1.00  0.00     0.169 A 
HETATM    5  S1  UNL     1      22.025   1.374  52.792  1.00  0.00    -0.060 SA
HETATM    6  C2  UNL     1      20.712   0.396  53.580  1.00  0.00     0.111 A 
HETATM    7  C1  UNL     1      21.495  -0.691  54.190  1.00  0.00     0.171 A 
HETATM    8  N3  UNL     1      22.803  -0.705  54.044  1.00  0.00    -0.200 NA
BRANCH   7   9
HETATM    9  O1  UNL     1      20.796  -1.689  54.918  1.00  0.00    -0.344 OA
HETATM   10  H1  UNL     1      21.257  -2.453  55.340  1.00  0.00     0.219 HD
ENDBRANCH   7   9
ENDBRANCH   2   4
ENDBRANCH   1   2
BRANCH   1  11
HETATM   11  C5  UNL     1      25.234   1.254  51.283  1.00  0.00     0.053 C 
BRANCH  11  12
HETATM   12  C6  UNL     1      25.097   2.680  50.834  1.00  0.00     0.085 C 
HETATM   13  C7  UNL     1      26.318   3.119  50.107  1.00  0.00    -0.006 C 
HETATM   14  C8  UNL     1      26.754   4.224  49.511  1.00  0.00     0.017 C 
HETATM   15  C9  UNL     1      26.323   5.571  49.234  1.00  0.00     0.010 C 
HETATM   16 BR1  UNL     1      27.513   6.620  48.170  1.00  0.00    -0.051 Br
HETATM   17  C10 UNL     1      25.261   6.325  49.536  1.00  0.00     0.021 C 
HETATM   18  C11 UNL     1      24.055   6.002  50.334  1.00  0.00     0.030 C 
HETATM   19  P1  UNL     1      23.721   4.794  51.460  1.00  0.00     0.028 P 
HETATM   20  N2  UNL     1      24.859   3.486  52.014  1.00  0.00    -0.284 NA
HETATM   21  H12 UNL     1      25.717   4.021  52.298  1.00  0.00     0.128 HD
ENDBRANCH  11  12
ENDBRANCH   1  11
BRANCH   1  22
HETATM   22  C12 UNL     1      26.873   1.231  53.175  1.00  0.00    -0.035 A 
HETATM   23  C13 UNL     1      27.372  -0.080  53.166  1.00  0.00     0.009 A 
HETATM   24  C14 UNL     1      28.694  -0.380  53.519  1.00  0.00     0.001 A 
HETATM   25  C15 UNL     1      29.507   0.670  53.884  1.00  0.00     0.000 A 
HETATM   26  C16 UNL     1      29.030   1.962  53.897  1.00  0.00     0.001 A 
HETATM   27  C17 UNL     1      27.733   2.243  53.549  1.00  0.00     0.009 A 
ENDBRANCH   1  22
TORSDOF 6
ENDMDL
MODEL 5
REMARK VINA RESULT:      -8.1      3.143      5.798
REMARK  6 active torsions:
REMARK  status: ('A' for Active; 'I' for Inactive)
REMARK    1  A    between atoms: O1_1  and  C1_2 
REMARK    2  A    between atoms: C3_5  and  N1_6 
REMARK    3  A    between atoms: N1_6  and  C4_7 
REMARK    4  A    between atoms: C4_7  and  C5_8 
REMARK    5  A    between atoms: C4_7  and  C12_18 
REMARK    6  A    between atoms: C5_8  and  C6_9 
ROOT
HETATM    1  C4  UNL     1      24.572   2.556  52.257  1.00  0.00     0.118 C 
ENDROOT
BRANCH   1   2
HETATM    2  N1  UNL     1      25.209   2.919  53.482  1.00  0.00    -0.360 N 
HETATM    3  H3  UNL     1      25.285   3.635  54.268  1.00  0.00     0.162 HD
BRANCH   2   4
HETATM    4  C3  UNL     1      26.197   1.931  53.867  1.00  0.00     0.169 A 
HETATM    5  S1  UNL     1      26.273   0.129  54.532  1.00  0.00    -0.060 SA
HETATM    6  C2  UNL     1      28.090   0.127  54.562  1.00  0.00     0.111 A 
HETATM    7  C1  UNL     1      28.383   1.482  54.067  1.00  0.00     0.171 A 
HETATM    8  N3  UNL     1      27.388   2.285  53.755  1.00  0.00    -0.200 NA
BRANCH   7   9
HETATM    9  O1  UNL     1      29.744   1.868  53.947  1.00  0.00    -0.344 OA
HETATM   10  H1  UNL     1      30.040   2.800  54.076  1.00  0.00     0.219 HD
ENDBRANCH   7   9
ENDBRANCH   2   4
ENDBRANCH   1   2
BRANCH   1  11
HETATM   11  C5  UNL     1      24.475   1.076  52.116  1.00  0.00     0.053 C 
BRANCH  11  12
HETATM   12  C6  UNL     1      23.052   0.630  52.294  1.00  0.00     0.085 C 
HETATM   13  C7  UNL     1      22.198   1.153  51.194  1.00  0.00    -0.006 C 
HETATM   14  C8  UNL     1      20.919   1.094  50.839  1.00  0.00     0.017 C 
HETATM   15  C9  UNL     1      19.676   0.518  51.287  1.00  0.00     0.010 C 
HETATM   16 BR1  UNL     1      18.176   0.785  50.136  1.00  0.00    -0.051 Br
HETATM   17  C10 UNL     1      19.267  -0.189  52.347  1.00  0.00     0.021 C 
HETATM   18  C11 UNL     1      20.023  -0.663  53.529  1.00  0.00     0.030 C 
HETATM   19  P1  UNL     1      21.496  -0.200  54.203  1.00  0.00     0.028 P 
HETATM   20  N2  UNL     1      22.606   1.105  53.588  1.00  0.00    -0.284 NA
HETATM   21  H12 UNL     1      21.971   1.936  53.498  1.00  0.00     0.128 HD
ENDBRANCH  11  12
ENDBRANCH   1  11
BRANCH   1  22
HETATM   22  C12 UNL     1      25.282   3.236  51.142  1.00  0.00    -0.035 A 
HETATM   23  C13 UNL     1      24.599   4.424  50.838  1.00  0.00     0.009 A 
HETATM   24  C14 UNL     1      25.021   5.291  49.823  1.00  0.00     0.001 A 
HETATM   25  C15 UNL     1      26.149   4.939  49.115  1.00  0.00     0.000 A 
HETATM   26  C16 UNL     1      26.829   3.776  49.403  1.00  0.00     0.001 A 
HETATM   27  C17 UNL     1      26.405   2.934  50.401  1.00  0.00     0.009 A 
ENDBRANCH   1  22
TORSDOF 6
ENDMDL
MODEL 6
REMARK VINA RESULT:      -8.1      1.584      1.909
REMARK  6 active torsions:
REMARK  status: ('A' for Active; 'I' for Inactive)
REMARK    1  A    between atoms: O1_1  and  C1_2 
REMARK    2  A    between atoms: C3_5  and  N1_6 
REMARK    3  A    between atoms: N1_6  and  C4_7 
REMARK    4  A    between atoms: C4_7  and  C5_8 
REMARK    5  A    between atoms: C4_7  and  C12_18 
REMARK    6  A    between atoms: C5_8  and  C6_9 
ROOT
HETATM    1  C4  UNL     1      24.164   0.592  52.813  1.00  0.00     0.118 C 
ENDROOT
BRANCH   1   2
HETATM    2  N1  UNL     1      24.660  -0.540  53.527  1.00  0.00    -0.360 N 
HETATM    3  H3  UNL     1      24.424  -1.380  54.140  1.00  0.00     0.162 HD
BRANCH   2   4
HETATM    4  C3  UNL     1      26.102  -0.632  53.417  1.00  0.00     0.169 A 
HETATM    5  S1  UNL     1      27.646   0.509  53.506  1.00  0.00    -0.060 SA
HETATM    6  C2  UNL     1      28.789  -0.872  53.209  1.00  0.00     0.111 A 
HETATM    7  C1  UNL     1      27.848  -1.997  53.085  1.00  0.00     0.171 A 
HETATM    8  N3  UNL     1      26.557  -1.774  53.203  1.00  0.00    -0.200 NA
BRANCH   7   9
HETATM    9  O1  UNL     1      28.383  -3.289  52.840  1.00  0.00    -0.344 OA
HETATM   10  H1  UNL     1      29.084  -3.450  52.165  1.00  0.00     0.219 HD
ENDBRANCH   7   9
ENDBRANCH   2   4
ENDBRANCH   1   2
BRANCH   1  11
HETATM   11  C5  UNL     1      24.551   1.865  53.481  1.00  0.00     0.053 C 
BRANCH  11  12
HETATM   12  C6  UNL     1      24.809   2.932  52.456  1.00  0.00     0.085 C 
HETATM   13  C7  UNL     1      23.724   3.949  52.476  1.00  0.00    -0.006 C 
HETATM   14  C8  UNL     1      23.424   5.067  51.824  1.00  0.00     0.017 C 
HETATM   15  C9  UNL     1      23.944   5.905  50.773  1.00  0.00     0.010 C 
HETATM   16 BR1  UNL     1      22.964   7.507  50.427  1.00  0.00    -0.051 Br
HETATM   17  C10 UNL     1      24.982   5.862  49.930  1.00  0.00     0.021 C 
HETATM   18  C11 UNL     1      26.046   4.843  49.776  1.00  0.00     0.030 C 
HETATM   19  P1  UNL     1      26.165   3.234  50.260  1.00  0.00     0.028 P 
HETATM   20  N2  UNL     1      24.907   2.281  51.166  1.00  0.00    -0.284 NA
HETATM   21  H12 UNL     1      24.040   2.424  50.592  1.00  0.00     0.128 HD
ENDBRANCH  11  12
ENDBRANCH   1  11
BRANCH   1  22
HETATM   22  C12 UNL     1      22.699   0.417  52.621  1.00  0.00    -0.035 A 
HETATM   23  C13 UNL     1      22.129   0.057  53.852  1.00  0.00     0.009 A 
HETATM   24  C14 UNL     1      20.758  -0.184  53.999  1.00  0.00     0.001 A 
HETATM   25  C15 UNL     1      19.967  -0.055  52.879  1.00  0.00     0.000 A 
HETATM   26  C16 UNL     1      20.513   0.298  51.665  1.00  0.00     0.001 A 
HETATM   27  C17 UNL     1      21.859   0.531  51.533  1.00  0.00     0.009 A 
ENDBRANCH   1  22
TORSDOF 6
ENDMDL
MODEL 7
REMARK VINA RESULT:      -8.0      3.374      6.304
REMARK  6 active torsions:
REMARK  status: ('A' for Active; 'I' for Inactive)
REMARK    1  A    between atoms: O1_1  and  C1_2 
REMARK    2  A    between atoms: C3_5  and  N1_6 
REMARK    3  A    between atoms: N1_6  and  C4_7 
REMARK    4  A    between atoms: C4_7  and  C5_8 
REMARK    5  A    between atoms: C4_7  and  C12_18 
REMARK    6  A    between atoms: C5_8  and  C6_9 
ROOT
HETATM    1  C4  UNL     1      25.532   3.523  50.037  1.00  0.00     0.118 C 
ENDROOT
BRANCH   1   2
HETATM    2  N1  UNL     1      26.543   2.514  50.036  1.00  0.00    -0.360 N 
HETATM    3  H3  UNL     1      27.260   1.973  49.463  1.00  0.00     0.162 HD
BRANCH   2   4
HETATM    4  C3  UNL     1      26.695   1.930  51.354  1.00  0.00     0.169 A 
HETATM    5  S1  UNL     1      25.974   0.489  52.402  1.00  0.00    -0.060 SA
HETATM    6  C2  UNL     1      27.033   0.883  53.825  1.00  0.00     0.111 A 
HETATM    7  C1  UNL     1      27.780   2.042  53.311  1.00  0.00     0.171 A 
HETATM    8  N3  UNL     1      27.541   2.475  52.092  1.00  0.00    -0.200 NA
BRANCH   7   9
HETATM    9  O1  UNL     1      28.738   2.650  54.165  1.00  0.00    -0.344 OA
HETATM   10  H1  UNL     1      28.857   3.629  54.211  1.00  0.00     0.219 HD
ENDBRANCH   7   9
ENDBRANCH   2   4
ENDBRANCH   1   2
BRANCH   1  11
HETATM   11  C5  UNL     1      24.332   3.086  49.270  1.00  0.00     0.053 C 
BRANCH  11  12
HETATM   12  C6  UNL     1      23.134   3.022  50.174  1.00  0.00     0.085 C 
HETATM   13  C7  UNL     1      22.964   1.649  50.721  1.00  0.00    -0.006 C 
HETATM   14  C8  UNL     1      22.121   1.020  51.531  1.00  0.00     0.017 C 
HETATM   15  C9  UNL     1      20.940   1.283  52.315  1.00  0.00     0.010 C 
HETATM   16 BR1  UNL     1      20.306  -0.173  53.376  1.00  0.00    -0.051 Br
HETATM   17  C10 UNL     1      20.124   2.326  52.509  1.00  0.00     0.021 C 
HETATM   18  C11 UNL     1      20.162   3.688  51.931  1.00  0.00     0.030 C 
HETATM   19  P1  UNL     1      20.927   4.334  50.576  1.00  0.00     0.028 P 
HETATM   20  N2  UNL     1      21.982   3.434  49.398  1.00  0.00    -0.284 NA
HETATM   21  H12 UNL     1      21.387   2.614  49.123  1.00  0.00     0.128 HD
ENDBRANCH  11  12
ENDBRANCH   1  11
BRANCH   1  22
HETATM   22  C12 UNL     1      26.140   4.793  49.559  1.00  0.00    -0.035 A 
HETATM   23  C13 UNL     1      27.337   4.490  48.893  1.00  0.00     0.009 A 
HETATM   24  C14 UNL     1      28.150   5.481  48.328  1.00  0.00     0.001 A 
HETATM   25  C15 UNL     1      27.734   6.788  48.447  1.00  0.00     0.000 A 
HETATM   26  C16 UNL     1      26.561   7.099  49.099  1.00  0.00     0.001 A 
HETATM   27  C17 UNL     1      25.772   6.119  49.649  1.00  0.00     0.009 A 
ENDBRANCH   1  22
TORSDOF 6
ENDMDL
MODEL 8
REMARK VINA RESULT:      -8.0      2.501      3.048
REMARK  6 active torsions:
REMARK  status: ('A' for Active; 'I' for Inactive)
REMARK    1  A    between atoms: O1_1  and  C1_2 
REMARK    2  A    between atoms: C3_5  and  N1_6 
REMARK    3  A    between atoms: N1_6  and  C4_7 
REMARK    4  A    between atoms: C4_7  and  C5_8 
REMARK    5  A    between atoms: C4_7  and  C12_18 
REMARK    6  A    between atoms: C5_8  and  C6_9 
ROOT
HETATM    1  C4  UNL     1      23.966   1.615  52.497  1.00  0.00     0.118 C 
ENDROOT
BRANCH   1   2
HETATM    2  N1  UNL     1      24.894   2.252  53.376  1.00  0.00    -0.360 N 
HETATM    3  H3  UNL     1      25.058   3.030  54.086  1.00  0.00     0.162 HD
BRANCH   2   4
HETATM    4  C3  UNL     1      26.194   1.617  53.306  1.00  0.00     0.169 A 
HETATM    5  S1  UNL     1      27.001   0.022  52.599  1.00  0.00    -0.060 SA
HETATM    6  C2  UNL     1      28.651   0.488  53.202  1.00  0.00     0.111 A 
HETATM    7  C1  UNL     1      28.362   1.778  53.850  1.00  0.00     0.171 A 
HETATM    8  N3  UNL     1      27.131   2.241  53.845  1.00  0.00    -0.200 NA
BRANCH   7   9
HETATM    9  O1  UNL     1      29.439   2.474  54.458  1.00  0.00    -0.344 OA
HETATM   10  H1  UNL     1      29.351   3.403  54.781  1.00  0.00     0.219 HD
ENDBRANCH   7   9
ENDBRANCH   2   4
ENDBRANCH   1   2
BRANCH   1  11
HETATM   11  C5  UNL     1      23.129   2.616  51.777  1.00  0.00     0.053 C 
BRANCH  11  12
HETATM   12  C6  UNL     1      23.996   3.509  50.937  1.00  0.00     0.085 C 
HETATM   13  C7  UNL     1      23.164   4.478  50.175  1.00  0.00    -0.006 C 
HETATM   14  C8  UNL     1      23.364   5.464  49.306  1.00  0.00     0.017 C 
HETATM   15  C9  UNL     1      24.445   6.136  48.631  1.00  0.00     0.010 C 
HETATM   16 BR1  UNL     1      23.947   7.626  47.544  1.00  0.00    -0.051 Br
HETATM   17  C10 UNL     1      25.773   5.991  48.554  1.00  0.00     0.021 C 
HETATM   18  C11 UNL     1      26.664   4.998  49.196  1.00  0.00     0.030 C 
HETATM   19  P1  UNL     1      26.379   3.494  49.901  1.00  0.00     0.028 P 
HETATM   20  N2  UNL     1      24.769   2.660  50.055  1.00  0.00    -0.284 NA
HETATM   21  H12 UNL     1      24.396   2.677  49.074  1.00  0.00     0.128 HD
ENDBRANCH  11  12
ENDBRANCH   1  11
BRANCH   1  22
HETATM   22  C12 UNL     1      23.192   0.615  53.280  1.00  0.00    -0.035 A 
HETATM   23  C13 UNL     1      21.839   0.986  53.263  1.00  0.00     0.009 A 
HETATM   24  C14 UNL     1      20.851   0.243  53.919  1.00  0.00     0.001 A 
HETATM   25  C15 UNL     1      21.251  -0.887  54.597  1.00  0.00     0.000 A 
HETATM   26  C16 UNL     1      22.576  -1.263  54.622  1.00  0.00     0.001 A 
HETATM   27  C17 UNL     1      23.536  -0.526  53.975  1.00  0.00     0.009 A 
ENDBRANCH   1  22
TORSDOF 6
ENDMDL
MODEL 9
REMARK VINA RESULT:      -7.7      4.168      7.518
REMARK  6 active torsions:
REMARK  status: ('A' for Active; 'I' for Inactive)
REMARK    1  A    between atoms: O1_1  and  C1_2 
REMARK    2  A    between atoms: C3_5  and  N1_6 
REMARK    3  A    between atoms: N1_6  and  C4_7 
REMARK    4  A    between atoms: C4_7  and  C5_8 
REMARK    5  A    between atoms: C4_7  and  C12_18 
REMARK    6  A    between atoms: C5_8  and  C6_9 
ROOT
HETATM    1  C4  UNL     1      24.137   4.188  50.039  1.00  0.00     0.118 C 
ENDROOT
BRANCH   1   2
HETATM    2  N1  UNL     1      23.099   4.914  49.381  1.00  0.00    -0.360 N 
HETATM    3  H3  UNL     1      22.848   5.746  48.763  1.00  0.00     0.162 HD
BRANCH   2   4
HETATM    4  C3  UNL     1      21.804   4.316  49.635  1.00  0.00     0.169 A 
HETATM    5  S1  UNL     1      20.148   4.743  50.511  1.00  0.00    -0.060 SA
HETATM    6  C2  UNL     1      19.404   3.145  50.068  1.00  0.00     0.111 A 
HETATM    7  C1  UNL     1      20.507   2.515  49.324  1.00  0.00     0.171 A 
HETATM    8  N3  UNL     1      21.637   3.171  49.168  1.00  0.00    -0.200 NA
BRANCH   7   9
HETATM    9  O1  UNL     1      20.299   1.212  48.800  1.00  0.00    -0.344 OA
HETATM   10  H1  UNL     1      20.178   0.424  49.382  1.00  0.00     0.219 HD
ENDBRANCH   7   9
ENDBRANCH   2   4
ENDBRANCH   1   2
BRANCH   1  11
HETATM   11  C5  UNL     1      24.027   4.310  51.520  1.00  0.00     0.053 C 
BRANCH  11  12
HETATM   12  C6  UNL     1      24.251   2.974  52.169  1.00  0.00     0.085 C 
HETATM   13  C7  UNL     1      22.953   2.299  52.436  1.00  0.00    -0.006 C 
HETATM   14  C8  UNL     1      22.541   1.154  52.970  1.00  0.00     0.017 C 
HETATM   15  C9  UNL     1      23.080  -0.040  53.570  1.00  0.00     0.010 C 
HETATM   16 BR1  UNL     1      21.805  -1.385  54.032  1.00  0.00    -0.051 Br
HETATM   17  C10 UNL     1      24.295  -0.484  53.911  1.00  0.00     0.021 C 
HETATM   18  C11 UNL     1      25.621   0.161  53.774  1.00  0.00     0.030 C 
HETATM   19  P1  UNL     1      26.094   1.761  53.542  1.00  0.00     0.028 P 
HETATM   20  N2  UNL     1      24.995   3.204  53.390  1.00  0.00    -0.284 NA
HETATM   21  H12 UNL     1      24.381   3.126  54.238  1.00  0.00     0.128 HD
ENDBRANCH  11  12
ENDBRANCH   1  11
BRANCH   1  22
HETATM   22  C12 UNL     1      25.443   4.629  49.479  1.00  0.00    -0.035 A 
HETATM   23  C13 UNL     1      25.315   5.957  49.045  1.00  0.00     0.009 A 
HETATM   24  C14 UNL     1      26.377   6.659  48.463  1.00  0.00     0.001 A 
HETATM   25  C15 UNL     1      27.576   5.996  48.325  1.00  0.00     0.000 A 
HETATM   26  C16 UNL     1      27.716   4.692  48.747  1.00  0.00     0.001 A 
HETATM   27  C17 UNL     1      26.667   4.014  49.316  1.00  0.00     0.009 A 
ENDBRANCH   1  22
TORSDOF 6
ENDMDL
