MODEL 1
REMARK VINA RESULT:      -8.6      0.000      0.000
REMARK  5 active torsions:
REMARK  status: ('A' for Active; 'I' for Inactive)
REMARK    1  A    between atoms: C7_7  and  N1_8 
REMARK    2  A    between atoms: N1_8  and  C8_9 
REMARK    3  A    between atoms: C12_15  and  C13_16 
REMARK    4  A    between atoms: C13_16  and  O1_17 
REMARK    5  A    between atoms: O1_17  and  C14_18 
ROOT
HETATM    1  C1  UNL     1      14.726   3.150  51.402  1.00  0.00     0.018 C 
HETATM    2  C2  UNL     1      15.767   2.547  51.277  1.00  0.00    -0.078 C 
HETATM    3  C3  UNL     1      17.024   1.846  51.134  1.00  0.00     0.019 A 
HETATM    4  C4  UNL     1      17.207   0.752  50.358  1.00  0.00     0.021 A 
HETATM    5  C5  UNL     1      18.449   0.153  50.291  1.00  0.00     0.004 A 
HETATM    6  C6  UNL     1      19.497   0.676  51.019  1.00  0.00     0.029 A 
HETATM    7  C7  UNL     1      19.392   1.786  51.831  1.00  0.00     0.035 A 
HETATM    8  C23 UNL     1      18.097   2.322  51.834  1.00  0.00     0.050 A 
ENDROOT
BRANCH   7   9
HETATM    9  N1  UNL     1      20.532   2.276  52.530  1.00  0.00    -0.340 N 
HETATM   10  H5  UNL     1      20.096   2.514  53.435  1.00  0.00     0.167 HD
BRANCH   9  11
HETATM   11  C8  UNL     1      21.787   2.309  51.913  1.00  0.00     0.144 A 
HETATM   12  N2  UNL     1      22.012   3.109  50.886  1.00  0.00    -0.223 NA
HETATM   13  C9  UNL     1      23.180   3.199  50.243  1.00  0.00     0.236 A 
HETATM   14  N3  UNL     1      24.221   2.443  50.638  1.00  0.00    -0.241 NA
HETATM   15  C10 UNL     1      24.122   1.584  51.677  1.00  0.00     0.075 A 
HETATM   16  C11 UNL     1      25.192   0.834  52.054  1.00  0.00     0.045 A 
HETATM   17  C20 UNL     1      22.880   1.561  52.276  1.00  0.00     0.075 A 
HETATM   18  C12 UNL     1      25.076  -0.036  53.117  1.00  0.00     0.006 A 
HETATM   19  C18 UNL     1      23.844  -0.084  53.739  1.00  0.00     0.135 A 
HETATM   20  C19 UNL     1      22.755   0.679  53.356  1.00  0.00     0.123 A 
HETATM   21  O4  UNL     1      23.565  -0.912  54.823  1.00  0.00    -0.258 OA
HETATM   22  O3  UNL     1      21.598   0.525  54.069  1.00  0.00    -0.326 OA
HETATM   23  C21 UNL     1      21.243  -0.673  54.717  1.00  0.00     0.222 C 
HETATM   24  C22 UNL     1      20.213  -1.386  53.847  1.00  0.00     0.059 C 
HETATM   25  N4  UNL     1      22.348  -1.543  54.956  1.00  0.00    -0.170 NA
HETATM   26  H21 UNL     1      22.335  -2.290  54.225  1.00  0.00     0.157 HD
BRANCH  18  27
HETATM   27  C13 UNL     1      26.171  -0.886  53.619  1.00  0.00     0.210 C 
BRANCH  27  28
HETATM   28  O1  UNL     1      26.672  -0.385  54.790  1.00  0.00    -0.379 OA
BRANCH  28  29
HETATM   29  C14 UNL     1      28.019  -0.132  54.794  1.00  0.00     0.147 C 
HETATM   30  C15 UNL     1      28.284   1.227  54.184  1.00  0.00     0.060 C 
HETATM   31  C16 UNL     1      29.576   1.028  53.473  1.00  0.00     0.170 C 
HETATM   32  O2  UNL     1      29.831  -0.321  53.324  1.00  0.00    -0.389 OA
HETATM   33  C17 UNL     1      28.762  -1.026  53.796  1.00  0.00     0.199 C 
ENDBRANCH  28  29
ENDBRANCH  27  28
ENDBRANCH  18  27
ENDBRANCH   9  11
ENDBRANCH   7   9
TORSDOF 5
ENDMDL
MODEL 2
REMARK VINA RESULT:      -8.5      2.947      9.025
REMARK  5 active torsions:
REMARK  status: ('A' for Active; 'I' for Inactive)
REMARK    1  A    between atoms: C7_7  and  N1_8 
REMARK    2  A    between atoms: N1_8  and  C8_9 
REMARK    3  A    between atoms: C12_15  and  C13_16 
REMARK    4  A    between atoms: C13_16  and  O1_17 
REMARK    5  A    between atoms: O1_17  and  C14_18 
ROOT
HETATM    1  C1  UNL     1      27.824  -2.447  52.708  1.00  0.00     0.018 C 
HETATM    2  C2  UNL     1      27.278  -1.369  52.699  1.00  0.00    -0.078 C 
HETATM    3  C3  UNL     1      26.606  -0.087  52.678  1.00  0.00     0.019 A 
HETATM    4  C4  UNL     1      27.238   1.110  52.737  1.00  0.00     0.021 A 
HETATM    5  C5  UNL     1      26.503   2.278  52.712  1.00  0.00     0.004 A 
HETATM    6  C6  UNL     1      25.128   2.217  52.627  1.00  0.00     0.029 A 
HETATM    7  C7  UNL     1      24.413   1.040  52.562  1.00  0.00     0.035 A 
HETATM    8  C23 UNL     1      25.242  -0.090  52.594  1.00  0.00     0.050 A 
ENDROOT
BRANCH   7   9
HETATM    9  N1  UNL     1      22.993   1.066  52.450  1.00  0.00    -0.340 N 
HETATM   10  H5  UNL     1      22.883   1.838  51.774  1.00  0.00     0.167 HD
BRANCH   9  11
HETATM   11  C8  UNL     1      22.204   0.166  53.175  1.00  0.00     0.144 A 
HETATM   12  N2  UNL     1      22.710  -0.506  54.193  1.00  0.00    -0.223 NA
HETATM   13  C9  UNL     1      22.024  -1.381  54.933  1.00  0.00     0.236 A 
HETATM   14  N3  UNL     1      20.729  -1.621  54.657  1.00  0.00    -0.241 NA
HETATM   15  C10 UNL     1      20.091  -0.996  53.642  1.00  0.00     0.075 A 
HETATM   16  C11 UNL     1      18.781  -1.259  53.388  1.00  0.00     0.045 A 
HETATM   17  C20 UNL     1      20.881  -0.114  52.936  1.00  0.00     0.075 A 
HETATM   18  C12 UNL     1      18.144  -0.612  52.350  1.00  0.00     0.006 A 
HETATM   19  C18 UNL     1      18.907   0.279  51.621  1.00  0.00     0.135 A 
HETATM   20  C19 UNL     1      20.240   0.545  51.880  1.00  0.00     0.123 A 
HETATM   21  O4  UNL     1      18.412   1.007  50.543  1.00  0.00    -0.258 OA
HETATM   22  O3  UNL     1      20.867   1.456  51.073  1.00  0.00    -0.326 OA
HETATM   23  C21 UNL     1      20.497   1.684  49.734  1.00  0.00     0.222 C 
HETATM   24  C22 UNL     1      21.499   0.955  48.845  1.00  0.00     0.059 C 
HETATM   25  N4  UNL     1      19.177   1.246  49.422  1.00  0.00    -0.170 NA
HETATM   26  H21 UNL     1      19.249   0.328  48.927  1.00  0.00     0.157 HD
BRANCH  18  27
HETATM   27  C13 UNL     1      16.727  -0.808  51.993  1.00  0.00     0.210 C 
BRANCH  27  28
HETATM   28  O1  UNL     1      15.911  -0.270  52.950  1.00  0.00    -0.379 OA
BRANCH  28  29
HETATM   29  C14 UNL     1      14.905   0.536  52.482  1.00  0.00     0.147 C 
HETATM   30  C15 UNL     1      15.406   1.958  52.362  1.00  0.00     0.060 C 
HETATM   31  C16 UNL     1      14.208   2.766  52.719  1.00  0.00     0.170 C 
HETATM   32  O2  UNL     1      13.274   1.971  53.354  1.00  0.00    -0.389 OA
HETATM   33  C17 UNL     1      13.802   0.725  53.530  1.00  0.00     0.199 C 
ENDBRANCH  28  29
ENDBRANCH  27  28
ENDBRANCH  18  27
ENDBRANCH   9  11
ENDBRANCH   7   9
TORSDOF 5
ENDMDL
MODEL 3
REMARK VINA RESULT:      -8.4      4.188      7.184
REMARK  5 active torsions:
REMARK  status: ('A' for Active; 'I' for Inactive)
REMARK    1  A    between atoms: C7_7  and  N1_8 
REMARK    2  A    between atoms: N1_8  and  C8_9 
REMARK    3  A    between atoms: C12_15  and  C13_16 
REMARK    4  A    between atoms: C13_16  and  O1_17 
REMARK    5  A    between atoms: O1_17  and  C14_18 
ROOT
HETATM    1  C1  UNL     1      26.635  -0.752  52.861  1.00  0.00     0.018 C 
HETATM    2  C2  UNL     1      25.467  -0.563  53.110  1.00  0.00    -0.078 C 
HETATM    3  C3  UNL     1      24.071  -0.316  53.397  1.00  0.00     0.019 A 
HETATM    4  C4  UNL     1      23.370  -0.933  54.378  1.00  0.00     0.021 A 
HETATM    5  C5  UNL     1      22.038  -0.628  54.571  1.00  0.00     0.004 A 
HETATM    6  C6  UNL     1      21.429   0.307  53.759  1.00  0.00     0.029 A 
HETATM    7  C7  UNL     1      22.073   0.978  52.741  1.00  0.00     0.035 A 
HETATM    8  C23 UNL     1      23.418   0.602  52.623  1.00  0.00     0.050 A 
ENDROOT
BRANCH   7   9
HETATM    9  N1  UNL     1      21.376   1.948  51.965  1.00  0.00    -0.340 N 
HETATM   10  H5  UNL     1      20.797   2.381  52.702  1.00  0.00     0.167 HD
BRANCH   9  11
HETATM   11  C8  UNL     1      21.612   2.065  50.591  1.00  0.00     0.144 A 
HETATM   12  N2  UNL     1      21.273   1.093  49.764  1.00  0.00    -0.223 NA
HETATM   13  C9  UNL     1      21.464   1.128  48.442  1.00  0.00     0.236 A 
HETATM   14  N3  UNL     1      22.036   2.208  47.877  1.00  0.00    -0.241 NA
HETATM   15  C10 UNL     1      22.428   3.271  48.614  1.00  0.00     0.075 A 
HETATM   16  C11 UNL     1      23.001   4.349  48.013  1.00  0.00     0.045 A 
HETATM   17  C20 UNL     1      22.190   3.142  49.965  1.00  0.00     0.075 A 
HETATM   18  C12 UNL     1      23.394   5.427  48.778  1.00  0.00     0.006 A 
HETATM   19  C18 UNL     1      23.171   5.330  50.137  1.00  0.00     0.135 A 
HETATM   20  C19 UNL     1      22.587   4.233  50.747  1.00  0.00     0.123 A 
HETATM   21  O4  UNL     1      23.512   6.330  51.043  1.00  0.00    -0.258 OA
HETATM   22  O3  UNL     1      22.428   4.280  52.105  1.00  0.00    -0.326 OA
HETATM   23  C21 UNL     1      23.277   5.012  52.957  1.00  0.00     0.222 C 
HETATM   24  C22 UNL     1      24.244   4.027  53.607  1.00  0.00     0.059 C 
HETATM   25  N4  UNL     1      24.015   6.034  52.291  1.00  0.00    -0.170 NA
HETATM   26  H21 UNL     1      24.985   5.679  52.129  1.00  0.00     0.157 HD
BRANCH  18  27
HETATM   27  C13 UNL     1      24.012   6.650  48.234  1.00  0.00     0.210 C 
BRANCH  27  28
HETATM   28  O1  UNL     1      25.349   6.685  48.525  1.00  0.00    -0.379 OA
BRANCH  28  29
HETATM   29  C14 UNL     1      25.915   7.934  48.550  1.00  0.00     0.147 C 
HETATM   30  C15 UNL     1      27.324   7.844  49.091  1.00  0.00     0.060 C 
HETATM   31  C16 UNL     1      27.471   9.113  49.854  1.00  0.00     0.170 C 
HETATM   32  O2  UNL     1      26.230   9.672  50.086  1.00  0.00    -0.389 OA
HETATM   33  C17 UNL     1      25.270   8.821  49.620  1.00  0.00     0.199 C 
ENDBRANCH  28  29
ENDBRANCH  27  28
ENDBRANCH  18  27
ENDBRANCH   9  11
ENDBRANCH   7   9
TORSDOF 5
ENDMDL
MODEL 4
REMARK VINA RESULT:      -8.3      3.820      6.148
REMARK  5 active torsions:
REMARK  status: ('A' for Active; 'I' for Inactive)
REMARK    1  A    between atoms: C7_7  and  N1_8 
REMARK    2  A    between atoms: N1_8  and  C8_9 
REMARK    3  A    between atoms: C12_15  and  C13_16 
REMARK    4  A    between atoms: C13_16  and  O1_17 
REMARK    5  A    between atoms: O1_17  and  C14_18 
ROOT
HETATM    1  C1  UNL     1      22.180   7.380  43.367  1.00  0.00     0.018 C 
HETATM    2  C2  UNL     1      22.152   6.573  44.267  1.00  0.00    -0.078 C 
HETATM    3  C3  UNL     1      22.134   5.621  45.356  1.00  0.00     0.019 A 
HETATM    4  C4  UNL     1      21.806   4.313  45.225  1.00  0.00     0.021 A 
HETATM    5  C5  UNL     1      21.818   3.486  46.330  1.00  0.00     0.004 A 
HETATM    6  C6  UNL     1      22.164   4.000  47.563  1.00  0.00     0.029 A 
HETATM    7  C7  UNL     1      22.510   5.317  47.778  1.00  0.00     0.035 A 
HETATM    8  C23 UNL     1      22.469   6.077  46.600  1.00  0.00     0.050 A 
ENDROOT
BRANCH   7   9
HETATM    9  N1  UNL     1      22.878   5.761  49.080  1.00  0.00    -0.340 N 
HETATM   10  H5  UNL     1      23.177   6.724  48.860  1.00  0.00     0.167 HD
BRANCH   9  11
HETATM   11  C8  UNL     1      22.760   4.909  50.184  1.00  0.00     0.144 A 
HETATM   12  N2  UNL     1      21.615   4.799  50.831  1.00  0.00    -0.223 NA
HETATM   13  C9  UNL     1      21.421   4.010  51.891  1.00  0.00     0.236 A 
HETATM   14  N3  UNL     1      22.435   3.260  52.361  1.00  0.00    -0.241 NA
HETATM   15  C10 UNL     1      23.659   3.280  51.787  1.00  0.00     0.075 A 
HETATM   16  C11 UNL     1      24.664   2.509  52.284  1.00  0.00     0.045 A 
HETATM   17  C20 UNL     1      23.761   4.124  50.702  1.00  0.00     0.075 A 
HETATM   18  C12 UNL     1      25.906   2.539  51.686  1.00  0.00     0.006 A 
HETATM   19  C18 UNL     1      26.043   3.375  50.595  1.00  0.00     0.135 A 
HETATM   20  C19 UNL     1      25.020   4.158  50.090  1.00  0.00     0.123 A 
HETATM   21  O4  UNL     1      27.232   3.519  49.885  1.00  0.00    -0.258 OA
HETATM   22  O3  UNL     1      25.304   4.937  49.002  1.00  0.00    -0.326 OA
HETATM   23  C21 UNL     1      26.589   5.445  48.730  1.00  0.00     0.222 C 
HETATM   24  C22 UNL     1      26.609   6.909  49.155  1.00  0.00     0.059 C 
HETATM   25  N4  UNL     1      27.635   4.741  49.394  1.00  0.00    -0.170 NA
HETATM   26  H21 UNL     1      27.923   5.301  50.229  1.00  0.00     0.157 HD
BRANCH  18  27
HETATM   27  C13 UNL     1      27.062   1.738  52.130  1.00  0.00     0.210 C 
BRANCH  27  28
HETATM   28  O1  UNL     1      27.751   2.391  53.116  1.00  0.00    -0.379 OA
BRANCH  28  29
HETATM   29  C14 UNL     1      28.294   1.589  54.086  1.00  0.00     0.147 C 
HETATM   30  C15 UNL     1      29.356   0.702  53.476  1.00  0.00     0.060 C 
HETATM   31  C16 UNL     1      29.218  -0.564  54.247  1.00  0.00     0.170 C 
HETATM   32  O2  UNL     1      28.008  -0.583  54.912  1.00  0.00    -0.389 OA
HETATM   33  C17 UNL     1      27.296   0.528  54.562  1.00  0.00     0.199 C 
ENDBRANCH  28  29
ENDBRANCH  27  28
ENDBRANCH  18  27
ENDBRANCH   9  11
ENDBRANCH   7   9
TORSDOF 5
ENDMDL
MODEL 5
REMARK VINA RESULT:      -8.3      2.973      4.627
REMARK  5 active torsions:
REMARK  status: ('A' for Active; 'I' for Inactive)
REMARK    1  A    between atoms: C7_7  and  N1_8 
REMARK    2  A    between atoms: N1_8  and  C8_9 
REMARK    3  A    between atoms: C12_15  and  C13_16 
REMARK    4  A    between atoms: C13_16  and  O1_17 
REMARK    5  A    between atoms: O1_17  and  C14_18 
ROOT
HETATM    1  C1  UNL     1      22.416   8.375  45.460  1.00  0.00     0.018 C 
HETATM    2  C2  UNL     1      22.341   7.211  45.777  1.00  0.00    -0.078 C 
HETATM    3  C3  UNL     1      22.266   5.822  46.175  1.00  0.00     0.019 A 
HETATM    4  C4  UNL     1      21.895   4.810  45.355  1.00  0.00     0.021 A 
HETATM    5  C5  UNL     1      21.854   3.515  45.833  1.00  0.00     0.004 A 
HETATM    6  C6  UNL     1      22.191   3.263  47.146  1.00  0.00     0.029 A 
HETATM    7  C7  UNL     1      22.579   4.237  48.042  1.00  0.00     0.035 A 
HETATM    8  C23 UNL     1      22.590   5.515  47.466  1.00  0.00     0.050 A 
ENDROOT
BRANCH   7   9
HETATM    9  N1  UNL     1      22.935   3.887  49.375  1.00  0.00    -0.340 N 
HETATM   10  H5  UNL     1      21.997   3.833  49.801  1.00  0.00     0.167 HD
BRANCH   9  11
HETATM   11  C8  UNL     1      24.278   3.721  49.735  1.00  0.00     0.144 A 
HETATM   12  N2  UNL     1      25.237   4.318  49.052  1.00  0.00    -0.223 NA
HETATM   13  C9  UNL     1      26.539   4.211  49.330  1.00  0.00     0.236 A 
HETATM   14  N3  UNL     1      26.941   3.453  50.368  1.00  0.00    -0.241 NA
HETATM   15  C10 UNL     1      26.058   2.790  51.147  1.00  0.00     0.075 A 
HETATM   16  C11 UNL     1      26.495   2.033  52.190  1.00  0.00     0.045 A 
HETATM   17  C20 UNL     1      24.740   2.962  50.782  1.00  0.00     0.075 A 
HETATM   18  C12 UNL     1      25.582   1.364  52.977  1.00  0.00     0.006 A 
HETATM   19  C18 UNL     1      24.252   1.514  52.638  1.00  0.00     0.135 A 
HETATM   20  C19 UNL     1      23.808   2.285  51.577  1.00  0.00     0.123 A 
HETATM   21  O4  UNL     1      23.211   0.903  53.331  1.00  0.00    -0.258 OA
HETATM   22  O3  UNL     1      22.458   2.341  51.363  1.00  0.00    -0.326 OA
HETATM   23  C21 UNL     1      21.577   1.297  51.707  1.00  0.00     0.222 C 
HETATM   24  C22 UNL     1      21.243   0.531  50.432  1.00  0.00     0.059 C 
HETATM   25  N4  UNL     1      22.107   0.398  52.678  1.00  0.00    -0.170 NA
HETATM   26  H21 UNL     1      22.441  -0.458  52.178  1.00  0.00     0.157 HD
BRANCH  18  27
HETATM   27  C13 UNL     1      25.940   0.528  54.138  1.00  0.00     0.210 C 
BRANCH  27  28
HETATM   28  O1  UNL     1      27.117   0.952  54.692  1.00  0.00    -0.379 OA
BRANCH  28  29
HETATM   29  C14 UNL     1      28.135   0.032  54.688  1.00  0.00     0.147 C 
HETATM   30  C15 UNL     1      29.407   0.682  54.193  1.00  0.00     0.060 C 
HETATM   31  C16 UNL     1      30.071  -0.416  53.438  1.00  0.00     0.170 C 
HETATM   32  O2  UNL     1      29.163  -1.420  53.168  1.00  0.00    -0.389 OA
HETATM   33  C17 UNL     1      27.930  -1.028  53.600  1.00  0.00     0.199 C 
ENDBRANCH  28  29
ENDBRANCH  27  28
ENDBRANCH  18  27
ENDBRANCH   9  11
ENDBRANCH   7   9
TORSDOF 5
ENDMDL
MODEL 6
REMARK VINA RESULT:      -8.2      1.627      3.092
REMARK  5 active torsions:
REMARK  status: ('A' for Active; 'I' for Inactive)
REMARK    1  A    between atoms: C7_7  and  N1_8 
REMARK    2  A    between atoms: N1_8  and  C8_9 
REMARK    3  A    between atoms: C12_15  and  C13_16 
REMARK    4  A    between atoms: C13_16  and  O1_17 
REMARK    5  A    between atoms: O1_17  and  C14_18 
ROOT
HETATM    1  C1  UNL     1      14.593   2.897  50.893  1.00  0.00     0.018 C 
HETATM    2  C2  UNL     1      15.761   2.803  50.593  1.00  0.00    -0.078 C 
HETATM    3  C3  UNL     1      17.164   2.700  50.256  1.00  0.00     0.019 A 
HETATM    4  C4  UNL     1      17.646   2.660  48.991  1.00  0.00     0.021 A 
HETATM    5  C5  UNL     1      19.006   2.558  48.774  1.00  0.00     0.004 A 
HETATM    6  C6  UNL     1      19.865   2.499  49.852  1.00  0.00     0.029 A 
HETATM    7  C7  UNL     1      19.452   2.535  51.167  1.00  0.00     0.035 A 
HETATM    8  C23 UNL     1      18.059   2.638  51.286  1.00  0.00     0.050 A 
ENDROOT
BRANCH   7   9
HETATM    9  N1  UNL     1      20.408   2.493  52.222  1.00  0.00    -0.340 N 
HETATM   10  H5  UNL     1      20.614   3.501  52.314  1.00  0.00     0.167 HD
BRANCH   9  11
HETATM   11  C8  UNL     1      20.781   1.274  52.800  1.00  0.00     0.144 A 
HETATM   12  N2  UNL     1      19.871   0.462  53.305  1.00  0.00    -0.223 NA
HETATM   13  C9  UNL     1      20.145  -0.717  53.872  1.00  0.00     0.236 A 
HETATM   14  N3  UNL     1      21.420  -1.140  53.952  1.00  0.00    -0.241 NA
HETATM   15  C10 UNL     1      22.445  -0.402  53.471  1.00  0.00     0.075 A 
HETATM   16  C11 UNL     1      23.723  -0.858  53.566  1.00  0.00     0.045 A 
HETATM   17  C20 UNL     1      22.064   0.796  52.906  1.00  0.00     0.075 A 
HETATM   18  C12 UNL     1      24.758  -0.094  53.069  1.00  0.00     0.006 A 
HETATM   19  C18 UNL     1      24.411   1.113  52.497  1.00  0.00     0.135 A 
HETATM   20  C19 UNL     1      23.110   1.576  52.400  1.00  0.00     0.123 A 
HETATM   21  O4  UNL     1      25.338   1.998  51.953  1.00  0.00    -0.258 OA
HETATM   22  O3  UNL     1      22.919   2.792  51.804  1.00  0.00    -0.326 OA
HETATM   23  C21 UNL     1      23.882   3.820  51.819  1.00  0.00     0.222 C 
HETATM   24  C22 UNL     1      23.464   4.834  52.879  1.00  0.00     0.059 C 
HETATM   25  N4  UNL     1      25.204   3.362  52.094  1.00  0.00    -0.170 NA
HETATM   26  H21 UNL     1      25.414   3.565  53.098  1.00  0.00     0.157 HD
BRANCH  18  27
HETATM   27  C13 UNL     1      26.177  -0.494  53.106  1.00  0.00     0.210 C 
BRANCH  27  28
HETATM   28  O1  UNL     1      26.613  -0.609  54.398  1.00  0.00    -0.379 OA
BRANCH  28  29
HETATM   29  C14 UNL     1      27.854  -0.082  54.651  1.00  0.00     0.147 C 
HETATM   30  C15 UNL     1      27.917   1.339  54.139  1.00  0.00     0.060 C 
HETATM   31  C16 UNL     1      29.323   1.461  53.665  1.00  0.00     0.170 C 
HETATM   32  O2  UNL     1      29.884   0.208  53.524  1.00  0.00    -0.389 OA
HETATM   33  C17 UNL     1      28.929  -0.734  53.775  1.00  0.00     0.199 C 
ENDBRANCH  28  29
ENDBRANCH  27  28
ENDBRANCH  18  27
ENDBRANCH   9  11
ENDBRANCH   7   9
TORSDOF 5
ENDMDL
MODEL 7
REMARK VINA RESULT:      -8.2      3.559      8.172
REMARK  5 active torsions:
REMARK  status: ('A' for Active; 'I' for Inactive)
REMARK    1  A    between atoms: C7_7  and  N1_8 
REMARK    2  A    between atoms: N1_8  and  C8_9 
REMARK    3  A    between atoms: C12_15  and  C13_16 
REMARK    4  A    between atoms: C13_16  and  O1_17 
REMARK    5  A    between atoms: O1_17  and  C14_18 
ROOT
HETATM    1  C1  UNL     1      28.826   7.938  46.761  1.00  0.00     0.018 C 
HETATM    2  C2  UNL     1      28.041   7.535  47.587  1.00  0.00    -0.078 C 
HETATM    3  C3  UNL     1      27.096   7.034  48.561  1.00  0.00     0.019 A 
HETATM    4  C4  UNL     1      26.458   7.802  49.476  1.00  0.00     0.021 A 
HETATM    5  C5  UNL     1      25.575   7.226  50.365  1.00  0.00     0.004 A 
HETATM    6  C6  UNL     1      25.347   5.866  50.315  1.00  0.00     0.029 A 
HETATM    7  C7  UNL     1      25.955   5.017  49.415  1.00  0.00     0.035 A 
HETATM    8  C23 UNL     1      26.833   5.692  48.555  1.00  0.00     0.050 A 
ENDROOT
BRANCH   7   9
HETATM    9  N1  UNL     1      25.645   3.627  49.414  1.00  0.00    -0.340 N 
HETATM   10  H5  UNL     1      25.391   3.503  48.422  1.00  0.00     0.167 HD
BRANCH   9  11
HETATM   11  C8  UNL     1      25.748   2.873  50.589  1.00  0.00     0.144 A 
HETATM   12  N2  UNL     1      26.928   2.606  51.117  1.00  0.00    -0.223 NA
HETATM   13  C9  UNL     1      27.110   1.895  52.233  1.00  0.00     0.236 A 
HETATM   14  N3  UNL     1      26.047   1.401  52.893  1.00  0.00    -0.241 NA
HETATM   15  C10 UNL     1      24.783   1.604  52.457  1.00  0.00     0.075 A 
HETATM   16  C11 UNL     1      23.728   1.092  53.146  1.00  0.00     0.045 A 
HETATM   17  C20 UNL     1      24.697   2.347  51.299  1.00  0.00     0.075 A 
HETATM   18  C12 UNL     1      22.445   1.310  52.690  1.00  0.00     0.006 A 
HETATM   19  C18 UNL     1      22.323   2.051  51.531  1.00  0.00     0.135 A 
HETATM   20  C19 UNL     1      23.397   2.571  50.831  1.00  0.00     0.123 A 
HETATM   21  O4  UNL     1      21.099   2.355  50.942  1.00  0.00    -0.258 OA
HETATM   22  O3  UNL     1      23.121   3.288  49.698  1.00  0.00    -0.326 OA
HETATM   23  C21 UNL     1      21.984   3.061  48.898  1.00  0.00     0.222 C 
HETATM   24  C22 UNL     1      22.426   2.258  47.680  1.00  0.00     0.059 C 
HETATM   25  N4  UNL     1      20.939   2.366  49.573  1.00  0.00    -0.170 NA
HETATM   26  H21 UNL     1      20.973   1.364  49.276  1.00  0.00     0.157 HD
BRANCH  18  27
HETATM   27  C13 UNL     1      21.229   0.816  53.362  1.00  0.00     0.210 C 
BRANCH  27  28
HETATM   28  O1  UNL     1      20.530  -0.023  52.537  1.00  0.00    -0.379 OA
BRANCH  28  29
HETATM   29  C14 UNL     1      19.164   0.078  52.613  1.00  0.00     0.147 C 
HETATM   30  C15 UNL     1      18.604  -1.125  53.337  1.00  0.00     0.060 C 
HETATM   31  C16 UNL     1      17.311  -1.363  52.639  1.00  0.00     0.170 C 
HETATM   32  O2  UNL     1      17.293  -0.688  51.434  1.00  0.00    -0.389 OA
HETATM   33  C17 UNL     1      18.511  -0.102  51.239  1.00  0.00     0.199 C 
ENDBRANCH  28  29
ENDBRANCH  27  28
ENDBRANCH  18  27
ENDBRANCH   9  11
ENDBRANCH   7   9
TORSDOF 5
ENDMDL
MODEL 8
REMARK VINA RESULT:      -8.1      1.882      3.663
REMARK  5 active torsions:
REMARK  status: ('A' for Active; 'I' for Inactive)
REMARK    1  A    between atoms: C7_7  and  N1_8 
REMARK    2  A    between atoms: N1_8  and  C8_9 
REMARK    3  A    between atoms: C12_15  and  C13_16 
REMARK    4  A    between atoms: C13_16  and  O1_17 
REMARK    5  A    between atoms: O1_17  and  C14_18 
ROOT
HETATM    1  C1  UNL     1      15.559  -1.485  48.588  1.00  0.00     0.018 C 
HETATM    2  C2  UNL     1      16.111  -0.637  49.250  1.00  0.00    -0.078 C 
HETATM    3  C3  UNL     1      16.790   0.363  50.045  1.00  0.00     0.019 A 
HETATM    4  C4  UNL     1      16.165   1.349  50.732  1.00  0.00     0.021 A 
HETATM    5  C5  UNL     1      16.906   2.258  51.460  1.00  0.00     0.004 A 
HETATM    6  C6  UNL     1      18.281   2.154  51.483  1.00  0.00     0.029 A 
HETATM    7  C7  UNL     1      18.990   1.180  50.811  1.00  0.00     0.035 A 
HETATM    8  C23 UNL     1      18.154   0.307  50.102  1.00  0.00     0.050 A 
ENDROOT
BRANCH   7   9
HETATM    9  N1  UNL     1      20.410   1.129  50.907  1.00  0.00    -0.340 N 
HETATM   10  H5  UNL     1      20.664   1.639  50.047  1.00  0.00     0.167 HD
BRANCH   9  11
HETATM   11  C8  UNL     1      21.029   0.495  51.991  1.00  0.00     0.144 A 
HETATM   12  N2  UNL     1      20.343  -0.307  52.784  1.00  0.00    -0.223 NA
HETATM   13  C9  UNL     1      20.860  -0.948  53.836  1.00  0.00     0.236 A 
HETATM   14  N3  UNL     1      22.162  -0.793  54.141  1.00  0.00    -0.241 NA
HETATM   15  C10 UNL     1      22.974   0.000  53.407  1.00  0.00     0.075 A 
HETATM   16  C11 UNL     1      24.286   0.136  53.739  1.00  0.00     0.045 A 
HETATM   17  C20 UNL     1      22.351   0.619  52.344  1.00  0.00     0.075 A 
HETATM   18  C12 UNL     1      25.101   0.947  52.980  1.00  0.00     0.006 A 
HETATM   19  C18 UNL     1      24.508   1.583  51.907  1.00  0.00     0.135 A 
HETATM   20  C19 UNL     1      23.174   1.444  51.569  1.00  0.00     0.123 A 
HETATM   21  O4  UNL     1      25.195   2.436  51.047  1.00  0.00    -0.258 OA
HETATM   22  O3  UNL     1      22.727   2.135  50.476  1.00  0.00    -0.326 OA
HETATM   23  C21 UNL     1      23.292   3.352  50.048  1.00  0.00     0.222 C 
HETATM   24  C22 UNL     1      22.375   4.479  50.512  1.00  0.00     0.059 C 
HETATM   25  N4  UNL     1      24.610   3.577  50.542  1.00  0.00    -0.170 NA
HETATM   26  H21 UNL     1      24.545   4.241  51.347  1.00  0.00     0.157 HD
BRANCH  18  27
HETATM   27  C13 UNL     1      26.538   1.158  53.239  1.00  0.00     0.210 C 
BRANCH  27  28
HETATM   28  O1  UNL     1      27.289   0.228  52.572  1.00  0.00    -0.379 OA
BRANCH  28  29
HETATM   29  C14 UNL     1      27.695  -0.847  53.320  1.00  0.00     0.147 C 
HETATM   30  C15 UNL     1      29.205  -0.930  53.314  1.00  0.00     0.060 C 
HETATM   31  C16 UNL     1      29.460  -2.396  53.325  1.00  0.00     0.170 C 
HETATM   32  O2  UNL     1      28.312  -3.078  52.971  1.00  0.00    -0.389 OA
HETATM   33  C17 UNL     1      27.348  -2.173  52.633  1.00  0.00     0.199 C 
ENDBRANCH  28  29
ENDBRANCH  27  28
ENDBRANCH  18  27
ENDBRANCH   9  11
ENDBRANCH   7   9
TORSDOF 5
ENDMDL
MODEL 9
REMARK VINA RESULT:      -8.0      3.600      5.624
REMARK  5 active torsions:
REMARK  status: ('A' for Active; 'I' for Inactive)
REMARK    1  A    between atoms: C7_7  and  N1_8 
REMARK    2  A    between atoms: N1_8  and  C8_9 
REMARK    3  A    between atoms: C12_15  and  C13_16 
REMARK    4  A    between atoms: C13_16  and  O1_17 
REMARK    5  A    between atoms: O1_17  and  C14_18 
ROOT
HETATM    1  C1  UNL     1      20.399   3.991  44.906  1.00  0.00     0.018 C 
HETATM    2  C2  UNL     1      21.169   4.818  45.335  1.00  0.00    -0.078 C 
HETATM    3  C3  UNL     1      22.084   5.802  45.872  1.00  0.00     0.019 A 
HETATM    4  C4  UNL     1      22.450   6.938  45.231  1.00  0.00     0.021 A 
HETATM    5  C5  UNL     1      23.334   7.813  45.829  1.00  0.00     0.004 A 
HETATM    6  C6  UNL     1      23.839   7.522  47.079  1.00  0.00     0.029 A 
HETATM    7  C7  UNL     1      23.516   6.390  47.796  1.00  0.00     0.035 A 
HETATM    8  C23 UNL     1      22.615   5.564  47.108  1.00  0.00     0.050 A 
ENDROOT
BRANCH   7   9
HETATM    9  N1  UNL     1      24.063   6.178  49.093  1.00  0.00    -0.340 N 
HETATM   10  H5  UNL     1      23.415   6.753  49.655  1.00  0.00     0.167 HD
BRANCH   9  11
HETATM   11  C8  UNL     1      25.184   5.358  49.269  1.00  0.00     0.144 A 
HETATM   12  N2  UNL     1      26.305   5.600  48.616  1.00  0.00    -0.223 NA
HETATM   13  C9  UNL     1      27.416   4.866  48.729  1.00  0.00     0.236 A 
HETATM   14  N3  UNL     1      27.434   3.802  49.553  1.00  0.00    -0.241 NA
HETATM   15  C10 UNL     1      26.350   3.448  50.280  1.00  0.00     0.075 A 
HETATM   16  C11 UNL     1      26.400   2.368  51.106  1.00  0.00     0.045 A 
HETATM   17  C20 UNL     1      25.255   4.264  50.096  1.00  0.00     0.075 A 
HETATM   18  C12 UNL     1      25.287   2.021  51.842  1.00  0.00     0.006 A 
HETATM   19  C18 UNL     1      24.171   2.817  51.681  1.00  0.00     0.135 A 
HETATM   20  C19 UNL     1      24.122   3.916  50.841  1.00  0.00     0.123 A 
HETATM   21  O4  UNL     1      22.970   2.597  52.350  1.00  0.00    -0.258 OA
HETATM   22  O3  UNL     1      22.945   4.612  50.786  1.00  0.00    -0.326 OA
HETATM   23  C21 UNL     1      21.687   4.022  51.015  1.00  0.00     0.222 C 
HETATM   24  C22 UNL     1      21.031   3.785  49.659  1.00  0.00     0.059 C 
HETATM   25  N4  UNL     1      21.753   2.793  51.733  1.00  0.00    -0.170 NA
HETATM   26  H21 UNL     1      21.656   2.011  51.046  1.00  0.00     0.157 HD
BRANCH  18  27
HETATM   27  C13 UNL     1      25.231   0.881  52.776  1.00  0.00     0.210 C 
BRANCH  27  28
HETATM   28  O1  UNL     1      25.848   1.195  53.956  1.00  0.00    -0.379 OA
BRANCH  28  29
HETATM   29  C14 UNL     1      26.760   0.275  54.407  1.00  0.00     0.147 C 
HETATM   30  C15 UNL     1      28.160   0.822  54.237  1.00  0.00     0.060 C 
HETATM   31  C16 UNL     1      28.954  -0.392  53.901  1.00  0.00     0.170 C 
HETATM   32  O2  UNL     1      28.111  -1.417  53.519  1.00  0.00    -0.389 OA
HETATM   33  C17 UNL     1      26.831  -0.945  53.483  1.00  0.00     0.199 C 
ENDBRANCH  28  29
ENDBRANCH  27  28
ENDBRANCH  18  27
ENDBRANCH   9  11
ENDBRANCH   7   9
TORSDOF 5
ENDMDL
