MODEL 1
REMARK VINA RESULT:      -9.3      0.000      0.000
REMARK  1 active torsions:
REMARK  status: ('A' for Active; 'I' for Inactive)
REMARK    1  A    between atoms: C3_4  and  C4_5 
ROOT
HETATM    1  C4  UNL     1      23.327   0.408  53.439  1.00  0.00    -0.043 C 
HETATM    2  C5  UNL     1      24.338  -0.419  53.719  1.00  0.00     0.009 C 
HETATM    3  C6  UNL     1      25.682  -0.448  54.323  1.00  0.00     0.138 C 
HETATM    4  C7  UNL     1      26.242   0.955  54.528  1.00  0.00     0.091 C 
HETATM    5  C8  UNL     1      26.408   1.357  53.066  1.00  0.00     0.049 C 
HETATM    6  N2  UNL     1      27.541   0.896  52.571  1.00  0.00    -0.246 NA
HETATM    7  C9  UNL     1      27.647  -0.563  52.877  1.00  0.00     0.227 C 
HETATM    8  N3  UNL     1      26.674  -1.160  53.544  1.00  0.00    -0.273 NA
HETATM    9  C10 UNL     1      25.568   2.087  52.122  1.00  0.00    -0.003 A 
HETATM   10  C11 UNL     1      26.556   2.499  51.255  1.00  0.00     0.041 A 
HETATM   11  C12 UNL     1      26.038   3.249  50.200  1.00  0.00     0.073 A 
HETATM   12 CL1  UNL     1      27.157   3.853  48.999  1.00  0.00    -0.081 Cl
HETATM   13  C13 UNL     1      24.680   3.515  50.091  1.00  0.00     0.138 A 
HETATM   14  F1  UNL     1      24.163   4.242  49.074  1.00  0.00    -0.204 F 
HETATM   15  C14 UNL     1      23.765   3.059  51.008  1.00  0.00     0.052 A 
HETATM   16  C15 UNL     1      24.181   2.312  52.081  1.00  0.00    -0.039 A 
HETATM   17  C16 UNL     1      23.181   1.805  53.023  1.00  0.00     0.078 C 
ENDROOT
BRANCH   1  18
HETATM   18  C3  UNL     1      22.042  -0.291  53.592  1.00  0.00     0.006 A 
HETATM   19  C2  UNL     1      20.801   0.004  53.060  1.00  0.00     0.125 A 
HETATM   20  N1  UNL     1      19.852  -0.876  53.421  1.00  0.00    -0.285 N 
HETATM   21  C1  UNL     1      18.454  -0.860  53.040  1.00  0.00     0.179 C 
HETATM   22  N4  UNL     1      20.458  -1.761  54.195  1.00  0.00    -0.185 NA
HETATM   23  C17 UNL     1      21.766  -1.435  54.314  1.00  0.00     0.152 A 
ENDBRANCH   1  18
TORSDOF 1
ENDMDL
MODEL 2
REMARK VINA RESULT:      -9.2      3.469      6.320
REMARK  1 active torsions:
REMARK  status: ('A' for Active; 'I' for Inactive)
REMARK    1  A    between atoms: C3_4  and  C4_5 
ROOT
HETATM    1  C4  UNL     1      25.329   0.183  53.079  1.00  0.00    -0.043 C 
HETATM    2  C5  UNL     1      25.365   1.076  52.086  1.00  0.00     0.009 C 
HETATM    3  C6  UNL     1      24.949   2.447  51.742  1.00  0.00     0.138 C 
HETATM    4  C7  UNL     1      23.955   3.009  52.751  1.00  0.00     0.091 C 
HETATM    5  C8  UNL     1      22.775   2.088  52.457  1.00  0.00     0.049 C 
HETATM    6  N2  UNL     1      22.081   2.519  51.421  1.00  0.00    -0.246 NA
HETATM    7  C9  UNL     1      23.017   2.786  50.287  1.00  0.00     0.227 C 
HETATM    8  N3  UNL     1      24.311   2.572  50.447  1.00  0.00    -0.273 NA
HETATM    9  C10 UNL     1      22.305   0.839  53.046  1.00  0.00    -0.003 A 
HETATM   10  C11 UNL     1      20.987   0.917  52.651  1.00  0.00     0.041 A 
HETATM   11  C12 UNL     1      20.252  -0.186  53.082  1.00  0.00     0.073 A 
HETATM   12 CL1  UNL     1      18.554  -0.251  52.663  1.00  0.00    -0.081 Cl
HETATM   13  C13 UNL     1      20.833  -1.210  53.818  1.00  0.00     0.138 A 
HETATM   14  F1  UNL     1      20.132  -2.285  54.243  1.00  0.00    -0.204 F 
HETATM   15  C14 UNL     1      22.161  -1.201  54.166  1.00  0.00     0.052 A 
HETATM   16  C15 UNL     1      22.966  -0.157  53.786  1.00  0.00    -0.039 A 
HETATM   17  C16 UNL     1      24.387  -0.192  54.137  1.00  0.00     0.078 C 
ENDROOT
BRANCH   1  18
HETATM   18  C3  UNL     1      26.562  -0.619  53.087  1.00  0.00     0.006 A 
HETATM   19  C2  UNL     1      27.837  -0.284  53.501  1.00  0.00     0.125 A 
HETATM   20  N1  UNL     1      28.716  -1.291  53.362  1.00  0.00    -0.285 N 
HETATM   21  C1  UNL     1      30.125  -1.275  53.698  1.00  0.00     0.179 C 
HETATM   22  N4  UNL     1      28.028  -2.301  52.854  1.00  0.00    -0.185 NA
HETATM   23  C17 UNL     1      26.740  -1.927  52.680  1.00  0.00     0.152 A 
ENDBRANCH   1  18
TORSDOF 1
ENDMDL
MODEL 3
REMARK VINA RESULT:      -8.9      2.098      5.333
REMARK  1 active torsions:
REMARK  status: ('A' for Active; 'I' for Inactive)
REMARK    1  A    between atoms: C3_4  and  C4_5 
ROOT
HETATM    1  C4  UNL     1      25.030   0.236  53.142  1.00  0.00    -0.043 C 
HETATM    2  C5  UNL     1      24.099  -0.277  53.952  1.00  0.00     0.009 C 
HETATM    3  C6  UNL     1      22.781  -0.935  53.936  1.00  0.00     0.138 C 
HETATM    4  C7  UNL     1      22.113  -0.837  52.569  1.00  0.00     0.091 C 
HETATM    5  C8  UNL     1      21.870   0.669  52.536  1.00  0.00     0.049 C 
HETATM    6  N2  UNL     1      20.764   0.987  53.182  1.00  0.00    -0.246 NA
HETATM    7  C9  UNL     1      20.790   0.346  54.532  1.00  0.00     0.227 C 
HETATM    8  N3  UNL     1      21.828  -0.392  54.882  1.00  0.00    -0.273 NA
HETATM    9  C10 UNL     1      22.618   1.796  51.989  1.00  0.00    -0.003 A 
HETATM   10  C11 UNL     1      21.573   2.685  51.866  1.00  0.00     0.041 A 
HETATM   11  C12 UNL     1      21.995   3.909  51.349  1.00  0.00     0.073 A 
HETATM   12 CL1  UNL     1      20.793   5.162  51.128  1.00  0.00    -0.081 Cl
HETATM   13  C13 UNL     1      23.322   4.144  51.017  1.00  0.00     0.138 A 
HETATM   14  F1  UNL     1      23.746   5.326  50.514  1.00  0.00    -0.204 F 
HETATM   15  C14 UNL     1      24.299   3.192  51.175  1.00  0.00     0.052 A 
HETATM   16  C15 UNL     1      23.979   1.956  51.678  1.00  0.00    -0.039 A 
HETATM   17  C16 UNL     1      25.046   0.973  51.874  1.00  0.00     0.078 C 
ENDROOT
BRANCH   1  18
HETATM   18  C3  UNL     1      26.372  -0.011  53.688  1.00  0.00     0.006 A 
HETATM   19  C2  UNL     1      27.506  -0.501  53.070  1.00  0.00     0.125 A 
HETATM   20  N1  UNL     1      28.561  -0.585  53.899  1.00  0.00    -0.285 N 
HETATM   21  C1  UNL     1      29.893  -1.055  53.574  1.00  0.00     0.179 C 
HETATM   22  N4  UNL     1      28.132  -0.149  55.072  1.00  0.00    -0.185 NA
HETATM   23  C17 UNL     1      26.829   0.200  54.974  1.00  0.00     0.152 A 
ENDBRANCH   1  18
TORSDOF 1
ENDMDL
MODEL 4
REMARK VINA RESULT:      -8.7      3.724      6.065
REMARK  1 active torsions:
REMARK  status: ('A' for Active; 'I' for Inactive)
REMARK    1  A    between atoms: C3_4  and  C4_5 
ROOT
HETATM    1  C4  UNL     1      25.976   2.604  50.973  1.00  0.00    -0.043 C 
HETATM    2  C5  UNL     1      24.830   2.976  51.551  1.00  0.00     0.009 C 
HETATM    3  C6  UNL     1      23.428   3.306  51.243  1.00  0.00     0.138 C 
HETATM    4  C7  UNL     1      23.207   3.510  49.749  1.00  0.00     0.091 C 
HETATM    5  C8  UNL     1      24.026   4.783  49.563  1.00  0.00     0.049 C 
HETATM    6  N2  UNL     1      23.324   5.852  49.888  1.00  0.00    -0.246 NA
HETATM    7  C9  UNL     1      22.717   5.642  51.237  1.00  0.00     0.227 C 
HETATM    8  N3  UNL     1      22.941   4.511  51.882  1.00  0.00    -0.273 NA
HETATM    9  C10 UNL     1      25.402   5.042  49.154  1.00  0.00    -0.003 A 
HETATM   10  C11 UNL     1      25.238   6.338  48.717  1.00  0.00     0.041 A 
HETATM   11  C12 UNL     1      26.435   6.880  48.249  1.00  0.00     0.073 A 
HETATM   12 CL1  UNL     1      26.409   8.526  47.655  1.00  0.00    -0.081 Cl
HETATM   13  C13 UNL     1      27.617   6.153  48.250  1.00  0.00     0.138 A 
HETATM   14  F1  UNL     1      28.784   6.666  47.799  1.00  0.00    -0.204 F 
HETATM   15  C14 UNL     1      27.684   4.860  48.708  1.00  0.00     0.052 A 
HETATM   16  C15 UNL     1      26.558   4.241  49.189  1.00  0.00    -0.039 A 
HETATM   17  C16 UNL     1      26.665   2.877  49.708  1.00  0.00     0.078 C 
ENDROOT
BRANCH   1  18
HETATM   18  C3  UNL     1      26.719   1.692  51.855  1.00  0.00     0.006 A 
HETATM   19  C2  UNL     1      27.634   1.969  52.852  1.00  0.00     0.125 A 
HETATM   20  N1  UNL     1      28.105   0.864  53.455  1.00  0.00    -0.285 N 
HETATM   21  C1  UNL     1      29.071   0.800  54.533  1.00  0.00     0.179 C 
HETATM   22  N4  UNL     1      27.504  -0.154  52.861  1.00  0.00    -0.185 NA
HETATM   23  C17 UNL     1      26.671   0.312  51.902  1.00  0.00     0.152 A 
ENDBRANCH   1  18
TORSDOF 1
ENDMDL
MODEL 5
REMARK VINA RESULT:      -8.6      3.488      5.828
REMARK  1 active torsions:
REMARK  status: ('A' for Active; 'I' for Inactive)
REMARK    1  A    between atoms: C3_4  and  C4_5 
ROOT
HETATM    1  C4  UNL     1      24.858   2.725  51.456  1.00  0.00    -0.043 C 
HETATM    2  C5  UNL     1      25.857   2.520  52.319  1.00  0.00     0.009 C 
HETATM    3  C6  UNL     1      26.818   1.495  52.761  1.00  0.00     0.138 C 
HETATM    4  C7  UNL     1      26.459   0.112  52.229  1.00  0.00     0.091 C 
HETATM    5  C8  UNL     1      25.166  -0.110  53.008  1.00  0.00     0.049 C 
HETATM    6  N2  UNL     1      25.414  -0.560  54.222  1.00  0.00    -0.246 NA
HETATM    7  C9  UNL     1      26.437   0.318  54.866  1.00  0.00     0.227 C 
HETATM    8  N3  UNL     1      26.922   1.350  54.198  1.00  0.00    -0.273 NA
HETATM    9  C10 UNL     1      23.757   0.114  52.702  1.00  0.00    -0.003 A 
HETATM   10  C11 UNL     1      23.216  -0.780  53.599  1.00  0.00     0.041 A 
HETATM   11  C12 UNL     1      21.823  -0.790  53.541  1.00  0.00     0.073 A 
HETATM   12 CL1  UNL     1      20.967  -1.871  54.618  1.00  0.00    -0.081 Cl
HETATM   13  C13 UNL     1      21.122   0.027  52.664  1.00  0.00     0.138 A 
HETATM   14  F1  UNL     1      19.771   0.027  52.596  1.00  0.00    -0.204 F 
HETATM   15  C14 UNL     1      21.751   0.891  51.803  1.00  0.00     0.052 A 
HETATM   16  C15 UNL     1      23.120   0.972  51.788  1.00  0.00    -0.039 A 
HETATM   17  C16 UNL     1      23.765   1.930  50.888  1.00  0.00     0.078 C 
ENDROOT
BRANCH   1  18
HETATM   18  C3  UNL     1      24.881   4.112  50.970  1.00  0.00     0.006 A 
HETATM   19  C2  UNL     1      24.111   5.197  51.341  1.00  0.00     0.125 A 
HETATM   20  N1  UNL     1      24.427   6.320  50.673  1.00  0.00    -0.285 N 
HETATM   21  C1  UNL     1      23.817   7.626  50.820  1.00  0.00     0.179 C 
HETATM   22  N4  UNL     1      25.412   5.986  49.855  1.00  0.00    -0.185 NA
HETATM   23  C17 UNL     1      25.703   4.674  50.012  1.00  0.00     0.152 A 
ENDBRANCH   1  18
TORSDOF 1
ENDMDL
MODEL 6
REMARK VINA RESULT:      -8.3      1.144      1.613
REMARK  1 active torsions:
REMARK  status: ('A' for Active; 'I' for Inactive)
REMARK    1  A    between atoms: C3_4  and  C4_5 
ROOT
HETATM    1  C4  UNL     1      22.616   1.392  52.407  1.00  0.00    -0.043 C 
HETATM    2  C5  UNL     1      23.451   0.405  52.744  1.00  0.00     0.009 C 
HETATM    3  C6  UNL     1      24.683   0.136  53.506  1.00  0.00     0.138 C 
HETATM    4  C7  UNL     1      25.408   1.421  53.888  1.00  0.00     0.091 C 
HETATM    5  C8  UNL     1      25.825   1.878  52.494  1.00  0.00     0.049 C 
HETATM    6  N2  UNL     1      26.935   1.279  52.109  1.00  0.00    -0.246 NA
HETATM    7  C9  UNL     1      26.787  -0.194  52.310  1.00  0.00     0.227 C 
HETATM    8  N3  UNL     1      25.658  -0.673  52.802  1.00  0.00    -0.273 NA
HETATM    9  C10 UNL     1      25.233   2.783  51.514  1.00  0.00    -0.003 A 
HETATM   10  C11 UNL     1      26.378   3.089  50.811  1.00  0.00     0.041 A 
HETATM   11  C12 UNL     1      26.120   3.970  49.762  1.00  0.00     0.073 A 
HETATM   12 CL1  UNL     1      27.466   4.465  48.759  1.00  0.00    -0.081 Cl
HETATM   13  C13 UNL     1      24.841   4.447  49.506  1.00  0.00     0.138 A 
HETATM   14  F1  UNL     1      24.576   5.303  48.492  1.00  0.00    -0.204 F 
HETATM   15  C14 UNL     1      23.756   4.084  50.264  1.00  0.00     0.052 A 
HETATM   16  C15 UNL     1      23.911   3.220  51.318  1.00  0.00    -0.039 A 
HETATM   17  C16 UNL     1      22.732   2.818  52.086  1.00  0.00     0.078 C 
ENDROOT
BRANCH   1  18
HETATM   18  C3  UNL     1      21.235   0.892  52.344  1.00  0.00     0.006 A 
HETATM   19  C2  UNL     1      20.618  -0.106  53.072  1.00  0.00     0.125 A 
HETATM   20  N1  UNL     1      19.328  -0.281  52.737  1.00  0.00    -0.285 N 
HETATM   21  C1  UNL     1      18.399  -1.238  53.303  1.00  0.00     0.179 C 
HETATM   22  N4  UNL     1      19.082   0.602  51.782  1.00  0.00    -0.185 NA
HETATM   23  C17 UNL     1      20.203   1.315  51.528  1.00  0.00     0.152 A 
ENDBRANCH   1  18
TORSDOF 1
ENDMDL
MODEL 7
REMARK VINA RESULT:      -8.3      3.905      6.750
REMARK  1 active torsions:
REMARK  status: ('A' for Active; 'I' for Inactive)
REMARK    1  A    between atoms: C3_4  and  C4_5 
ROOT
HETATM    1  C4  UNL     1      22.862   0.744  52.708  1.00  0.00    -0.043 C 
HETATM    2  C5  UNL     1      23.064   1.187  51.464  1.00  0.00     0.009 C 
HETATM    3  C6  UNL     1      22.623   2.224  50.515  1.00  0.00     0.138 C 
HETATM    4  C7  UNL     1      21.359   2.930  50.992  1.00  0.00     0.091 C 
HETATM    5  C8  UNL     1      20.382   1.764  50.879  1.00  0.00     0.049 C 
HETATM    6  N2  UNL     1      19.934   1.636  49.645  1.00  0.00    -0.246 NA
HETATM    7  C9  UNL     1      21.096   1.625  48.705  1.00  0.00     0.227 C 
HETATM    8  N3  UNL     1      22.322   1.731  49.186  1.00  0.00    -0.273 NA
HETATM    9  C10 UNL     1      19.896   0.765  51.825  1.00  0.00    -0.003 A 
HETATM   10  C11 UNL     1      18.720   0.442  51.184  1.00  0.00     0.041 A 
HETATM   11  C12 UNL     1      18.005  -0.533  51.878  1.00  0.00     0.073 A 
HETATM   12 CL1  UNL     1      16.481  -1.066  51.203  1.00  0.00    -0.081 Cl
HETATM   13  C13 UNL     1      18.474  -1.077  53.066  1.00  0.00     0.138 A 
HETATM   14  F1  UNL     1      17.791  -2.023  53.750  1.00  0.00    -0.204 F 
HETATM   15  C14 UNL     1      19.665  -0.691  53.631  1.00  0.00     0.052 A 
HETATM   16  C15 UNL     1      20.439   0.262  53.020  1.00  0.00    -0.039 A 
HETATM   17  C16 UNL     1      21.723   0.627  53.622  1.00  0.00     0.078 C 
ENDROOT
BRANCH   1  18
HETATM   18  C3  UNL     1      24.122   0.248  53.282  1.00  0.00     0.006 A 
HETATM   19  C2  UNL     1      25.417   0.694  53.101  1.00  0.00     0.125 A 
HETATM   20  N1  UNL     1      26.319  -0.012  53.804  1.00  0.00    -0.285 N 
HETATM   21  C1  UNL     1      27.753   0.191  53.840  1.00  0.00     0.179 C 
HETATM   22  N4  UNL     1      25.626  -0.931  54.457  1.00  0.00    -0.185 NA
HETATM   23  C17 UNL     1      24.313  -0.798  54.163  1.00  0.00     0.152 A 
ENDBRANCH   1  18
TORSDOF 1
ENDMDL
MODEL 8
REMARK VINA RESULT:      -8.1      2.504      5.319
REMARK  1 active torsions:
REMARK  status: ('A' for Active; 'I' for Inactive)
REMARK    1  A    between atoms: C3_4  and  C4_5 
ROOT
HETATM    1  C4  UNL     1      24.063   1.167  52.436  1.00  0.00    -0.043 C 
HETATM    2  C5  UNL     1      22.857   0.640  52.666  1.00  0.00     0.009 C 
HETATM    3  C6  UNL     1      21.605   0.266  51.986  1.00  0.00     0.138 C 
HETATM    4  C7  UNL     1      21.527   0.846  50.579  1.00  0.00     0.091 C 
HETATM    5  C8  UNL     1      21.425   2.324  50.940  1.00  0.00     0.049 C 
HETATM    6  N2  UNL     1      20.182   2.659  51.226  1.00  0.00    -0.246 NA
HETATM    7  C9  UNL     1      19.636   1.691  52.225  1.00  0.00     0.227 C 
HETATM    8  N3  UNL     1      20.401   0.706  52.662  1.00  0.00    -0.273 NA
HETATM    9  C10 UNL     1      22.406   3.396  51.071  1.00  0.00    -0.003 A 
HETATM   10  C11 UNL     1      21.557   4.465  50.880  1.00  0.00     0.041 A 
HETATM   11  C12 UNL     1      22.234   5.682  50.956  1.00  0.00     0.073 A 
HETATM   12 CL1  UNL     1      21.305   7.149  50.739  1.00  0.00    -0.081 Cl
HETATM   13  C13 UNL     1      23.599   5.744  51.199  1.00  0.00     0.138 A 
HETATM   14  F1  UNL     1      24.269   6.918  51.274  1.00  0.00    -0.204 F 
HETATM   15  C14 UNL     1      24.367   4.620  51.378  1.00  0.00     0.052 A 
HETATM   16  C15 UNL     1      23.789   3.377  51.321  1.00  0.00    -0.039 A 
HETATM   17  C16 UNL     1      24.622   2.196  51.554  1.00  0.00     0.078 C 
ENDROOT
BRANCH   1  18
HETATM   18  C3  UNL     1      25.068   0.539  53.306  1.00  0.00     0.006 A 
HETATM   19  C2  UNL     1      26.391   0.872  53.521  1.00  0.00     0.125 A 
HETATM   20  N1  UNL     1      27.001   0.061  54.402  1.00  0.00    -0.285 N 
HETATM   21  C1  UNL     1      28.377   0.133  54.850  1.00  0.00     0.179 C 
HETATM   22  N4  UNL     1      26.084  -0.816  54.779  1.00  0.00    -0.185 NA
HETATM   23  C17 UNL     1      24.921  -0.554  54.139  1.00  0.00     0.152 A 
ENDBRANCH   1  18
TORSDOF 1
ENDMDL
MODEL 9
REMARK VINA RESULT:      -7.8      3.607      5.913
REMARK  1 active torsions:
REMARK  status: ('A' for Active; 'I' for Inactive)
REMARK    1  A    between atoms: C3_4  and  C4_5 
ROOT
HETATM    1  C4  UNL     1      22.889   3.641  52.361  1.00  0.00    -0.043 C 
HETATM    2  C5  UNL     1      21.830   2.906  52.009  1.00  0.00     0.009 C 
HETATM    3  C6  UNL     1      20.920   1.864  52.515  1.00  0.00     0.138 C 
HETATM    4  C7  UNL     1      21.446   1.223  53.795  1.00  0.00     0.091 C 
HETATM    5  C8  UNL     1      22.669   0.518  53.217  1.00  0.00     0.049 C 
HETATM    6  N2  UNL     1      22.341  -0.643  52.682  1.00  0.00    -0.246 NA
HETATM    7  C9  UNL     1      21.188  -0.440  51.753  1.00  0.00     0.227 C 
HETATM    8  N3  UNL     1      20.687   0.772  51.593  1.00  0.00    -0.273 NA
HETATM    9  C10 UNL     1      24.077   0.881  53.101  1.00  0.00    -0.003 A 
HETATM   10  C11 UNL     1      24.601  -0.389  52.996  1.00  0.00     0.041 A 
HETATM   11  C12 UNL     1      25.989  -0.366  52.863  1.00  0.00     0.073 A 
HETATM   12 CL1  UNL     1      26.822  -1.897  52.713  1.00  0.00    -0.081 Cl
HETATM   13  C13 UNL     1      26.702   0.825  52.846  1.00  0.00     0.138 A 
HETATM   14  F1  UNL     1      28.048   0.863  52.719  1.00  0.00    -0.204 F 
HETATM   15  C14 UNL     1      26.090   2.050  52.958  1.00  0.00     0.052 A 
HETATM   16  C15 UNL     1      24.727   2.128  53.092  1.00  0.00    -0.039 A 
HETATM   17  C16 UNL     1      24.096   3.446  53.169  1.00  0.00     0.078 C 
ENDROOT
BRANCH   1  18
HETATM   18  C3  UNL     1      22.797   4.983  51.768  1.00  0.00     0.006 A 
HETATM   19  C2  UNL     1      23.791   5.899  51.481  1.00  0.00     0.125 A 
HETATM   20  N1  UNL     1      23.320   7.031  50.930  1.00  0.00    -0.285 N 
HETATM   21  C1  UNL     1      24.089   8.186  50.512  1.00  0.00     0.179 C 
HETATM   22  N4  UNL     1      22.009   6.872  50.847  1.00  0.00    -0.185 NA
HETATM   23  C17 UNL     1      21.670   5.659  51.340  1.00  0.00     0.152 A 
ENDBRANCH   1  18
TORSDOF 1
ENDMDL
