MODEL 1
REMARK VINA RESULT:      -7.5      0.000      0.000
REMARK  7 active torsions:
REMARK  status: ('A' for Active; 'I' for Inactive)
REMARK    1  A    between atoms: C5_5  and  C6_6 
REMARK    2  A    between atoms: C6_6  and  N1_8 
REMARK    3  A    between atoms: N1_8  and  N2_9 
REMARK    4  A    between atoms: N2_9  and  N3_10 
REMARK    5  A    between atoms: N3_10  and  C8_11 
REMARK    6  A    between atoms: C8_11  and  C9_12 
REMARK    7  A    between atoms: C16_20  and  N5_21 
ROOT
HETATM    1  C6  UNL     1      25.500  -0.411  53.579  1.00  0.00     0.055 C 
HETATM    2  C7  UNL     1      26.557  -1.260  52.939  1.00  0.00     0.072 C 
ENDROOT
BRANCH   1   3
HETATM    3  C5  UNL     1      24.258  -0.288  53.166  1.00  0.00     0.042 C 
HETATM    4  C4  UNL     1      22.976  -0.687  53.674  1.00  0.00    -0.003 A 
HETATM    5  C3  UNL     1      21.657  -0.488  53.110  1.00  0.00     0.017 A 
HETATM    6  C15 UNL     1      22.854  -1.334  54.803  1.00  0.00     0.131 A 
HETATM    7  C2  UNL     1      21.300   0.102  52.008  1.00  0.00    -0.015 C 
HETATM    8  C16 UNL     1      20.746  -1.119  54.088  1.00  0.00     0.131 A 
HETATM    9  C1  UNL     1      22.031   0.774  50.936  1.00  0.00     0.037 C 
HETATM   10  N4  UNL     1      21.480  -1.587  55.034  1.00  0.00    -0.242 NA
BRANCH   8  11
HETATM   11  N5  UNL     1      19.308  -1.195  53.992  1.00  0.00    -0.383 N 
HETATM   12  H18 UNL     1      19.087  -0.874  53.008  1.00  0.00     0.157 HD
HETATM   13  H19 UNL     1      18.720  -1.514  54.796  1.00  0.00     0.157 HD
ENDBRANCH   8  11
ENDBRANCH   1   3
BRANCH   1  14
HETATM   14  N1  UNL     1      25.958   0.305  54.743  1.00  0.00    -0.138 NA
BRANCH  14  15
HETATM   15  N2  UNL     1      26.916   1.105  54.606  1.00  0.00    -0.073 NA
BRANCH  15  16
HETATM   16  N3  UNL     1      26.925   2.242  53.816  1.00  0.00    -0.291 N 
HETATM   17  H9  UNL     1      26.555   3.081  54.318  1.00  0.00     0.184 HD
BRANCH  16  18
HETATM   18  C8  UNL     1      27.398   2.272  52.434  1.00  0.00     0.181 C 
BRANCH  18  19
HETATM   19  C9  UNL     1      26.322   2.771  51.540  1.00  0.00    -0.039 A 
HETATM   20  C10 UNL     1      25.068   3.031  52.066  1.00  0.00     0.009 A 
HETATM   21  C11 UNL     1      23.978   3.500  51.342  1.00  0.00     0.001 A 
HETATM   22  C12 UNL     1      24.176   3.723  49.976  1.00  0.00     0.000 A 
HETATM   23  C13 UNL     1      25.414   3.473  49.420  1.00  0.00     0.001 A 
HETATM   24  C14 UNL     1      26.471   3.007  50.176  1.00  0.00     0.009 A 
ENDBRANCH  18  19
ENDBRANCH  16  18
ENDBRANCH  15  16
ENDBRANCH  14  15
ENDBRANCH   1  14
TORSDOF 7
ENDMDL
MODEL 2
REMARK VINA RESULT:      -7.3      2.086      4.241
REMARK  7 active torsions:
REMARK  status: ('A' for Active; 'I' for Inactive)
REMARK    1  A    between atoms: C5_5  and  C6_6 
REMARK    2  A    between atoms: C6_6  and  N1_8 
REMARK    3  A    between atoms: N1_8  and  N2_9 
REMARK    4  A    between atoms: N2_9  and  N3_10 
REMARK    5  A    between atoms: N3_10  and  C8_11 
REMARK    6  A    between atoms: C8_11  and  C9_12 
REMARK    7  A    between atoms: C16_20  and  N5_21 
ROOT
HETATM    1  C6  UNL     1      24.015   2.184  52.539  1.00  0.00     0.055 C 
HETATM    2  C7  UNL     1      23.805   3.656  52.730  1.00  0.00     0.072 C 
ENDROOT
BRANCH   1   3
HETATM    3  C5  UNL     1      23.367   1.227  53.166  1.00  0.00     0.042 C 
HETATM    4  C4  UNL     1      22.027   0.714  53.128  1.00  0.00    -0.003 A 
HETATM    5  C3  UNL     1      21.430  -0.365  53.886  1.00  0.00     0.017 A 
HETATM    6  C15 UNL     1      21.121   1.217  52.330  1.00  0.00     0.131 A 
HETATM    7  C2  UNL     1      21.952  -1.142  54.787  1.00  0.00    -0.015 C 
HETATM    8  C16 UNL     1      20.033  -0.414  53.406  1.00  0.00     0.131 A 
HETATM    9  C1  UNL     1      23.283  -1.252  55.382  1.00  0.00     0.037 C 
HETATM   10  N4  UNL     1      19.909   0.509  52.519  1.00  0.00    -0.242 NA
BRANCH   8  11
HETATM   11  N5  UNL     1      19.007  -1.326  53.852  1.00  0.00    -0.383 N 
HETATM   12  H18 UNL     1      18.544  -1.666  52.962  1.00  0.00     0.157 HD
HETATM   13  H19 UNL     1      18.852  -1.525  54.867  1.00  0.00     0.157 HD
ENDBRANCH   8  11
ENDBRANCH   1   3
BRANCH   1  14
HETATM   14  N1  UNL     1      25.031   1.865  51.568  1.00  0.00    -0.138 NA
BRANCH  14  15
HETATM   15  N2  UNL     1      26.032   2.621  51.490  1.00  0.00    -0.073 NA
BRANCH  15  16
HETATM   16  N3  UNL     1      27.188   2.527  52.246  1.00  0.00    -0.291 N 
HETATM   17  H9  UNL     1      28.009   2.972  51.777  1.00  0.00     0.184 HD
BRANCH  16  18
HETATM   18  C8  UNL     1      27.257   1.879  53.553  1.00  0.00     0.181 C 
BRANCH  18  19
HETATM   19  C9  UNL     1      27.874   0.534  53.421  1.00  0.00    -0.039 A 
HETATM   20  C10 UNL     1      29.227   0.380  53.670  1.00  0.00     0.009 A 
HETATM   21  C11 UNL     1      29.926  -0.819  53.583  1.00  0.00     0.001 A 
HETATM   22  C12 UNL     1      29.194  -1.951  53.214  1.00  0.00     0.000 A 
HETATM   23  C13 UNL     1      27.844  -1.832  52.958  1.00  0.00     0.001 A 
HETATM   24  C14 UNL     1      27.187  -0.622  53.056  1.00  0.00     0.009 A 
ENDBRANCH  18  19
ENDBRANCH  16  18
ENDBRANCH  15  16
ENDBRANCH  14  15
ENDBRANCH   1  14
TORSDOF 7
ENDMDL
MODEL 3
REMARK VINA RESULT:      -7.2      1.979      2.676
REMARK  7 active torsions:
REMARK  status: ('A' for Active; 'I' for Inactive)
REMARK    1  A    between atoms: C5_5  and  C6_6 
REMARK    2  A    between atoms: C6_6  and  N1_8 
REMARK    3  A    between atoms: N1_8  and  N2_9 
REMARK    4  A    between atoms: N2_9  and  N3_10 
REMARK    5  A    between atoms: N3_10  and  C8_11 
REMARK    6  A    between atoms: C8_11  and  C9_12 
REMARK    7  A    between atoms: C16_20  and  N5_21 
ROOT
HETATM    1  C6  UNL     1      25.976   0.335  52.563  1.00  0.00     0.055 C 
HETATM    2  C7  UNL     1      26.904  -0.842  52.535  1.00  0.00     0.072 C 
ENDROOT
BRANCH   1   3
HETATM    3  C5  UNL     1      24.671   0.289  52.412  1.00  0.00     0.042 C 
HETATM    4  C4  UNL     1      23.577  -0.230  53.182  1.00  0.00    -0.003 A 
HETATM    5  C3  UNL     1      22.157  -0.215  52.896  1.00  0.00     0.017 A 
HETATM    6  C15 UNL     1      23.767  -0.826  54.330  1.00  0.00     0.131 A 
HETATM    7  C2  UNL     1      21.516   0.270  51.875  1.00  0.00    -0.015 C 
HETATM    8  C16 UNL     1      21.548  -0.897  54.057  1.00  0.00     0.131 A 
HETATM    9  C1  UNL     1      21.927   0.966  50.658  1.00  0.00     0.037 C 
HETATM   10  N4  UNL     1      22.509  -1.225  54.845  1.00  0.00    -0.242 NA
BRANCH   8  11
HETATM   11  N5  UNL     1      20.141  -1.145  54.261  1.00  0.00    -0.383 N 
HETATM   12  H18 UNL     1      19.987  -0.983  55.296  1.00  0.00     0.157 HD
HETATM   13  H19 UNL     1      19.512  -1.421  53.473  1.00  0.00     0.157 HD
ENDBRANCH   8  11
ENDBRANCH   1   3
BRANCH   1  14
HETATM   14  N1  UNL     1      26.644   1.593  52.780  1.00  0.00    -0.138 NA
BRANCH  14  15
HETATM   15  N2  UNL     1      27.217   2.134  51.802  1.00  0.00    -0.073 NA
BRANCH  15  16
HETATM   16  N3  UNL     1      26.806   3.281  51.145  1.00  0.00    -0.291 N 
HETATM   17  H9  UNL     1      26.968   4.146  51.709  1.00  0.00     0.184 HD
BRANCH  16  18
HETATM   18  C8  UNL     1      26.212   3.288  49.810  1.00  0.00     0.181 C 
BRANCH  18  19
HETATM   19  C9  UNL     1      26.426   4.609  49.165  1.00  0.00    -0.039 A 
HETATM   20  C10 UNL     1      27.700   4.966  48.755  1.00  0.00     0.009 A 
HETATM   21  C11 UNL     1      28.034   6.168  48.141  1.00  0.00     0.001 A 
HETATM   22  C12 UNL     1      26.996   7.079  47.927  1.00  0.00     0.000 A 
HETATM   23  C13 UNL     1      25.716   6.754  48.325  1.00  0.00     0.001 A 
HETATM   24  C14 UNL     1      25.425   5.549  48.932  1.00  0.00     0.009 A 
ENDBRANCH  18  19
ENDBRANCH  16  18
ENDBRANCH  15  16
ENDBRANCH  14  15
ENDBRANCH   1  14
TORSDOF 7
ENDMDL
MODEL 4
REMARK VINA RESULT:      -7.1      2.602      6.109
REMARK  7 active torsions:
REMARK  status: ('A' for Active; 'I' for Inactive)
REMARK    1  A    between atoms: C5_5  and  C6_6 
REMARK    2  A    between atoms: C6_6  and  N1_8 
REMARK    3  A    between atoms: N1_8  and  N2_9 
REMARK    4  A    between atoms: N2_9  and  N3_10 
REMARK    5  A    between atoms: N3_10  and  C8_11 
REMARK    6  A    between atoms: C8_11  and  C9_12 
REMARK    7  A    between atoms: C16_20  and  N5_21 
ROOT
HETATM    1  C6  UNL     1      25.508   2.138  52.489  1.00  0.00     0.055 C 
HETATM    2  C7  UNL     1      24.717   3.078  53.347  1.00  0.00     0.072 C 
ENDROOT
BRANCH   1   3
HETATM    3  C5  UNL     1      26.520   1.399  52.887  1.00  0.00     0.042 C 
HETATM    4  C4  UNL     1      26.853   0.005  52.806  1.00  0.00    -0.003 A 
HETATM    5  C3  UNL     1      28.023  -0.694  53.296  1.00  0.00     0.017 A 
HETATM    6  C15 UNL     1      26.061  -0.858  52.226  1.00  0.00     0.131 A 
HETATM    7  C2  UNL     1      29.063  -0.241  53.930  1.00  0.00    -0.015 C 
HETATM    8  C16 UNL     1      27.789  -2.102  52.912  1.00  0.00     0.131 A 
HETATM    9  C1  UNL     1      29.471   1.085  54.388  1.00  0.00     0.037 C 
HETATM   10  N4  UNL     1      26.657  -2.141  52.305  1.00  0.00    -0.242 NA
BRANCH   8  11
HETATM   11  N5  UNL     1      28.668  -3.217  53.173  1.00  0.00    -0.383 N 
HETATM   12  H18 UNL     1      29.617  -2.896  52.833  1.00  0.00     0.157 HD
HETATM   13  H19 UNL     1      28.319  -4.101  53.609  1.00  0.00     0.157 HD
ENDBRANCH   8  11
ENDBRANCH   1   3
BRANCH   1  14
HETATM   14  N1  UNL     1      25.064   2.091  51.118  1.00  0.00    -0.138 NA
BRANCH  14  15
HETATM   15  N2  UNL     1      23.846   2.296  50.885  1.00  0.00    -0.073 NA
BRANCH  15  16
HETATM   16  N3  UNL     1      22.822   1.374  51.014  1.00  0.00    -0.291 N 
HETATM   17  H9  UNL     1      22.950   0.544  50.393  1.00  0.00     0.184 HD
BRANCH  16  18
HETATM   18  C8  UNL     1      21.686   1.539  51.918  1.00  0.00     0.181 C 
BRANCH  18  19
HETATM   19  C9  UNL     1      21.629   0.404  52.875  1.00  0.00    -0.039 A 
HETATM   20  C10 UNL     1      22.774   0.039  53.563  1.00  0.00     0.009 A 
HETATM   21  C11 UNL     1      22.857  -1.000  54.483  1.00  0.00     0.001 A 
HETATM   22  C12 UNL     1      21.686  -1.725  54.724  1.00  0.00     0.000 A 
HETATM   23  C13 UNL     1      20.528  -1.387  54.055  1.00  0.00     0.001 A 
HETATM   24  C14 UNL     1      20.489  -0.347  53.148  1.00  0.00     0.009 A 
ENDBRANCH  18  19
ENDBRANCH  16  18
ENDBRANCH  15  16
ENDBRANCH  14  15
ENDBRANCH   1  14
TORSDOF 7
ENDMDL
MODEL 5
REMARK VINA RESULT:      -7.0      2.461      5.041
REMARK  7 active torsions:
REMARK  status: ('A' for Active; 'I' for Inactive)
REMARK    1  A    between atoms: C5_5  and  C6_6 
REMARK    2  A    between atoms: C6_6  and  N1_8 
REMARK    3  A    between atoms: N1_8  and  N2_9 
REMARK    4  A    between atoms: N2_9  and  N3_10 
REMARK    5  A    between atoms: N3_10  and  C8_11 
REMARK    6  A    between atoms: C8_11  and  C9_12 
REMARK    7  A    between atoms: C16_20  and  N5_21 
ROOT
HETATM    1  C6  UNL     1      23.465   0.788  52.956  1.00  0.00     0.055 C 
HETATM    2  C7  UNL     1      22.332   0.245  53.773  1.00  0.00     0.072 C 
ENDROOT
BRANCH   1   3
HETATM    3  C5  UNL     1      24.700   0.338  52.958  1.00  0.00     0.042 C 
HETATM    4  C4  UNL     1      25.978   0.883  53.319  1.00  0.00    -0.003 A 
HETATM    5  C3  UNL     1      27.290   0.270  53.271  1.00  0.00     0.017 A 
HETATM    6  C15 UNL     1      26.103   2.103  53.771  1.00  0.00     0.131 A 
HETATM    7  C2  UNL     1      27.641  -0.923  52.893  1.00  0.00    -0.015 C 
HETATM    8  C16 UNL     1      28.199   1.325  53.766  1.00  0.00     0.131 A 
HETATM    9  C1  UNL     1      26.909  -2.082  52.387  1.00  0.00     0.037 C 
HETATM   10  N4  UNL     1      27.472   2.350  54.037  1.00  0.00    -0.242 NA
BRANCH   8  11
HETATM   11  N5  UNL     1      29.631   1.218  53.913  1.00  0.00    -0.383 N 
HETATM   12  H18 UNL     1      29.848   1.740  54.808  1.00  0.00     0.157 HD
HETATM   13  H19 UNL     1      30.219   0.709  53.214  1.00  0.00     0.157 HD
ENDBRANCH   8  11
ENDBRANCH   1   3
BRANCH   1  14
HETATM   14  N1  UNL     1      23.093   1.900  52.118  1.00  0.00    -0.138 NA
BRANCH  14  15
HETATM   15  N2  UNL     1      23.470   1.888  50.920  1.00  0.00    -0.073 NA
BRANCH  15  16
HETATM   16  N3  UNL     1      24.221   2.865  50.289  1.00  0.00    -0.291 N 
HETATM   17  H9  UNL     1      23.628   3.565  49.788  1.00  0.00     0.184 HD
BRANCH  16  18
HETATM   18  C8  UNL     1      25.680   2.917  50.317  1.00  0.00     0.181 C 
BRANCH  18  19
HETATM   19  C9  UNL     1      26.155   4.187  49.710  1.00  0.00    -0.039 A 
HETATM   20  C10 UNL     1      25.410   5.342  49.881  1.00  0.00     0.009 A 
HETATM   21  C11 UNL     1      25.741   6.591  49.368  1.00  0.00     0.001 A 
HETATM   22  C12 UNL     1      26.921   6.675  48.623  1.00  0.00     0.000 A 
HETATM   23  C13 UNL     1      27.686   5.543  48.433  1.00  0.00     0.001 A 
HETATM   24  C14 UNL     1      27.321   4.320  48.960  1.00  0.00     0.009 A 
ENDBRANCH  18  19
ENDBRANCH  16  18
ENDBRANCH  15  16
ENDBRANCH  14  15
ENDBRANCH   1  14
TORSDOF 7
ENDMDL
MODEL 6
REMARK VINA RESULT:      -7.0      2.490      6.386
REMARK  7 active torsions:
REMARK  status: ('A' for Active; 'I' for Inactive)
REMARK    1  A    between atoms: C5_5  and  C6_6 
REMARK    2  A    between atoms: C6_6  and  N1_8 
REMARK    3  A    between atoms: N1_8  and  N2_9 
REMARK    4  A    between atoms: N2_9  and  N3_10 
REMARK    5  A    between atoms: N3_10  and  C8_11 
REMARK    6  A    between atoms: C8_11  and  C9_12 
REMARK    7  A    between atoms: C16_20  and  N5_21 
ROOT
HETATM    1  C6  UNL     1      24.488   2.023  52.001  1.00  0.00     0.055 C 
HETATM    2  C7  UNL     1      23.800   2.877  53.021  1.00  0.00     0.072 C 
ENDROOT
BRANCH   1   3
HETATM    3  C5  UNL     1      25.428   1.137  52.246  1.00  0.00     0.042 C 
HETATM    4  C4  UNL     1      26.805   1.202  52.646  1.00  0.00    -0.003 A 
HETATM    5  C3  UNL     1      27.749   0.130  52.885  1.00  0.00     0.017 A 
HETATM    6  C15 UNL     1      27.407   2.344  52.855  1.00  0.00     0.131 A 
HETATM    7  C2  UNL     1      27.590  -1.157  52.800  1.00  0.00    -0.015 C 
HETATM    8  C16 UNL     1      28.996   0.825  53.266  1.00  0.00     0.131 A 
HETATM    9  C1  UNL     1      26.462  -2.018  52.451  1.00  0.00     0.037 C 
HETATM   10  N4  UNL     1      28.747   2.086  53.233  1.00  0.00    -0.242 NA
BRANCH   8  11
HETATM   11  N5  UNL     1      30.252   0.202  53.608  1.00  0.00    -0.383 N 
HETATM   12  H18 UNL     1      29.982  -0.677  54.133  1.00  0.00     0.157 HD
HETATM   13  H19 UNL     1      31.168   0.628  53.339  1.00  0.00     0.157 HD
ENDBRANCH   8  11
ENDBRANCH   1   3
BRANCH   1  14
HETATM   14  N1  UNL     1      24.027   2.246  50.653  1.00  0.00    -0.138 NA
BRANCH  14  15
HETATM   15  N2  UNL     1      22.789   2.215  50.440  1.00  0.00    -0.073 NA
BRANCH  15  16
HETATM   16  N3  UNL     1      22.043   1.096  50.114  1.00  0.00    -0.291 N 
HETATM   17  H9  UNL     1      22.456   0.556  49.320  1.00  0.00     0.184 HD
BRANCH  16  18
HETATM   18  C8  UNL     1      20.814   0.707  50.801  1.00  0.00     0.181 C 
BRANCH  18  19
HETATM   19  C9  UNL     1      21.121   0.294  52.195  1.00  0.00    -0.039 A 
HETATM   20  C10 UNL     1      22.104  -0.654  52.421  1.00  0.00     0.009 A 
HETATM   21  C11 UNL     1      22.487  -1.127  53.671  1.00  0.00     0.001 A 
HETATM   22  C12 UNL     1      21.820  -0.596  54.779  1.00  0.00     0.000 A 
HETATM   23  C13 UNL     1      20.834   0.350  54.588  1.00  0.00     0.001 A 
HETATM   24  C14 UNL     1      20.484   0.793  53.328  1.00  0.00     0.009 A 
ENDBRANCH  18  19
ENDBRANCH  16  18
ENDBRANCH  15  16
ENDBRANCH  14  15
ENDBRANCH   1  14
TORSDOF 7
ENDMDL
MODEL 7
REMARK VINA RESULT:      -7.0      2.295      3.910
REMARK  7 active torsions:
REMARK  status: ('A' for Active; 'I' for Inactive)
REMARK    1  A    between atoms: C5_5  and  C6_6 
REMARK    2  A    between atoms: C6_6  and  N1_8 
REMARK    3  A    between atoms: N1_8  and  N2_9 
REMARK    4  A    between atoms: N2_9  and  N3_10 
REMARK    5  A    between atoms: N3_10  and  C8_11 
REMARK    6  A    between atoms: C8_11  and  C9_12 
REMARK    7  A    between atoms: C16_20  and  N5_21 
ROOT
HETATM    1  C6  UNL     1      23.158   2.281  52.220  1.00  0.00     0.055 C 
HETATM    2  C7  UNL     1      23.392   3.661  52.753  1.00  0.00     0.072 C 
ENDROOT
BRANCH   1   3
HETATM    3  C5  UNL     1      22.623   1.280  52.885  1.00  0.00     0.042 C 
HETATM    4  C4  UNL     1      21.326   0.668  52.927  1.00  0.00    -0.003 A 
HETATM    5  C3  UNL     1      20.858  -0.450  53.719  1.00  0.00     0.017 A 
HETATM    6  C15 UNL     1      20.339   1.096  52.185  1.00  0.00     0.131 A 
HETATM    7  C2  UNL     1      21.491  -1.181  54.588  1.00  0.00    -0.015 C 
HETATM    8  C16 UNL     1      19.443  -0.607  53.324  1.00  0.00     0.131 A 
HETATM    9  C1  UNL     1      22.859  -1.187  55.103  1.00  0.00     0.037 C 
HETATM   10  N4  UNL     1      19.197   0.300  52.446  1.00  0.00    -0.242 NA
BRANCH   8  11
HETATM   11  N5  UNL     1      18.517  -1.592  53.830  1.00  0.00    -0.383 N 
HETATM   12  H18 UNL     1      18.705  -1.626  54.871  1.00  0.00     0.157 HD
HETATM   13  H19 UNL     1      17.853  -2.097  53.200  1.00  0.00     0.157 HD
ENDBRANCH   8  11
ENDBRANCH   1   3
BRANCH   1  14
HETATM   14  N1  UNL     1      23.580   2.108  50.853  1.00  0.00    -0.138 NA
BRANCH  14  15
HETATM   15  N2  UNL     1      24.456   2.888  50.402  1.00  0.00    -0.073 NA
BRANCH  15  16
HETATM   16  N3  UNL     1      25.802   2.606  50.250  1.00  0.00    -0.291 N 
HETATM   17  H9  UNL     1      26.037   2.284  49.284  1.00  0.00     0.184 HD
BRANCH  16  18
HETATM   18  C8  UNL     1      26.790   2.743  51.318  1.00  0.00     0.181 C 
BRANCH  18  19
HETATM   19  C9  UNL     1      26.643   1.630  52.291  1.00  0.00    -0.039 A 
HETATM   20  C10 UNL     1      26.582   0.327  51.827  1.00  0.00     0.009 A 
HETATM   21  C11 UNL     1      26.446  -0.801  52.628  1.00  0.00     0.001 A 
HETATM   22  C12 UNL     1      26.366  -0.591  54.008  1.00  0.00     0.000 A 
HETATM   23  C13 UNL     1      26.423   0.696  54.502  1.00  0.00     0.001 A 
HETATM   24  C14 UNL     1      26.558   1.790  53.672  1.00  0.00     0.009 A 
ENDBRANCH  18  19
ENDBRANCH  16  18
ENDBRANCH  15  16
ENDBRANCH  14  15
ENDBRANCH   1  14
TORSDOF 7
ENDMDL
MODEL 8
REMARK VINA RESULT:      -6.9      2.709      4.807
REMARK  7 active torsions:
REMARK  status: ('A' for Active; 'I' for Inactive)
REMARK    1  A    between atoms: C5_5  and  C6_6 
REMARK    2  A    between atoms: C6_6  and  N1_8 
REMARK    3  A    between atoms: N1_8  and  N2_9 
REMARK    4  A    between atoms: N2_9  and  N3_10 
REMARK    5  A    between atoms: N3_10  and  C8_11 
REMARK    6  A    between atoms: C8_11  and  C9_12 
REMARK    7  A    between atoms: C16_20  and  N5_21 
ROOT
HETATM    1  C6  UNL     1      22.937   2.873  50.841  1.00  0.00     0.055 C 
HETATM    2  C7  UNL     1      22.871   2.780  49.347  1.00  0.00     0.072 C 
ENDROOT
BRANCH   1   3
HETATM    3  C5  UNL     1      23.216   1.885  51.662  1.00  0.00     0.042 C 
HETATM    4  C4  UNL     1      24.422   1.260  52.125  1.00  0.00    -0.003 A 
HETATM    5  C3  UNL     1      24.595   0.157  53.047  1.00  0.00     0.017 A 
HETATM    6  C15 UNL     1      25.601   1.658  51.725  1.00  0.00     0.131 A 
HETATM    7  C2  UNL     1      23.706  -0.543  53.688  1.00  0.00    -0.015 C 
HETATM    8  C16 UNL     1      26.059  -0.026  53.122  1.00  0.00     0.131 A 
HETATM    9  C1  UNL     1      22.246  -0.516  53.749  1.00  0.00     0.037 C 
HETATM   10  N4  UNL     1      26.587   0.855  52.349  1.00  0.00    -0.242 NA
BRANCH   8  11
HETATM   11  N5  UNL     1      26.759  -1.010  53.914  1.00  0.00    -0.383 N 
HETATM   12  H18 UNL     1      26.995  -0.510  54.816  1.00  0.00     0.157 HD
HETATM   13  H19 UNL     1      26.934  -1.978  53.558  1.00  0.00     0.157 HD
ENDBRANCH   8  11
ENDBRANCH   1   3
BRANCH   1  14
HETATM   14  N1  UNL     1      22.661   4.192  51.352  1.00  0.00    -0.138 NA
BRANCH  14  15
HETATM   15  N2  UNL     1      23.549   4.758  52.037  1.00  0.00    -0.073 NA
BRANCH  15  16
HETATM   16  N3  UNL     1      24.294   5.862  51.660  1.00  0.00    -0.291 N 
HETATM   17  H9  UNL     1      24.801   6.296  52.464  1.00  0.00     0.184 HD
BRANCH  16  18
HETATM   18  C8  UNL     1      24.367   6.367  50.292  1.00  0.00     0.181 C 
BRANCH  18  19
HETATM   19  C9  UNL     1      25.634   5.926  49.654  1.00  0.00    -0.039 A 
HETATM   20  C10 UNL     1      26.477   6.871  49.092  1.00  0.00     0.009 A 
HETATM   21  C11 UNL     1      27.687   6.592  48.467  1.00  0.00     0.001 A 
HETATM   22  C12 UNL     1      28.073   5.250  48.408  1.00  0.00     0.000 A 
HETATM   23  C13 UNL     1      27.256   4.284  48.957  1.00  0.00     0.001 A 
HETATM   24  C14 UNL     1      26.061   4.603  49.569  1.00  0.00     0.009 A 
ENDBRANCH  18  19
ENDBRANCH  16  18
ENDBRANCH  15  16
ENDBRANCH  14  15
ENDBRANCH   1  14
TORSDOF 7
ENDMDL
MODEL 9
REMARK VINA RESULT:      -6.5      2.570      5.178
REMARK  7 active torsions:
REMARK  status: ('A' for Active; 'I' for Inactive)
REMARK    1  A    between atoms: C5_5  and  C6_6 
REMARK    2  A    between atoms: C6_6  and  N1_8 
REMARK    3  A    between atoms: N1_8  and  N2_9 
REMARK    4  A    between atoms: N2_9  and  N3_10 
REMARK    5  A    between atoms: N3_10  and  C8_11 
REMARK    6  A    between atoms: C8_11  and  C9_12 
REMARK    7  A    between atoms: C16_20  and  N5_21 
ROOT
HETATM    1  C6  UNL     1      25.938   4.071  49.463  1.00  0.00     0.055 C 
HETATM    2  C7  UNL     1      26.446   5.395  48.981  1.00  0.00     0.072 C 
ENDROOT
BRANCH   1   3
HETATM    3  C5  UNL     1      24.681   3.684  49.469  1.00  0.00     0.042 C 
HETATM    4  C4  UNL     1      23.540   3.953  50.297  1.00  0.00    -0.003 A 
HETATM    5  C3  UNL     1      22.186   3.451  50.193  1.00  0.00     0.017 A 
HETATM    6  C15 UNL     1      23.612   4.754  51.328  1.00  0.00     0.131 A 
HETATM    7  C2  UNL     1      21.661   2.635  49.328  1.00  0.00    -0.015 C 
HETATM    8  C16 UNL     1      21.478   4.085  51.325  1.00  0.00     0.131 A 
HETATM    9  C1  UNL     1      22.181   1.922  48.163  1.00  0.00     0.037 C 
HETATM   10  N4  UNL     1      22.336   4.818  51.940  1.00  0.00    -0.242 NA
BRANCH   8  11
HETATM   11  N5  UNL     1      20.087   3.910  51.670  1.00  0.00    -0.383 N 
HETATM   12  H18 UNL     1      19.614   4.796  51.339  1.00  0.00     0.157 HD
HETATM   13  H19 UNL     1      19.744   3.044  52.147  1.00  0.00     0.157 HD
ENDBRANCH   8  11
ENDBRANCH   1   3
BRANCH   1  14
HETATM   14  N1  UNL     1      26.975   3.195  49.949  1.00  0.00    -0.138 NA
BRANCH  14  15
HETATM   15  N2  UNL     1      26.899   2.792  51.136  1.00  0.00    -0.073 NA
BRANCH  15  16
HETATM   16  N3  UNL     1      26.576   1.509  51.546  1.00  0.00    -0.291 N 
HETATM   17  H9  UNL     1      26.445   0.854  50.742  1.00  0.00     0.184 HD
BRANCH  16  18
HETATM   18  C8  UNL     1      26.432   1.112  52.944  1.00  0.00     0.181 C 
BRANCH  18  19
HETATM   19  C9  UNL     1      25.060   0.596  53.187  1.00  0.00    -0.039 A 
HETATM   20  C10 UNL     1      23.988   1.187  52.539  1.00  0.00     0.009 A 
HETATM   21  C11 UNL     1      22.659   0.803  52.677  1.00  0.00     0.001 A 
HETATM   22  C12 UNL     1      22.397  -0.265  53.540  1.00  0.00     0.000 A 
HETATM   23  C13 UNL     1      23.443  -0.876  54.201  1.00  0.00     0.001 A 
HETATM   24  C14 UNL     1      24.749  -0.463  54.036  1.00  0.00     0.009 A 
ENDBRANCH  18  19
ENDBRANCH  16  18
ENDBRANCH  15  16
ENDBRANCH  14  15
ENDBRANCH   1  14
TORSDOF 7
ENDMDL
