MODEL 1
REMARK VINA RESULT:      -7.5      0.000      0.000
REMARK  2 active torsions:
REMARK  status: ('A' for Active; 'I' for Inactive)
REMARK    1  A    between atoms: C5_5  and  C6_6 
REMARK       I    between atoms: C6_6  and  N1_7 
REMARK    2  A    between atoms: C7_9  and  C8_10 
ROOT
HETATM    1  C1  UNL     1      22.759  -0.747  53.046  1.00  0.00     0.042 C 
HETATM    2  C2  UNL     1      24.117  -0.343  53.466  1.00  0.00    -0.067 A 
HETATM    3  C3  UNL     1      25.132  -0.125  54.377  1.00  0.00     0.079 A 
HETATM    4  C4  UNL     1      26.284   0.339  53.782  1.00  0.00     0.078 A 
HETATM    5  C5  UNL     1      27.348   0.793  53.022  1.00  0.00     0.026 A 
HETATM    6  C7  UNL     1      26.281   0.563  52.138  1.00  0.00     0.089 A 
HETATM    7  C8  UNL     1      25.147   0.105  52.722  1.00  0.00     0.069 A 
HETATM    8  N2  UNL     1      24.432   0.872  51.667  1.00  0.00    -0.381 N 
HETATM    9  C9  UNL     1      24.125   2.283  51.486  1.00  0.00     0.254 C 
HETATM   10  N3  UNL     1      24.842   2.871  50.393  1.00  0.00    -0.272 NA
HETATM   11  C10 UNL     1      24.635   4.063  50.052  1.00  0.00     0.108 C 
HETATM   12  C11 UNL     1      23.588   4.677  50.937  1.00  0.00     0.195 C 
HETATM   13  N4  UNL     1      23.938   4.400  52.332  1.00  0.00    -0.285 NA
HETATM   14  C12 UNL     1      24.222   3.188  52.665  1.00  0.00     0.074 C 
HETATM   15  C13 UNL     1      24.609   2.367  53.766  1.00  0.00     0.047 C 
HETATM   16  C14 UNL     1      25.937   2.160  53.878  1.00  0.00     0.086 C 
HETATM   17  N5  UNL     1      26.715   1.342  54.862  1.00  0.00    -0.384 N 
HETATM   18  H8  UNL     1      24.045   0.298  50.853  1.00  0.00     0.156 HD
HETATM   19  H15 UNL     1      26.964   2.075  55.545  1.00  0.00     0.160 HD
ENDROOT
BRANCH   5  20
HETATM   20  C6  UNL     1      28.718   1.212  53.159  1.00  0.00     0.244 C 
HETATM   21  N1  UNL     1      29.332  -0.024  53.547  1.00  0.00    -0.366 N 
HETATM   22  H5  UNL     1      29.576  -0.706  52.774  1.00  0.00     0.159 HD
HETATM   23  H6  UNL     1      29.532  -0.240  54.553  1.00  0.00     0.159 HD
HETATM   24  O1  UNL     1      28.752   2.440  52.883  1.00  0.00    -0.268 OA
ENDBRANCH   5  20
TORSDOF 2
ENDMDL
MODEL 2
REMARK VINA RESULT:      -7.0      3.614      4.823
REMARK  2 active torsions:
REMARK  status: ('A' for Active; 'I' for Inactive)
REMARK    1  A    between atoms: C5_5  and  C6_6 
REMARK       I    between atoms: C6_6  and  N1_7 
REMARK    2  A    between atoms: C7_9  and  C8_10 
ROOT
HETATM    1  C1  UNL     1      18.647   0.758  50.059  1.00  0.00     0.042 C 
HETATM    2  C2  UNL     1      19.261   0.316  51.328  1.00  0.00    -0.067 A 
HETATM    3  C3  UNL     1      19.256  -0.047  52.662  1.00  0.00     0.079 A 
HETATM    4  C4  UNL     1      20.511  -0.381  53.121  1.00  0.00     0.078 A 
HETATM    5  C5  UNL     1      21.831  -0.681  53.410  1.00  0.00     0.026 A 
HETATM    6  C7  UNL     1      21.783  -0.296  52.059  1.00  0.00     0.089 A 
HETATM    7  C8  UNL     1      20.548   0.031  51.605  1.00  0.00     0.069 A 
HETATM    8  N2  UNL     1      21.256   1.006  50.733  1.00  0.00    -0.381 N 
HETATM    9  C9  UNL     1      21.846   2.316  50.964  1.00  0.00     0.254 C 
HETATM   10  N3  UNL     1      23.276   2.307  50.862  1.00  0.00    -0.272 NA
HETATM   11  C10 UNL     1      23.936   3.372  50.958  1.00  0.00     0.108 C 
HETATM   12  C11 UNL     1      23.011   4.534  51.179  1.00  0.00     0.195 C 
HETATM   13  N4  UNL     1      22.081   4.190  52.256  1.00  0.00    -0.285 NA
HETATM   14  C12 UNL     1      21.458   3.063  52.193  1.00  0.00     0.074 C 
HETATM   15  C13 UNL     1      20.516   2.239  52.879  1.00  0.00     0.047 C 
HETATM   16  C14 UNL     1      21.063   1.302  53.680  1.00  0.00     0.086 C 
HETATM   17  N5  UNL     1      20.418   0.244  54.521  1.00  0.00    -0.384 N 
HETATM   18  H8  UNL     1      21.373   0.720  49.710  1.00  0.00     0.156 HD
HETATM   19  H15 UNL     1      20.391   0.732  55.430  1.00  0.00     0.160 HD
ENDROOT
BRANCH   5  20
HETATM   20  C6  UNL     1      22.660  -1.135  54.494  1.00  0.00     0.244 C 
HETATM   21  N1  UNL     1      23.902  -0.505  54.156  1.00  0.00    -0.366 N 
HETATM   22  H5  UNL     1      24.021   0.510  54.436  1.00  0.00     0.159 HD
HETATM   23  H6  UNL     1      24.659  -1.028  53.653  1.00  0.00     0.159 HD
HETATM   24  O1  UNL     1      21.936  -1.860  55.227  1.00  0.00    -0.268 OA
ENDBRANCH   5  20
TORSDOF 2
ENDMDL
MODEL 3
REMARK VINA RESULT:      -7.0      2.895      5.829
REMARK  2 active torsions:
REMARK  status: ('A' for Active; 'I' for Inactive)
REMARK    1  A    between atoms: C5_5  and  C6_6 
REMARK       I    between atoms: C6_6  and  N1_7 
REMARK    2  A    between atoms: C7_9  and  C8_10 
ROOT
HETATM    1  C1  UNL     1      22.222   1.759  48.454  1.00  0.00     0.042 C 
HETATM    2  C2  UNL     1      22.632   3.162  48.668  1.00  0.00    -0.067 A 
HETATM    3  C3  UNL     1      23.037   4.422  48.272  1.00  0.00     0.079 A 
HETATM    4  C4  UNL     1      23.216   5.277  49.336  1.00  0.00     0.078 A 
HETATM    5  C5  UNL     1      23.344   5.993  50.513  1.00  0.00     0.026 A 
HETATM    6  C7  UNL     1      22.939   4.694  50.864  1.00  0.00     0.089 A 
HETATM    7  C8  UNL     1      22.761   3.852  49.818  1.00  0.00     0.069 A 
HETATM    8  N2  UNL     1      23.229   2.787  50.745  1.00  0.00    -0.381 N 
HETATM    9  C9  UNL     1      24.540   2.384  51.232  1.00  0.00     0.254 C 
HETATM   10  N3  UNL     1      24.721   2.655  52.628  1.00  0.00    -0.272 NA
HETATM   11  C10 UNL     1      25.769   2.298  53.223  1.00  0.00     0.108 C 
HETATM   12  C11 UNL     1      26.694   1.603  52.266  1.00  0.00     0.195 C 
HETATM   13  N4  UNL     1      26.821   2.425  51.061  1.00  0.00    -0.285 NA
HETATM   14  C12 UNL     1      25.746   2.852  50.493  1.00  0.00     0.074 C 
HETATM   15  C13 UNL     1      25.265   3.627  49.396  1.00  0.00     0.047 C 
HETATM   16  C14 UNL     1      25.004   4.918  49.687  1.00  0.00     0.086 C 
HETATM   17  N5  UNL     1      24.462   6.019  48.829  1.00  0.00    -0.384 N 
HETATM   18  H8  UNL     1      22.469   2.162  51.161  1.00  0.00     0.156 HD
HETATM   19  H15 UNL     1      25.345   6.463  48.531  1.00  0.00     0.160 HD
ENDROOT
BRANCH   5  20
HETATM   20  C6  UNL     1      23.683   7.308  50.988  1.00  0.00     0.244 C 
HETATM   21  N1  UNL     1      24.414   6.978  52.176  1.00  0.00    -0.366 N 
HETATM   22  H5  UNL     1      25.433   6.714  52.058  1.00  0.00     0.159 HD
HETATM   23  H6  UNL     1      23.957   6.999  53.120  1.00  0.00     0.159 HD
HETATM   24  O1  UNL     1      23.196   8.128  50.165  1.00  0.00    -0.268 OA
ENDBRANCH   5  20
TORSDOF 2
ENDMDL
MODEL 4
REMARK VINA RESULT:      -6.9      2.365      2.945
REMARK  2 active torsions:
REMARK  status: ('A' for Active; 'I' for Inactive)
REMARK    1  A    between atoms: C5_5  and  C6_6 
REMARK       I    between atoms: C6_6  and  N1_7 
REMARK    2  A    between atoms: C7_9  and  C8_10 
ROOT
HETATM    1  C1  UNL     1      21.024   0.561  52.171  1.00  0.00     0.042 C 
HETATM    2  C2  UNL     1      22.417   1.023  52.346  1.00  0.00    -0.067 A 
HETATM    3  C3  UNL     1      23.578   1.255  53.058  1.00  0.00     0.079 A 
HETATM    4  C4  UNL     1      24.569   1.813  52.282  1.00  0.00     0.078 A 
HETATM    5  C5  UNL     1      25.442   2.366  51.361  1.00  0.00     0.026 A 
HETATM    6  C7  UNL     1      24.235   2.117  50.685  1.00  0.00     0.089 A 
HETATM    7  C8  UNL     1      23.260   1.566  51.447  1.00  0.00     0.069 A 
HETATM    8  N2  UNL     1      22.318   2.341  50.596  1.00  0.00    -0.381 N 
HETATM    9  C9  UNL     1      21.914   3.738  50.561  1.00  0.00     0.254 C 
HETATM   10  N3  UNL     1      22.377   4.421  49.388  1.00  0.00    -0.272 NA
HETATM   11  C10 UNL     1      22.050   5.614  49.165  1.00  0.00     0.108 C 
HETATM   12  C11 UNL     1      21.167   6.121  50.268  1.00  0.00     0.195 C 
HETATM   13  N4  UNL     1      21.794   5.797  51.552  1.00  0.00    -0.285 NA
HETATM   14  C12 UNL     1      22.195   4.589  51.752  1.00  0.00     0.074 C 
HETATM   15  C13 UNL     1      22.827   3.739  52.707  1.00  0.00     0.047 C 
HETATM   16  C14 UNL     1      24.160   3.605  52.551  1.00  0.00     0.086 C 
HETATM   17  N5  UNL     1      25.152   2.786  53.317  1.00  0.00    -0.384 N 
HETATM   18  H8  UNL     1      21.807   1.786  49.839  1.00  0.00     0.156 HD
HETATM   19  H15 UNL     1      25.494   3.498  53.982  1.00  0.00     0.160 HD
ENDROOT
BRANCH   5  20
HETATM   20  C6  UNL     1      26.790   2.856  51.258  1.00  0.00     0.244 C 
HETATM   21  N1  UNL     1      26.594   3.981  50.390  1.00  0.00    -0.366 N 
HETATM   22  H5  UNL     1      26.258   4.882  50.836  1.00  0.00     0.159 HD
HETATM   23  H6  UNL     1      26.778   3.913  49.361  1.00  0.00     0.159 HD
HETATM   24  O1  UNL     1      27.509   2.095  51.957  1.00  0.00    -0.268 OA
ENDBRANCH   5  20
TORSDOF 2
ENDMDL
MODEL 5
REMARK VINA RESULT:      -6.9      9.052     10.820
REMARK  2 active torsions:
REMARK  status: ('A' for Active; 'I' for Inactive)
REMARK    1  A    between atoms: C5_5  and  C6_6 
REMARK       I    between atoms: C6_6  and  N1_7 
REMARK    2  A    between atoms: C7_9  and  C8_10 
ROOT
HETATM    1  C1  UNL     1      33.427   1.904  48.552  1.00  0.00     0.042 C 
HETATM    2  C2  UNL     1      33.767   2.662  47.330  1.00  0.00    -0.067 A 
HETATM    3  C3  UNL     1      34.609   3.116  46.333  1.00  0.00     0.079 A 
HETATM    4  C4  UNL     1      33.962   3.925  45.425  1.00  0.00     0.078 A 
HETATM    5  C5  UNL     1      33.159   4.709  44.616  1.00  0.00     0.026 A 
HETATM    6  C7  UNL     1      32.347   4.227  45.657  1.00  0.00     0.089 A 
HETATM    7  C8  UNL     1      32.982   3.429  46.550  1.00  0.00     0.069 A 
HETATM    8  N2  UNL     1      32.053   4.011  47.555  1.00  0.00    -0.381 N 
HETATM    9  C9  UNL     1      32.011   5.280  48.266  1.00  0.00     0.254 C 
HETATM   10  N3  UNL     1      30.915   6.109  47.859  1.00  0.00    -0.272 NA
HETATM   11  C10 UNL     1      30.689   7.206  48.429  1.00  0.00     0.108 C 
HETATM   12  C11 UNL     1      31.701   7.441  49.513  1.00  0.00     0.195 C 
HETATM   13  N4  UNL     1      33.037   7.203  48.961  1.00  0.00    -0.285 NA
HETATM   14  C12 UNL     1      33.248   6.109  48.313  1.00  0.00     0.074 C 
HETATM   15  C13 UNL     1      34.244   5.377  47.601  1.00  0.00     0.047 C 
HETATM   16  C14 UNL     1      34.233   5.560  46.265  1.00  0.00     0.086 C 
HETATM   17  N5  UNL     1      35.081   4.951  45.192  1.00  0.00    -0.384 N 
HETATM   18  H8  UNL     1      31.229   3.395  47.843  1.00  0.00     0.156 HD
HETATM   19  H15 UNL     1      35.799   5.686  45.094  1.00  0.00     0.160 HD
ENDROOT
BRANCH   5  20
HETATM   20  C6  UNL     1      33.218   5.499  43.415  1.00  0.00     0.244 C 
HETATM   21  N1  UNL     1      32.356   6.586  43.774  1.00  0.00    -0.366 N 
HETATM   22  H5  UNL     1      32.778   7.365  44.355  1.00  0.00     0.159 HD
HETATM   23  H6  UNL     1      31.352   6.608  43.472  1.00  0.00     0.159 HD
HETATM   24  O1  UNL     1      33.980   4.892  42.618  1.00  0.00    -0.268 OA
ENDBRANCH   5  20
TORSDOF 2
ENDMDL
MODEL 6
REMARK VINA RESULT:      -6.8      2.088      3.652
REMARK  2 active torsions:
REMARK  status: ('A' for Active; 'I' for Inactive)
REMARK    1  A    between atoms: C5_5  and  C6_6 
REMARK       I    between atoms: C6_6  and  N1_7 
REMARK    2  A    between atoms: C7_9  and  C8_10 
ROOT
HETATM    1  C1  UNL     1      29.024   2.546  53.462  1.00  0.00     0.042 C 
HETATM    2  C2  UNL     1      28.122   1.388  53.630  1.00  0.00    -0.067 A 
HETATM    3  C3  UNL     1      27.765   0.056  53.538  1.00  0.00     0.079 A 
HETATM    4  C4  UNL     1      26.504  -0.186  54.036  1.00  0.00     0.078 A 
HETATM    5  C5  UNL     1      25.231  -0.248  54.576  1.00  0.00     0.026 A 
HETATM    6  C7  UNL     1      25.640   1.095  54.639  1.00  0.00     0.089 A 
HETATM    7  C8  UNL     1      26.881   1.335  54.150  1.00  0.00     0.069 A 
HETATM    8  N2  UNL     1      26.333   2.653  53.729  1.00  0.00    -0.381 N 
HETATM    9  C9  UNL     1      25.489   3.083  52.624  1.00  0.00     0.254 C 
HETATM   10  N3  UNL     1      24.188   3.508  53.052  1.00  0.00    -0.272 NA
HETATM   11  C10 UNL     1      23.363   3.982  52.231  1.00  0.00     0.108 C 
HETATM   12  C11 UNL     1      23.962   4.008  50.854  1.00  0.00     0.195 C 
HETATM   13  N4  UNL     1      24.546   2.694  50.576  1.00  0.00    -0.285 NA
HETATM   14  C12 UNL     1      25.336   2.176  51.453  1.00  0.00     0.074 C 
HETATM   15  C13 UNL     1      26.136   1.028  51.732  1.00  0.00     0.047 C 
HETATM   16  C14 UNL     1      25.529   0.083  52.479  1.00  0.00     0.086 C 
HETATM   17  N5  UNL     1      26.042  -1.223  53.001  1.00  0.00    -0.384 N 
HETATM   18  H8  UNL     1      26.596   3.487  54.343  1.00  0.00     0.156 HD
HETATM   19  H15 UNL     1      25.698  -1.857  52.263  1.00  0.00     0.160 HD
ENDROOT
BRANCH   5  20
HETATM   20  C6  UNL     1      24.190  -1.195  54.871  1.00  0.00     0.244 C 
HETATM   21  N1  UNL     1      24.731  -1.824  56.040  1.00  0.00    -0.366 N 
HETATM   22  H5  UNL     1      24.594  -1.324  56.964  1.00  0.00     0.159 HD
HETATM   23  H6  UNL     1      25.239  -2.739  55.980  1.00  0.00     0.159 HD
HETATM   24  O1  UNL     1      23.301  -1.044  53.992  1.00  0.00    -0.268 OA
ENDBRANCH   5  20
TORSDOF 2
ENDMDL
MODEL 7
REMARK VINA RESULT:      -6.6      2.522      4.024
REMARK  2 active torsions:
REMARK  status: ('A' for Active; 'I' for Inactive)
REMARK    1  A    between atoms: C5_5  and  C6_6 
REMARK       I    between atoms: C6_6  and  N1_7 
REMARK    2  A    between atoms: C7_9  and  C8_10 
ROOT
HETATM    1  C1  UNL     1      21.351   1.956  48.084  1.00  0.00     0.042 C 
HETATM    2  C2  UNL     1      21.864   1.637  49.433  1.00  0.00    -0.067 A 
HETATM    3  C3  UNL     1      21.825   1.036  50.676  1.00  0.00     0.079 A 
HETATM    4  C4  UNL     1      22.933   1.333  51.439  1.00  0.00     0.078 A 
HETATM    5  C5  UNL     1      24.104   1.731  52.060  1.00  0.00     0.026 A 
HETATM    6  C7  UNL     1      24.090   2.326  50.787  1.00  0.00     0.089 A 
HETATM    7  C8  UNL     1      23.001   2.033  50.034  1.00  0.00     0.069 A 
HETATM    8  N2  UNL     1      23.161   3.404  49.479  1.00  0.00    -0.381 N 
HETATM    9  C9  UNL     1      22.833   4.733  49.975  1.00  0.00     0.254 C 
HETATM   10  N3  UNL     1      23.995   5.516  50.277  1.00  0.00    -0.272 NA
HETATM   11  C10 UNL     1      23.889   6.713  50.643  1.00  0.00     0.108 C 
HETATM   12  C11 UNL     1      22.441   7.110  50.692  1.00  0.00     0.195 C 
HETATM   13  N4  UNL     1      21.703   6.086  51.433  1.00  0.00    -0.285 NA
HETATM   14  C12 UNL     1      21.869   4.850  51.105  1.00  0.00     0.074 C 
HETATM   15  C13 UNL     1      21.470   3.519  51.428  1.00  0.00     0.047 C 
HETATM   16  C14 UNL     1      22.299   2.869  52.269  1.00  0.00     0.086 C 
HETATM   17  N5  UNL     1      22.242   1.471  52.804  1.00  0.00    -0.384 N 
HETATM   18  H8  UNL     1      23.606   3.468  48.510  1.00  0.00     0.156 HD
HETATM   19  H15 UNL     1      21.773   1.646  53.707  1.00  0.00     0.160 HD
ENDROOT
BRANCH   5  20
HETATM   20  C6  UNL     1      24.828   1.560  53.291  1.00  0.00     0.244 C 
HETATM   21  N1  UNL     1      25.355   2.881  53.471  1.00  0.00    -0.366 N 
HETATM   22  H5  UNL     1      24.710   3.603  53.903  1.00  0.00     0.159 HD
HETATM   23  H6  UNL     1      26.335   3.120  53.188  1.00  0.00     0.159 HD
HETATM   24  O1  UNL     1      24.673   0.360  53.640  1.00  0.00    -0.268 OA
ENDBRANCH   5  20
TORSDOF 2
ENDMDL
MODEL 8
REMARK VINA RESULT:      -6.6      3.039      4.605
REMARK  2 active torsions:
REMARK  status: ('A' for Active; 'I' for Inactive)
REMARK    1  A    between atoms: C5_5  and  C6_6 
REMARK       I    between atoms: C6_6  and  N1_7 
REMARK    2  A    between atoms: C7_9  and  C8_10 
ROOT
HETATM    1  C1  UNL     1      23.255  -0.109  53.420  1.00  0.00     0.042 C 
HETATM    2  C2  UNL     1      23.730   1.108  52.730  1.00  0.00    -0.067 A 
HETATM    3  C3  UNL     1      24.435   2.291  52.622  1.00  0.00     0.079 A 
HETATM    4  C4  UNL     1      24.291   2.880  51.385  1.00  0.00     0.078 A 
HETATM    5  C5  UNL     1      24.037   3.325  50.100  1.00  0.00     0.026 A 
HETATM    6  C7  UNL     1      23.332   2.120  50.264  1.00  0.00     0.089 A 
HETATM    7  C8  UNL     1      23.475   1.539  51.480  1.00  0.00     0.069 A 
HETATM    8  N2  UNL     1      22.076   1.071  51.290  1.00  0.00    -0.381 N 
HETATM    9  C9  UNL     1      20.776   1.713  51.417  1.00  0.00     0.254 C 
HETATM   10  N3  UNL     1      20.112   1.876  50.157  1.00  0.00    -0.272 NA
HETATM   11  C10 UNL     1      18.947   2.343  50.097  1.00  0.00     0.108 C 
HETATM   12  C11 UNL     1      18.449   2.662  51.478  1.00  0.00     0.195 C 
HETATM   13  N4  UNL     1      19.477   3.436  52.176  1.00  0.00    -0.285 NA
HETATM   14  C12 UNL     1      20.687   2.993  52.174  1.00  0.00     0.074 C 
HETATM   15  C13 UNL     1      22.008   3.276  52.633  1.00  0.00     0.047 C 
HETATM   16  C14 UNL     1      22.791   3.917  51.741  1.00  0.00     0.086 C 
HETATM   17  N5  UNL     1      24.222   4.347  51.834  1.00  0.00    -0.384 N 
HETATM   18  H8  UNL     1      21.960   0.049  51.001  1.00  0.00     0.156 HD
HETATM   19  H15 UNL     1      24.094   5.326  52.137  1.00  0.00     0.160 HD
ENDROOT
BRANCH   5  20
HETATM   20  C6  UNL     1      24.371   4.402  49.207  1.00  0.00     0.244 C 
HETATM   21  N1  UNL     1      23.113   4.593  48.545  1.00  0.00    -0.366 N 
HETATM   22  H5  UNL     1      22.388   5.179  49.046  1.00  0.00     0.159 HD
HETATM   23  H6  UNL     1      22.923   4.170  47.605  1.00  0.00     0.159 HD
HETATM   24  O1  UNL     1      25.582   4.680  49.408  1.00  0.00    -0.268 OA
ENDBRANCH   5  20
TORSDOF 2
ENDMDL
MODEL 9
REMARK VINA RESULT:      -6.5      7.406      9.947
REMARK  2 active torsions:
REMARK  status: ('A' for Active; 'I' for Inactive)
REMARK    1  A    between atoms: C5_5  and  C6_6 
REMARK       I    between atoms: C6_6  and  N1_7 
REMARK    2  A    between atoms: C7_9  and  C8_10 
ROOT
HETATM    1  C1  UNL     1      27.424   5.217  48.565  1.00  0.00     0.042 C 
HETATM    2  C2  UNL     1      27.237   6.665  48.339  1.00  0.00    -0.067 A 
HETATM    3  C3  UNL     1      26.650   7.777  47.766  1.00  0.00     0.079 A 
HETATM    4  C4  UNL     1      27.194   8.956  48.225  1.00  0.00     0.078 A 
HETATM    5  C5  UNL     1      27.850  10.033  48.794  1.00  0.00     0.026 A 
HETATM    6  C7  UNL     1      28.419   8.871  49.341  1.00  0.00     0.089 A 
HETATM    7  C8  UNL     1      27.884   7.710  48.890  1.00  0.00     0.069 A 
HETATM    8  N2  UNL     1      29.252   7.150  49.056  1.00  0.00    -0.381 N 
HETATM    9  C9  UNL     1      30.475   7.239  48.271  1.00  0.00     0.254 C 
HETATM   10  N3  UNL     1      31.502   7.994  48.927  1.00  0.00    -0.272 NA
HETATM   11  C10 UNL     1      32.647   8.102  48.420  1.00  0.00     0.108 C 
HETATM   12  C11 UNL     1      32.706   7.353  47.119  1.00  0.00     0.195 C 
HETATM   13  N4  UNL     1      31.546   7.732  46.311  1.00  0.00    -0.285 NA
HETATM   14  C12 UNL     1      30.378   7.691  46.855  1.00  0.00     0.074 C 
HETATM   15  C13 UNL     1      28.993   7.926  46.606  1.00  0.00     0.047 C 
HETATM   16  C14 UNL     1      28.551   9.146  46.973  1.00  0.00     0.086 C 
HETATM   17  N5  UNL     1      27.181   9.745  46.908  1.00  0.00    -0.384 N 
HETATM   18  H8  UNL     1      29.409   6.547  49.923  1.00  0.00     0.156 HD
HETATM   19  H15 UNL     1      27.250  10.250  46.010  1.00  0.00     0.160 HD
ENDROOT
BRANCH   5  20
HETATM   20  C6  UNL     1      27.854  11.472  48.777  1.00  0.00     0.244 C 
HETATM   21  N1  UNL     1      29.254  11.732  48.944  1.00  0.00    -0.366 N 
HETATM   22  H5  UNL     1      29.861  11.680  48.078  1.00  0.00     0.159 HD
HETATM   23  H6  UNL     1      29.656  11.964  49.884  1.00  0.00     0.159 HD
HETATM   24  O1  UNL     1      26.658  11.837  48.627  1.00  0.00    -0.268 OA
ENDBRANCH   5  20
TORSDOF 2
ENDMDL
