MODEL 1
REMARK VINA RESULT:      -7.8      0.000      0.000
REMARK  3 active torsions:
REMARK  status: ('A' for Active; 'I' for Inactive)
REMARK       I    between atoms: C1_2  and  N1_3 
REMARK    1  A    between atoms: C1_2  and  C8_14 
REMARK    2  A    between atoms: N1_3  and  S1_4 
REMARK    3  A    between atoms: S1_4  and  C2_7 
ROOT
HETATM    1  O1  UNL     1      26.453   1.869  51.201  1.00  0.00    -0.271 OA
HETATM    2  C1  UNL     1      26.189   2.340  52.344  1.00  0.00     0.245 C 
HETATM    3  N1  UNL     1      25.240   3.362  52.393  1.00  0.00    -0.249 N 
HETATM    4  H1  UNL     1      24.953   3.816  53.290  1.00  0.00     0.182 HD
ENDROOT
BRANCH   3   5
HETATM    5  S1  UNL     1      24.585   3.808  50.849  1.00  0.00     0.265 S 
HETATM    6  O2  UNL     1      24.198   2.581  50.045  1.00  0.00    -0.200 OA
HETATM    7  O3  UNL     1      23.295   4.543  51.133  1.00  0.00    -0.200 OA
BRANCH   5   8
HETATM    8  C2  UNL     1      25.692   4.757  49.915  1.00  0.00     0.080 A 
HETATM    9  C3  UNL     1      25.489   6.115  49.766  1.00  0.00     0.027 A 
HETATM   10  C4  UNL     1      26.392   6.852  49.011  1.00  0.00     0.025 A 
HETATM   11  C5  UNL     1      27.472   6.234  48.424  1.00  0.00     0.034 A 
HETATM   12 CL1  UNL     1      28.594   7.200  47.476  1.00  0.00    -0.084 Cl
HETATM   13  C6  UNL     1      27.702   4.888  48.553  1.00  0.00     0.025 A 
HETATM   14  C7  UNL     1      26.795   4.170  49.305  1.00  0.00     0.027 A 
ENDBRANCH   5   8
ENDBRANCH   3   5
BRANCH   2  15
HETATM   15  C8  UNL     1      26.860   1.823  53.554  1.00  0.00     0.164 C 
HETATM   16  C9  UNL     1      28.324   2.011  53.528  1.00  0.00    -0.008 C 
HETATM   17  C10 UNL     1      29.177   1.222  54.174  1.00  0.00    -0.008 C 
HETATM   18  C11 UNL     1      28.633   0.070  54.978  1.00  0.00     0.177 C 
HETATM   19  N2  UNL     1      27.399  -0.408  54.387  1.00  0.00    -0.277 NA
HETATM   20  C12 UNL     1      26.605   0.362  53.753  1.00  0.00     0.115 C 
HETATM   21 CL2  UNL     1      25.193  -0.502  53.152  1.00  0.00    -0.067 Cl
ENDBRANCH   2  15
TORSDOF 3
ENDMDL
MODEL 2
REMARK VINA RESULT:      -7.6      4.146      6.036
REMARK  3 active torsions:
REMARK  status: ('A' for Active; 'I' for Inactive)
REMARK       I    between atoms: C1_2  and  N1_3 
REMARK    1  A    between atoms: C1_2  and  C8_14 
REMARK    2  A    between atoms: N1_3  and  S1_4 
REMARK    3  A    between atoms: S1_4  and  C2_7 
ROOT
HETATM    1  O1  UNL     1      24.916   0.862  52.013  1.00  0.00    -0.271 OA
HETATM    2  C1  UNL     1      25.071   1.664  52.978  1.00  0.00     0.245 C 
HETATM    3  N1  UNL     1      24.080   2.632  53.150  1.00  0.00    -0.249 N 
HETATM    4  H1  UNL     1      24.118   3.340  53.919  1.00  0.00     0.182 HD
ENDROOT
BRANCH   3   5
HETATM    5  S1  UNL     1      22.795   2.557  51.987  1.00  0.00     0.265 S 
HETATM    6  O2  UNL     1      22.124   3.908  51.825  1.00  0.00    -0.200 OA
HETATM    7  O3  UNL     1      23.446   2.255  50.656  1.00  0.00    -0.200 OA
BRANCH   5   8
HETATM    8  C2  UNL     1      21.592   1.387  52.412  1.00  0.00     0.080 A 
HETATM    9  C3  UNL     1      20.541   1.126  51.553  1.00  0.00     0.027 A 
HETATM   10  C4  UNL     1      19.590   0.183  51.920  1.00  0.00     0.025 A 
HETATM   11  C5  UNL     1      19.697  -0.480  53.121  1.00  0.00     0.034 A 
HETATM   12 CL1  UNL     1      18.475  -1.667  53.551  1.00  0.00    -0.084 Cl
HETATM   13  C6  UNL     1      20.729  -0.244  53.995  1.00  0.00     0.025 A 
HETATM   14  C7  UNL     1      21.664   0.696  53.616  1.00  0.00     0.027 A 
ENDBRANCH   5   8
ENDBRANCH   3   5
BRANCH   2  15
HETATM   15  C8  UNL     1      26.246   1.566  53.868  1.00  0.00     0.164 C 
HETATM   16  C9  UNL     1      27.524   1.795  53.165  1.00  0.00    -0.008 C 
HETATM   17  C10 UNL     1      28.682   1.274  53.558  1.00  0.00    -0.008 C 
HETATM   18  C11 UNL     1      28.704   0.401  54.785  1.00  0.00     0.177 C 
HETATM   19  N2  UNL     1      27.435  -0.283  54.931  1.00  0.00    -0.277 NA
HETATM   20  C12 UNL     1      26.337   0.226  54.527  1.00  0.00     0.115 C 
HETATM   21 CL2  UNL     1      24.968  -0.835  54.841  1.00  0.00    -0.067 Cl
ENDBRANCH   2  15
TORSDOF 3
ENDMDL
MODEL 3
REMARK VINA RESULT:      -7.4      2.431      6.670
REMARK  3 active torsions:
REMARK  status: ('A' for Active; 'I' for Inactive)
REMARK       I    between atoms: C1_2  and  N1_3 
REMARK    1  A    between atoms: C1_2  and  C8_14 
REMARK    2  A    between atoms: N1_3  and  S1_4 
REMARK    3  A    between atoms: S1_4  and  C2_7 
ROOT
HETATM    1  O1  UNL     1      24.115   4.198  50.669  1.00  0.00    -0.271 OA
HETATM    2  C1  UNL     1      25.311   4.397  50.310  1.00  0.00     0.245 C 
HETATM    3  N1  UNL     1      26.277   3.558  50.869  1.00  0.00    -0.249 N 
HETATM    4  H1  UNL     1      27.292   3.642  50.636  1.00  0.00     0.182 HD
ENDROOT
BRANCH   3   5
HETATM    5  S1  UNL     1      25.648   2.376  51.972  1.00  0.00     0.265 S 
HETATM    6  O2  UNL     1      24.974   3.039  53.158  1.00  0.00    -0.200 OA
HETATM    7  O3  UNL     1      24.554   1.643  51.229  1.00  0.00    -0.200 OA
BRANCH   5   8
HETATM    8  C2  UNL     1      26.876   1.305  52.559  1.00  0.00     0.080 A 
HETATM    9  C3  UNL     1      28.057   1.813  53.063  1.00  0.00     0.027 A 
HETATM   10  C4  UNL     1      29.026   0.931  53.526  1.00  0.00     0.025 A 
HETATM   11  C5  UNL     1      28.806  -0.426  53.481  1.00  0.00     0.034 A 
HETATM   12 CL1  UNL     1      30.054  -1.511  54.076  1.00  0.00    -0.084 Cl
HETATM   13  C6  UNL     1      27.644  -0.962  52.986  1.00  0.00     0.025 A 
HETATM   14  C7  UNL     1      26.693  -0.072  52.530  1.00  0.00     0.027 A 
ENDBRANCH   5   8
ENDBRANCH   3   5
BRANCH   2  15
HETATM   15  C8  UNL     1      25.650   5.466  49.349  1.00  0.00     0.164 C 
HETATM   16  C9  UNL     1      27.002   5.318  48.774  1.00  0.00    -0.008 C 
HETATM   17  C10 UNL     1      27.730   6.341  48.336  1.00  0.00    -0.008 C 
HETATM   18  C11 UNL     1      27.155   7.730  48.426  1.00  0.00     0.177 C 
HETATM   19  N2  UNL     1      26.254   7.823  49.558  1.00  0.00    -0.277 NA
HETATM   20  C12 UNL     1      25.581   6.823  49.976  1.00  0.00     0.115 C 
HETATM   21 CL2  UNL     1      24.579   7.239  51.361  1.00  0.00    -0.067 Cl
ENDBRANCH   2  15
TORSDOF 3
ENDMDL
MODEL 4
REMARK VINA RESULT:      -7.3      3.769      5.411
REMARK  3 active torsions:
REMARK  status: ('A' for Active; 'I' for Inactive)
REMARK       I    between atoms: C1_2  and  N1_3 
REMARK    1  A    between atoms: C1_2  and  C8_14 
REMARK    2  A    between atoms: N1_3  and  S1_4 
REMARK    3  A    between atoms: S1_4  and  C2_7 
ROOT
HETATM    1  O1  UNL     1      24.803   1.318  53.169  1.00  0.00    -0.271 OA
HETATM    2  C1  UNL     1      25.599   1.373  52.188  1.00  0.00     0.245 C 
HETATM    3  N1  UNL     1      25.312   2.322  51.205  1.00  0.00    -0.249 N 
HETATM    4  H1  UNL     1      25.909   2.445  50.356  1.00  0.00     0.182 HD
ENDROOT
BRANCH   3   5
HETATM    5  S1  UNL     1      23.891   3.268  51.516  1.00  0.00     0.265 S 
HETATM    6  O2  UNL     1      23.980   3.962  52.862  1.00  0.00    -0.200 OA
HETATM    7  O3  UNL     1      23.881   4.369  50.480  1.00  0.00    -0.200 OA
BRANCH   5   8
HETATM    8  C2  UNL     1      22.445   2.315  51.477  1.00  0.00     0.080 A 
HETATM    9  C3  UNL     1      22.276   1.348  50.505  1.00  0.00     0.027 A 
HETATM   10  C4  UNL     1      21.107   0.599  50.497  1.00  0.00     0.025 A 
HETATM   11  C5  UNL     1      20.135   0.820  51.445  1.00  0.00     0.034 A 
HETATM   12 CL1  UNL     1      18.668  -0.148  51.404  1.00  0.00    -0.084 Cl
HETATM   13  C6  UNL     1      20.272   1.772  52.424  1.00  0.00     0.025 A 
HETATM   14  C7  UNL     1      21.440   2.508  52.417  1.00  0.00     0.027 A 
ENDBRANCH   5   8
ENDBRANCH   3   5
BRANCH   2  15
HETATM   15  C8  UNL     1      26.766   0.472  52.103  1.00  0.00     0.164 C 
HETATM   16  C9  UNL     1      26.435  -0.934  52.408  1.00  0.00    -0.008 C 
HETATM   17  C10 UNL     1      27.310  -1.803  52.904  1.00  0.00    -0.008 C 
HETATM   18  C11 UNL     1      28.717  -1.341  53.175  1.00  0.00     0.177 C 
HETATM   19  N2  UNL     1      28.721   0.069  53.510  1.00  0.00    -0.277 NA
HETATM   20  C12 UNL     1      27.859   0.883  53.039  1.00  0.00     0.115 C 
HETATM   21 CL2  UNL     1      28.117   2.523  53.624  1.00  0.00    -0.067 Cl
ENDBRANCH   2  15
TORSDOF 3
ENDMDL
MODEL 5
REMARK VINA RESULT:      -7.3      2.927      3.734
REMARK  3 active torsions:
REMARK  status: ('A' for Active; 'I' for Inactive)
REMARK       I    between atoms: C1_2  and  N1_3 
REMARK    1  A    between atoms: C1_2  and  C8_14 
REMARK    2  A    between atoms: N1_3  and  S1_4 
REMARK    3  A    between atoms: S1_4  and  C2_7 
ROOT
HETATM    1  O1  UNL     1      22.312   1.134  50.599  1.00  0.00    -0.271 OA
HETATM    2  C1  UNL     1      22.451   1.225  51.852  1.00  0.00     0.245 C 
HETATM    3  N1  UNL     1      22.552   2.515  52.376  1.00  0.00    -0.249 N 
HETATM    4  H1  UNL     1      22.669   2.695  53.399  1.00  0.00     0.182 HD
ENDROOT
BRANCH   3   5
HETATM    5  S1  UNL     1      22.468   3.779  51.190  1.00  0.00     0.265 S 
HETATM    6  O2  UNL     1      21.461   3.446  50.107  1.00  0.00    -0.200 OA
HETATM    7  O3  UNL     1      21.923   4.995  51.905  1.00  0.00    -0.200 OA
BRANCH   5   8
HETATM    8  C2  UNL     1      24.002   4.086  50.447  1.00  0.00     0.080 A 
HETATM    9  C3  UNL     1      24.153   5.148  49.576  1.00  0.00     0.027 A 
HETATM   10  C4  UNL     1      25.394   5.370  48.994  1.00  0.00     0.025 A 
HETATM   11  C5  UNL     1      26.455   4.542  49.284  1.00  0.00     0.034 A 
HETATM   12 CL1  UNL     1      28.010   4.855  48.529  1.00  0.00    -0.084 Cl
HETATM   13  C6  UNL     1      26.338   3.480  50.145  1.00  0.00     0.025 A 
HETATM   14  C7  UNL     1      25.098   3.273  50.713  1.00  0.00     0.027 A 
ENDBRANCH   5   8
ENDBRANCH   3   5
BRANCH   2  15
HETATM   15  C8  UNL     1      22.501   0.019  52.703  1.00  0.00     0.164 C 
HETATM   16  C9  UNL     1      21.513   0.044  53.800  1.00  0.00    -0.008 C 
HETATM   17  C10 UNL     1      21.680  -0.597  54.953  1.00  0.00    -0.008 C 
HETATM   18  C11 UNL     1      22.941  -1.393  55.164  1.00  0.00     0.177 C 
HETATM   19  N2  UNL     1      24.033  -0.799  54.419  1.00  0.00    -0.277 NA
HETATM   20  C12 UNL     1      23.849  -0.170  53.325  1.00  0.00     0.115 C 
HETATM   21 CL2  UNL     1      25.359   0.436  52.653  1.00  0.00    -0.067 Cl
ENDBRANCH   2  15
TORSDOF 3
ENDMDL
MODEL 6
REMARK VINA RESULT:      -7.2      1.837      2.176
REMARK  3 active torsions:
REMARK  status: ('A' for Active; 'I' for Inactive)
REMARK       I    between atoms: C1_2  and  N1_3 
REMARK    1  A    between atoms: C1_2  and  C8_14 
REMARK    2  A    between atoms: N1_3  and  S1_4 
REMARK    3  A    between atoms: S1_4  and  C2_7 
ROOT
HETATM    1  O1  UNL     1      25.726   1.971  51.575  1.00  0.00    -0.271 OA
HETATM    2  C1  UNL     1      25.465   2.126  52.802  1.00  0.00     0.245 C 
HETATM    3  N1  UNL     1      24.199   2.625  53.112  1.00  0.00    -0.249 N 
HETATM    4  H1  UNL     1      23.888   2.788  54.096  1.00  0.00     0.182 HD
ENDROOT
BRANCH   3   5
HETATM    5  S1  UNL     1      23.197   2.947  51.731  1.00  0.00     0.265 S 
HETATM    6  O2  UNL     1      23.180   1.765  50.781  1.00  0.00    -0.200 OA
HETATM    7  O3  UNL     1      21.785   3.080  52.255  1.00  0.00    -0.200 OA
BRANCH   5   8
HETATM    8  C2  UNL     1      23.711   4.352  50.860  1.00  0.00     0.080 A 
HETATM    9  C3  UNL     1      24.055   4.256  49.526  1.00  0.00     0.027 A 
HETATM   10  C4  UNL     1      24.464   5.400  48.852  1.00  0.00     0.025 A 
HETATM   11  C5  UNL     1      24.525   6.607  49.508  1.00  0.00     0.034 A 
HETATM   12 CL1  UNL     1      25.047   8.033  48.622  1.00  0.00    -0.084 Cl
HETATM   13  C6  UNL     1      24.190   6.737  50.833  1.00  0.00     0.025 A 
HETATM   14  C7  UNL     1      23.786   5.591  51.487  1.00  0.00     0.027 A 
ENDBRANCH   5   8
ENDBRANCH   3   5
BRANCH   2  15
HETATM   15  C8  UNL     1      26.461   1.792  53.840  1.00  0.00     0.164 C 
HETATM   16  C9  UNL     1      27.845   2.106  53.436  1.00  0.00    -0.008 C 
HETATM   17  C10 UNL     1      28.911   1.463  53.904  1.00  0.00    -0.008 C 
HETATM   18  C11 UNL     1      28.707   0.352  54.900  1.00  0.00     0.177 C 
HETATM   19  N2  UNL     1      27.428  -0.290  54.673  1.00  0.00    -0.277 NA
HETATM   20  C12 UNL     1      26.424   0.340  54.203  1.00  0.00     0.115 C 
HETATM   21 CL2  UNL     1      25.014  -0.701  54.038  1.00  0.00    -0.067 Cl
ENDBRANCH   2  15
TORSDOF 3
ENDMDL
MODEL 7
REMARK VINA RESULT:      -7.1      5.113      7.339
REMARK  3 active torsions:
REMARK  status: ('A' for Active; 'I' for Inactive)
REMARK       I    between atoms: C1_2  and  N1_3 
REMARK    1  A    between atoms: C1_2  and  C8_14 
REMARK    2  A    between atoms: N1_3  and  S1_4 
REMARK    3  A    between atoms: S1_4  and  C2_7 
ROOT
HETATM    1  O1  UNL     1      22.879   0.564  51.411  1.00  0.00    -0.271 OA
HETATM    2  C1  UNL     1      23.241   1.142  52.476  1.00  0.00     0.245 C 
HETATM    3  N1  UNL     1      22.289   1.952  53.098  1.00  0.00    -0.249 N 
HETATM    4  H1  UNL     1      22.491   2.472  53.982  1.00  0.00     0.182 HD
ENDROOT
BRANCH   3   5
HETATM    5  S1  UNL     1      20.759   2.018  52.282  1.00  0.00     0.265 S 
HETATM    6  O2  UNL     1      19.981   3.258  52.679  1.00  0.00    -0.200 OA
HETATM    7  O3  UNL     1      21.071   2.177  50.811  1.00  0.00    -0.200 OA
BRANCH   5   8
HETATM    8  C2  UNL     1      19.784   0.624  52.601  1.00  0.00     0.080 A 
HETATM    9  C3  UNL     1      18.601   0.431  51.915  1.00  0.00     0.027 A 
HETATM   10  C4  UNL     1      17.838  -0.697  52.191  1.00  0.00     0.025 A 
HETATM   11  C5  UNL     1      18.259  -1.604  53.135  1.00  0.00     0.034 A 
HETATM   12 CL1  UNL     1      17.268  -3.019  53.458  1.00  0.00    -0.084 Cl
HETATM   13  C6  UNL     1      19.429  -1.442  53.834  1.00  0.00     0.025 A 
HETATM   14  C7  UNL     1      20.174  -0.317  53.548  1.00  0.00     0.027 A 
ENDBRANCH   5   8
ENDBRANCH   3   5
BRANCH   2  15
HETATM   15  C8  UNL     1      24.602   0.959  53.019  1.00  0.00     0.164 C 
HETATM   16  C9  UNL     1      25.634   0.859  51.968  1.00  0.00    -0.008 C 
HETATM   17  C10 UNL     1      26.778   0.199  52.122  1.00  0.00    -0.008 C 
HETATM   18  C11 UNL     1      27.046  -0.489  53.435  1.00  0.00     0.177 C 
HETATM   19  N2  UNL     1      25.797  -0.910  54.039  1.00  0.00    -0.277 NA
HETATM   20  C12 UNL     1      24.707  -0.274  53.860  1.00  0.00     0.115 C 
HETATM   21 CL2  UNL     1      23.363  -1.022  54.717  1.00  0.00    -0.067 Cl
ENDBRANCH   2  15
TORSDOF 3
ENDMDL
MODEL 8
REMARK VINA RESULT:      -7.0      4.555      6.850
REMARK  3 active torsions:
REMARK  status: ('A' for Active; 'I' for Inactive)
REMARK       I    between atoms: C1_2  and  N1_3 
REMARK    1  A    between atoms: C1_2  and  C8_14 
REMARK    2  A    between atoms: N1_3  and  S1_4 
REMARK    3  A    between atoms: S1_4  and  C2_7 
ROOT
HETATM    1  O1  UNL     1      21.880   2.890  52.086  1.00  0.00    -0.271 OA
HETATM    2  C1  UNL     1      21.758   1.747  52.612  1.00  0.00     0.245 C 
HETATM    3  N1  UNL     1      22.941   1.080  52.934  1.00  0.00    -0.249 N 
HETATM    4  H1  UNL     1      22.946   0.131  53.372  1.00  0.00     0.182 HD
ENDROOT
BRANCH   3   5
HETATM    5  S1  UNL     1      24.387   1.957  52.545  1.00  0.00     0.265 S 
HETATM    6  O2  UNL     1      24.382   2.405  51.096  1.00  0.00    -0.200 OA
HETATM    7  O3  UNL     1      24.349   3.223  53.371  1.00  0.00    -0.200 OA
BRANCH   5   8
HETATM    8  C2  UNL     1      25.818   1.026  52.834  1.00  0.00     0.080 A 
HETATM    9  C3  UNL     1      26.884   1.582  53.515  1.00  0.00     0.027 A 
HETATM   10  C4  UNL     1      28.020   0.812  53.732  1.00  0.00     0.025 A 
HETATM   11  C5  UNL     1      28.077  -0.484  53.274  1.00  0.00     0.034 A 
HETATM   12 CL1  UNL     1      29.530  -1.428  53.568  1.00  0.00    -0.084 Cl
HETATM   13  C6  UNL     1      27.036  -1.066  52.596  1.00  0.00     0.025 A 
HETATM   14  C7  UNL     1      25.916  -0.287  52.388  1.00  0.00     0.027 A 
ENDBRANCH   5   8
ENDBRANCH   3   5
BRANCH   2  15
HETATM   15  C8  UNL     1      20.426   1.163  52.866  1.00  0.00     0.164 C 
HETATM   16  C9  UNL     1      20.464   0.020  53.799  1.00  0.00    -0.008 C 
HETATM   17  C10 UNL     1      19.572  -0.967  53.789  1.00  0.00    -0.008 C 
HETATM   18  C11 UNL     1      18.459  -0.926  52.776  1.00  0.00     0.177 C 
HETATM   19  N2  UNL     1      18.903  -0.244  51.577  1.00  0.00    -0.277 NA
HETATM   20  C12 UNL     1      19.776   0.685  51.606  1.00  0.00     0.115 C 
HETATM   21 CL2  UNL     1      20.111   1.321  49.999  1.00  0.00    -0.067 Cl
ENDBRANCH   2  15
TORSDOF 3
ENDMDL
MODEL 9
REMARK VINA RESULT:      -6.9      2.759      3.452
REMARK  3 active torsions:
REMARK  status: ('A' for Active; 'I' for Inactive)
REMARK       I    between atoms: C1_2  and  N1_3 
REMARK    1  A    between atoms: C1_2  and  C8_14 
REMARK    2  A    between atoms: N1_3  and  S1_4 
REMARK    3  A    between atoms: S1_4  and  C2_7 
ROOT
HETATM    1  O1  UNL     1      22.635   3.563  51.303  1.00  0.00    -0.271 OA
HETATM    2  C1  UNL     1      23.556   2.735  51.044  1.00  0.00     0.245 C 
HETATM    3  N1  UNL     1      24.632   3.215  50.295  1.00  0.00    -0.249 N 
HETATM    4  H1  UNL     1      25.442   2.610  50.029  1.00  0.00     0.182 HD
ENDROOT
BRANCH   3   5
HETATM    5  S1  UNL     1      24.507   4.888  49.850  1.00  0.00     0.265 S 
HETATM    6  O2  UNL     1      23.360   5.112  48.883  1.00  0.00    -0.200 OA
HETATM    7  O3  UNL     1      24.138   5.635  51.112  1.00  0.00    -0.200 OA
BRANCH   5   8
HETATM    8  C2  UNL     1      25.964   5.488  49.132  1.00  0.00     0.080 A 
HETATM    9  C3  UNL     1      26.037   6.797  48.697  1.00  0.00     0.027 A 
HETATM   10  C4  UNL     1      27.218   7.251  48.125  1.00  0.00     0.025 A 
HETATM   11  C5  UNL     1      28.296   6.406  47.995  1.00  0.00     0.034 A 
HETATM   12 CL1  UNL     1      29.774   7.016  47.265  1.00  0.00    -0.084 Cl
HETATM   13  C6  UNL     1      28.255   5.100  48.417  1.00  0.00     0.025 A 
HETATM   14  C7  UNL     1      27.074   4.665  48.982  1.00  0.00     0.027 A 
ENDBRANCH   5   8
ENDBRANCH   3   5
BRANCH   2  15
HETATM   15  C8  UNL     1      23.480   1.338  51.516  1.00  0.00     0.164 C 
HETATM   16  C9  UNL     1      22.095   0.838  51.619  1.00  0.00    -0.008 C 
HETATM   17  C10 UNL     1      21.720  -0.117  52.466  1.00  0.00    -0.008 C 
HETATM   18  C11 UNL     1      22.755  -0.727  53.374  1.00  0.00     0.177 C 
HETATM   19  N2  UNL     1      23.785   0.246  53.678  1.00  0.00    -0.277 NA
HETATM   20  C12 UNL     1      24.114   1.167  52.860  1.00  0.00     0.115 C 
HETATM   21 CL2  UNL     1      25.390   2.194  53.507  1.00  0.00    -0.067 Cl
ENDBRANCH   2  15
TORSDOF 3
ENDMDL
