MODEL 1
REMARK VINA RESULT:      -8.5      0.000      0.000
REMARK  6 active torsions:
REMARK  status: ('A' for Active; 'I' for Inactive)
REMARK    1  A    between atoms: O1_2  and  C2_3 
REMARK    2  A    between atoms: C5_6  and  C6_7 
REMARK    3  A    between atoms: C6_7  and  N1_8 
REMARK    4  A    between atoms: C7_9  and  O2_10 
REMARK    5  A    between atoms: O2_10  and  C8_11 
REMARK    6  A    between atoms: C10_13  and  C11_14 
ROOT
HETATM    1  C8  UNL     1      25.140   3.497  50.945  1.00  0.00     0.173 A 
HETATM    2  C9  UNL     1      26.183   2.634  51.299  1.00  0.00     0.090 A 
HETATM    3  C10 UNL     1      26.287   1.936  52.496  1.00  0.00     0.072 A 
HETATM    4  N2  UNL     1      25.285   2.103  53.409  1.00  0.00    -0.241 NA
HETATM    5  C17 UNL     1      24.272   2.932  53.083  1.00  0.00     0.236 A 
HETATM    6  N3  UNL     1      24.229   3.576  51.916  1.00  0.00    -0.217 NA
ENDROOT
BRANCH   1   7
HETATM    7  O2  UNL     1      25.397   3.985  49.703  1.00  0.00    -0.291 OA
BRANCH   7   8
HETATM    8  C7  UNL     1      26.069   5.121  49.404  1.00  0.00     0.088 A 
HETATM    9  C5  UNL     1      25.781   6.452  49.574  1.00  0.00     0.004 A 
HETATM   10  C4  UNL     1      26.680   7.432  49.153  1.00  0.00     0.014 A 
HETATM   11  C3  UNL     1      27.889   7.148  48.554  1.00  0.00     0.037 A 
HETATM   12  C2  UNL     1      28.191   5.811  48.377  1.00  0.00     0.070 A 
HETATM   13  C18 UNL     1      27.297   4.823  48.794  1.00  0.00     0.074 A 
BRANCH   9  14
HETATM   14  C6  UNL     1      24.523   6.843  50.199  1.00  0.00     0.308 C 
BRANCH  14  15
HETATM   15  N1  UNL     1      24.525   6.902  51.638  1.00  0.00     0.082 N 
HETATM   16  H8  UNL     1      24.504   7.862  52.038  1.00  0.00     0.313 HD
HETATM   17  H9  UNL     1      25.294   6.316  52.057  1.00  0.00     0.313 HD
ENDBRANCH  14  15
ENDBRANCH   9  14
BRANCH  12  18
HETATM   18  O1  UNL     1      29.395   5.546  47.781  1.00  0.00    -0.356 OA
HETATM   19  C1  UNL     1      30.666   5.856  48.249  1.00  0.00     0.210 C 
ENDBRANCH  12  18
ENDBRANCH   7   8
ENDBRANCH   1   7
BRANCH   3  20
HETATM   20  C11 UNL     1      27.357   1.035  52.888  1.00  0.00    -0.005 A 
HETATM   21  C12 UNL     1      28.495   1.561  53.439  1.00  0.00     0.017 A 
HETATM   22  C13 UNL     1      29.555   0.746  53.828  1.00  0.00     0.045 A 
HETATM   23  C14 UNL     1      29.518  -0.603  53.683  1.00  0.00     0.138 A 
HETATM   24  F1  UNL     1      30.550  -1.399  54.063  1.00  0.00    -0.204 F 
HETATM   25  C15 UNL     1      28.379  -1.139  53.131  1.00  0.00     0.073 A 
HETATM   26 CL1  UNL     1      28.278  -2.870  52.922  1.00  0.00    -0.081 Cl
HETATM   27  C16 UNL     1      27.344  -0.325  52.752  1.00  0.00     0.040 A 
ENDBRANCH   3  20
TORSDOF 6
ENDMDL
MODEL 2
REMARK VINA RESULT:      -8.3      3.416      4.194
REMARK  6 active torsions:
REMARK  status: ('A' for Active; 'I' for Inactive)
REMARK    1  A    between atoms: O1_2  and  C2_3 
REMARK    2  A    between atoms: C5_6  and  C6_7 
REMARK    3  A    between atoms: C6_7  and  N1_8 
REMARK    4  A    between atoms: C7_9  and  O2_10 
REMARK    5  A    between atoms: O2_10  and  C8_11 
REMARK    6  A    between atoms: C10_13  and  C11_14 
ROOT
HETATM    1  C8  UNL     1      26.156   2.635  50.964  1.00  0.00     0.173 A 
HETATM    2  C9  UNL     1      25.017   1.953  51.407  1.00  0.00     0.090 A 
HETATM    3  C10 UNL     1      24.952   1.115  52.513  1.00  0.00     0.072 A 
HETATM    4  N2  UNL     1      26.099   0.937  53.233  1.00  0.00    -0.241 NA
HETATM    5  C17 UNL     1      27.206   1.586  52.819  1.00  0.00     0.236 A 
HETATM    6  N3  UNL     1      27.205   2.379  51.747  1.00  0.00    -0.217 NA
ENDROOT
BRANCH   1   7
HETATM    7  O2  UNL     1      25.818   3.349  49.858  1.00  0.00    -0.291 OA
BRANCH   7   8
HETATM    8  C7  UNL     1      26.168   4.628  49.584  1.00  0.00     0.088 A 
HETATM    9  C5  UNL     1      25.600   5.839  49.887  1.00  0.00     0.004 A 
HETATM   10  C4  UNL     1      26.191   7.027  49.458  1.00  0.00     0.014 A 
HETATM   11  C3  UNL     1      27.356   7.074  48.719  1.00  0.00     0.037 A 
HETATM   12  C2  UNL     1      27.938   5.860  48.408  1.00  0.00     0.070 A 
HETATM   13  C18 UNL     1      27.353   4.665  48.833  1.00  0.00     0.074 A 
BRANCH   9  14
HETATM   14  C6  UNL     1      24.367   5.883  50.664  1.00  0.00     0.308 C 
BRANCH  14  15
HETATM   15  N1  UNL     1      24.379   6.741  51.820  1.00  0.00     0.082 N 
HETATM   16  H8  UNL     1      25.307   6.853  52.275  1.00  0.00     0.313 HD
HETATM   17  H9  UNL     1      23.628   6.481  52.513  1.00  0.00     0.313 HD
ENDBRANCH  14  15
ENDBRANCH   9  14
BRANCH  12  18
HETATM   18  O1  UNL     1      29.093   5.923  47.676  1.00  0.00    -0.356 OA
HETATM   19  C1  UNL     1      29.827   7.054  47.335  1.00  0.00     0.210 C 
ENDBRANCH  12  18
ENDBRANCH   7   8
ENDBRANCH   1   7
BRANCH   3  20
HETATM   20  C11 UNL     1      23.784   0.397  52.994  1.00  0.00    -0.005 A 
HETATM   21  C12 UNL     1      23.927  -0.468  54.047  1.00  0.00     0.017 A 
HETATM   22  C13 UNL     1      22.842  -1.185  54.546  1.00  0.00     0.045 A 
HETATM   23  C14 UNL     1      21.597  -1.067  54.021  1.00  0.00     0.138 A 
HETATM   24  F1  UNL     1      20.538  -1.766  54.507  1.00  0.00    -0.204 F 
HETATM   25  C15 UNL     1      21.444  -0.201  52.964  1.00  0.00     0.073 A 
HETATM   26 CL1  UNL     1      19.862  -0.011  52.251  1.00  0.00    -0.081 Cl
HETATM   27  C16 UNL     1      22.521   0.498  52.483  1.00  0.00     0.040 A 
ENDBRANCH   3  20
TORSDOF 6
ENDMDL
MODEL 3
REMARK VINA RESULT:      -8.1      4.410      7.668
REMARK  6 active torsions:
REMARK  status: ('A' for Active; 'I' for Inactive)
REMARK    1  A    between atoms: O1_2  and  C2_3 
REMARK    2  A    between atoms: C5_6  and  C6_7 
REMARK    3  A    between atoms: C6_7  and  N1_8 
REMARK    4  A    between atoms: C7_9  and  O2_10 
REMARK    5  A    between atoms: O2_10  and  C8_11 
REMARK    6  A    between atoms: C10_13  and  C11_14 
ROOT
HETATM    1  C8  UNL     1      22.899   2.055  51.912  1.00  0.00     0.173 A 
HETATM    2  C9  UNL     1      23.934   2.610  51.153  1.00  0.00     0.090 A 
HETATM    3  C10 UNL     1      24.061   3.952  50.811  1.00  0.00     0.072 A 
HETATM    4  N2  UNL     1      23.091   4.805  51.254  1.00  0.00    -0.241 NA
HETATM    5  C17 UNL     1      22.085   4.286  51.986  1.00  0.00     0.236 A 
HETATM    6  N3  UNL     1      22.019   2.987  52.281  1.00  0.00    -0.217 NA
ENDROOT
BRANCH   1   7
HETATM    7  O2  UNL     1      23.128   0.720  52.030  1.00  0.00    -0.291 OA
BRANCH   7   8
HETATM    8  C7  UNL     1      23.316   0.031  53.179  1.00  0.00     0.088 A 
HETATM    9  C5  UNL     1      22.460  -0.619  54.032  1.00  0.00     0.004 A 
HETATM   10  C4  UNL     1      22.945  -1.255  55.175  1.00  0.00     0.014 A 
HETATM   11  C3  UNL     1      24.279  -1.279  55.524  1.00  0.00     0.037 A 
HETATM   12  C2  UNL     1      25.152  -0.629  54.672  1.00  0.00     0.070 A 
HETATM   13  C18 UNL     1      24.675   0.011  53.526  1.00  0.00     0.074 A 
BRANCH   9  14
HETATM   14  C6  UNL     1      21.032  -0.643  53.740  1.00  0.00     0.308 C 
BRANCH  14  15
HETATM   15  N1  UNL     1      20.380   0.640  53.669  1.00  0.00     0.082 N 
HETATM   16  H8  UNL     1      20.330   1.157  54.570  1.00  0.00     0.313 HD
HETATM   17  H9  UNL     1      19.441   0.580  53.195  1.00  0.00     0.313 HD
ENDBRANCH  14  15
ENDBRANCH   9  14
BRANCH  12  18
HETATM   18  O1  UNL     1      26.472  -0.663  55.032  1.00  0.00    -0.356 OA
HETATM   19  C1  UNL     1      27.472   0.242  54.694  1.00  0.00     0.210 C 
ENDBRANCH  12  18
ENDBRANCH   7   8
ENDBRANCH   1   7
BRANCH   3  20
HETATM   20  C11 UNL     1      25.126   4.552  50.026  1.00  0.00    -0.005 A 
HETATM   21  C12 UNL     1      26.235   3.803  49.735  1.00  0.00     0.017 A 
HETATM   22  C13 UNL     1      27.288   4.329  48.990  1.00  0.00     0.045 A 
HETATM   23  C14 UNL     1      27.272   5.601  48.517  1.00  0.00     0.138 A 
HETATM   24  F1  UNL     1      28.297   6.115  47.790  1.00  0.00    -0.204 F 
HETATM   25  C15 UNL     1      26.162   6.359  48.805  1.00  0.00     0.073 A 
HETATM   26 CL1  UNL     1      26.089   8.003  48.220  1.00  0.00    -0.081 Cl
HETATM   27  C16 UNL     1      25.133   5.829  49.539  1.00  0.00     0.040 A 
ENDBRANCH   3  20
TORSDOF 6
ENDMDL
MODEL 4
REMARK VINA RESULT:      -7.9      4.726      8.399
REMARK  6 active torsions:
REMARK  status: ('A' for Active; 'I' for Inactive)
REMARK    1  A    between atoms: O1_2  and  C2_3 
REMARK    2  A    between atoms: C5_6  and  C6_7 
REMARK    3  A    between atoms: C6_7  and  N1_8 
REMARK    4  A    between atoms: C7_9  and  O2_10 
REMARK    5  A    between atoms: O2_10  and  C8_11 
REMARK    6  A    between atoms: C10_13  and  C11_14 
ROOT
HETATM    1  C8  UNL     1      23.210   2.596  51.818  1.00  0.00     0.173 A 
HETATM    2  C9  UNL     1      24.238   3.090  51.007  1.00  0.00     0.090 A 
HETATM    3  C10 UNL     1      24.507   4.432  50.766  1.00  0.00     0.072 A 
HETATM    4  N2  UNL     1      23.700   5.352  51.372  1.00  0.00    -0.241 NA
HETATM    5  C17 UNL     1      22.704   4.892  52.156  1.00  0.00     0.236 A 
HETATM    6  N3  UNL     1      22.496   3.589  52.349  1.00  0.00    -0.217 NA
ENDROOT
BRANCH   1   7
HETATM    7  O2  UNL     1      23.273   1.238  51.803  1.00  0.00    -0.291 OA
BRANCH   7   8
HETATM    8  C7  UNL     1      22.732   0.393  52.711  1.00  0.00     0.088 A 
HETATM    9  C5  UNL     1      23.273  -0.399  53.691  1.00  0.00     0.004 A 
HETATM   10  C4  UNL     1      22.454  -1.192  54.495  1.00  0.00     0.014 A 
HETATM   11  C3  UNL     1      21.081  -1.239  54.369  1.00  0.00     0.037 A 
HETATM   12  C2  UNL     1      20.524  -0.445  53.385  1.00  0.00     0.070 A 
HETATM   13  C18 UNL     1      21.336   0.352  52.576  1.00  0.00     0.074 A 
BRANCH   9  14
HETATM   14  C6  UNL     1      24.717  -0.411  53.893  1.00  0.00     0.308 C 
BRANCH  14  15
HETATM   15  N1  UNL     1      25.179  -1.026  55.111  1.00  0.00     0.082 N 
HETATM   16  H8  UNL     1      24.912  -0.528  55.984  1.00  0.00     0.313 HD
HETATM   17  H9  UNL     1      26.211  -1.239  55.079  1.00  0.00     0.313 HD
ENDBRANCH  14  15
ENDBRANCH   9  14
BRANCH  12  18
HETATM   18  O1  UNL     1      19.161  -0.503  53.273  1.00  0.00    -0.356 OA
HETATM   19  C1  UNL     1      18.333  -1.601  53.474  1.00  0.00     0.210 C 
ENDBRANCH  12  18
ENDBRANCH   7   8
ENDBRANCH   1   7
BRANCH   3  20
HETATM   20  C11 UNL     1      25.567   4.970  49.930  1.00  0.00    -0.005 A 
HETATM   21  C12 UNL     1      26.566   4.132  49.509  1.00  0.00     0.017 A 
HETATM   22  C13 UNL     1      27.609   4.595  48.710  1.00  0.00     0.045 A 
HETATM   23  C14 UNL     1      27.691   5.888  48.309  1.00  0.00     0.138 A 
HETATM   24  F1  UNL     1      28.707   6.340  47.529  1.00  0.00    -0.204 F 
HETATM   25  C15 UNL     1      26.692   6.735  48.727  1.00  0.00     0.073 A 
HETATM   26 CL1  UNL     1      26.748   8.411  48.239  1.00  0.00    -0.081 Cl
HETATM   27  C16 UNL     1      25.672   6.266  49.513  1.00  0.00     0.040 A 
ENDBRANCH   3  20
TORSDOF 6
ENDMDL
MODEL 5
REMARK VINA RESULT:      -7.8      1.733      2.827
REMARK  6 active torsions:
REMARK  status: ('A' for Active; 'I' for Inactive)
REMARK    1  A    between atoms: O1_2  and  C2_3 
REMARK    2  A    between atoms: C5_6  and  C6_7 
REMARK    3  A    between atoms: C6_7  and  N1_8 
REMARK    4  A    between atoms: C7_9  and  O2_10 
REMARK    5  A    between atoms: O2_10  and  C8_11 
REMARK    6  A    between atoms: C10_13  and  C11_14 
ROOT
HETATM    1  C8  UNL     1      25.397   3.723  50.437  1.00  0.00     0.173 A 
HETATM    2  C9  UNL     1      26.365   2.832  50.913  1.00  0.00     0.090 A 
HETATM    3  C10 UNL     1      26.314   2.148  52.122  1.00  0.00     0.072 A 
HETATM    4  N2  UNL     1      25.224   2.361  52.917  1.00  0.00    -0.241 NA
HETATM    5  C17 UNL     1      24.282   3.218  52.473  1.00  0.00     0.236 A 
HETATM    6  N3  UNL     1      24.389   3.846  51.302  1.00  0.00    -0.217 NA
ENDROOT
BRANCH   1   7
HETATM    7  O2  UNL     1      25.805   4.185  49.226  1.00  0.00    -0.291 OA
BRANCH   7   8
HETATM    8  C7  UNL     1      26.126   5.462  48.913  1.00  0.00     0.088 A 
HETATM    9  C5  UNL     1      27.299   6.068  48.540  1.00  0.00     0.004 A 
HETATM   10  C4  UNL     1      27.339   7.437  48.279  1.00  0.00     0.014 A 
HETATM   11  C3  UNL     1      26.236   8.261  48.373  1.00  0.00     0.037 A 
HETATM   12  C2  UNL     1      25.048   7.663  48.747  1.00  0.00     0.070 A 
HETATM   13  C18 UNL     1      24.999   6.292  49.010  1.00  0.00     0.074 A 
BRANCH   9  14
HETATM   14  C6  UNL     1      28.515   5.272  48.418  1.00  0.00     0.308 C 
BRANCH  14  15
HETATM   15  N1  UNL     1      29.729   5.898  48.872  1.00  0.00     0.082 N 
HETATM   16  H8  UNL     1      29.893   5.847  49.898  1.00  0.00     0.313 HD
HETATM   17  H9  UNL     1      29.827   6.882  48.506  1.00  0.00     0.313 HD
ENDBRANCH  14  15
ENDBRANCH   9  14
BRANCH  12  18
HETATM   18  O1  UNL     1      23.964   8.493  48.834  1.00  0.00    -0.356 OA
HETATM   19  C1  UNL     1      22.703   8.201  49.341  1.00  0.00     0.210 C 
ENDBRANCH  12  18
ENDBRANCH   7   8
ENDBRANCH   1   7
BRANCH   3  20
HETATM   20  C11 UNL     1      27.304   1.218  52.638  1.00  0.00    -0.005 A 
HETATM   21  C12 UNL     1      28.411   1.717  53.272  1.00  0.00     0.017 A 
HETATM   22  C13 UNL     1      29.394   0.873  53.782  1.00  0.00     0.045 A 
HETATM   23  C14 UNL     1      29.309  -0.478  53.679  1.00  0.00     0.138 A 
HETATM   24  F1  UNL     1      30.267  -1.302  54.177  1.00  0.00    -0.204 F 
HETATM   25  C15 UNL     1      28.201  -0.986  53.045  1.00  0.00     0.073 A 
HETATM   26 CL1  UNL     1      28.041  -2.718  52.886  1.00  0.00    -0.081 Cl
HETATM   27  C16 UNL     1      27.241  -0.144  52.548  1.00  0.00     0.040 A 
ENDBRANCH   3  20
TORSDOF 6
ENDMDL
MODEL 6
REMARK VINA RESULT:      -7.7      4.017      7.222
REMARK  6 active torsions:
REMARK  status: ('A' for Active; 'I' for Inactive)
REMARK    1  A    between atoms: O1_2  and  C2_3 
REMARK    2  A    between atoms: C5_6  and  C6_7 
REMARK    3  A    between atoms: C6_7  and  N1_8 
REMARK    4  A    between atoms: C7_9  and  O2_10 
REMARK    5  A    between atoms: O2_10  and  C8_11 
REMARK    6  A    between atoms: C10_13  and  C11_14 
ROOT
HETATM    1  C8  UNL     1      23.438   2.570  51.361  1.00  0.00     0.173 A 
HETATM    2  C9  UNL     1      24.346   3.526  50.891  1.00  0.00     0.090 A 
HETATM    3  C10 UNL     1      24.423   4.000  49.587  1.00  0.00     0.072 A 
HETATM    4  N2  UNL     1      23.536   3.490  48.682  1.00  0.00    -0.241 NA
HETATM    5  C17 UNL     1      22.655   2.568  49.119  1.00  0.00     0.236 A 
HETATM    6  N3  UNL     1      22.631   2.152  50.385  1.00  0.00    -0.217 NA
ENDROOT
BRANCH   1   7
HETATM    7  O2  UNL     1      23.678   2.373  52.684  1.00  0.00    -0.291 OA
BRANCH   7   8
HETATM    8  C7  UNL     1      24.437   1.396  53.232  1.00  0.00     0.088 A 
HETATM    9  C5  UNL     1      24.195   0.079  53.531  1.00  0.00     0.004 A 
HETATM   10  C4  UNL     1      25.188  -0.710  54.112  1.00  0.00     0.014 A 
HETATM   11  C3  UNL     1      26.449  -0.243  54.420  1.00  0.00     0.037 A 
HETATM   12  C2  UNL     1      26.705   1.082  54.122  1.00  0.00     0.070 A 
HETATM   13  C18 UNL     1      25.717   1.880  53.541  1.00  0.00     0.074 A 
BRANCH   9  14
HETATM   14  C6  UNL     1      22.888  -0.498  53.240  1.00  0.00     0.308 C 
BRANCH  14  15
HETATM   15  N1  UNL     1      21.750   0.236  53.731  1.00  0.00     0.082 N 
HETATM   16  H8  UNL     1      20.901  -0.338  53.910  1.00  0.00     0.313 HD
HETATM   17  H9  UNL     1      21.538   1.080  53.137  1.00  0.00     0.313 HD
ENDBRANCH  14  15
ENDBRANCH   9  14
BRANCH  12  18
HETATM   18  O1  UNL     1      27.960   1.531  54.433  1.00  0.00    -0.356 OA
HETATM   19  C1  UNL     1      28.739   2.443  53.731  1.00  0.00     0.210 C 
ENDBRANCH  12  18
ENDBRANCH   7   8
ENDBRANCH   1   7
BRANCH   3  20
HETATM   20  C11 UNL     1      25.354   4.990  49.074  1.00  0.00    -0.005 A 
HETATM   21  C12 UNL     1      24.870   6.210  48.680  1.00  0.00     0.017 A 
HETATM   22  C13 UNL     1      25.716   7.196  48.177  1.00  0.00     0.045 A 
HETATM   23  C14 UNL     1      27.053   7.002  48.051  1.00  0.00     0.138 A 
HETATM   24  F1  UNL     1      27.880   7.962  47.561  1.00  0.00    -0.204 F 
HETATM   25  C15 UNL     1      27.547   5.781  48.445  1.00  0.00     0.073 A 
HETATM   26 CL1  UNL     1      29.261   5.479  48.304  1.00  0.00    -0.081 Cl
HETATM   27  C16 UNL     1      26.703   4.820  48.938  1.00  0.00     0.040 A 
ENDBRANCH   3  20
TORSDOF 6
ENDMDL
MODEL 7
REMARK VINA RESULT:      -7.7      3.931      7.651
REMARK  6 active torsions:
REMARK  status: ('A' for Active; 'I' for Inactive)
REMARK    1  A    between atoms: O1_2  and  C2_3 
REMARK    2  A    between atoms: C5_6  and  C6_7 
REMARK    3  A    between atoms: C6_7  and  N1_8 
REMARK    4  A    between atoms: C7_9  and  O2_10 
REMARK    5  A    between atoms: O2_10  and  C8_11 
REMARK    6  A    between atoms: C10_13  and  C11_14 
ROOT
HETATM    1  C8  UNL     1      25.412   2.665  50.888  1.00  0.00     0.173 A 
HETATM    2  C9  UNL     1      26.330   3.419  50.147  1.00  0.00     0.090 A 
HETATM    3  C10 UNL     1      26.101   4.683  49.616  1.00  0.00     0.072 A 
HETATM    4  N2  UNL     1      24.874   5.241  49.835  1.00  0.00    -0.241 NA
HETATM    5  C17 UNL     1      23.978   4.527  50.547  1.00  0.00     0.236 A 
HETATM    6  N3  UNL     1      24.257   3.317  51.030  1.00  0.00    -0.217 NA
ENDROOT
BRANCH   1   7
HETATM    7  O2  UNL     1      26.006   1.490  51.228  1.00  0.00    -0.291 OA
BRANCH   7   8
HETATM    8  C7  UNL     1      26.012   0.913  52.452  1.00  0.00     0.088 A 
HETATM    9  C5  UNL     1      26.968   0.800  53.429  1.00  0.00     0.004 A 
HETATM   10  C4  UNL     1      26.691   0.126  54.619  1.00  0.00     0.014 A 
HETATM   11  C3  UNL     1      25.473  -0.458  54.895  1.00  0.00     0.037 A 
HETATM   12  C2  UNL     1      24.501  -0.350  53.919  1.00  0.00     0.070 A 
HETATM   13  C18 UNL     1      24.769   0.321  52.725  1.00  0.00     0.074 A 
BRANCH   9  14
HETATM   14  C6  UNL     1      28.286   1.388  53.219  1.00  0.00     0.308 C 
BRANCH  14  15
HETATM   15  N1  UNL     1      28.506   2.677  53.823  1.00  0.00     0.082 N 
HETATM   16  H8  UNL     1      29.451   3.081  53.665  1.00  0.00     0.313 HD
HETATM   17  H9  UNL     1      28.239   2.686  54.843  1.00  0.00     0.313 HD
ENDBRANCH  14  15
ENDBRANCH   9  14
BRANCH  12  18
HETATM   18  O1  UNL     1      23.298  -0.935  54.209  1.00  0.00    -0.356 OA
HETATM   19  C1  UNL     1      22.235  -1.176  53.346  1.00  0.00     0.210 C 
ENDBRANCH  12  18
ENDBRANCH   7   8
ENDBRANCH   1   7
BRANCH   3  20
HETATM   20  C11 UNL     1      27.035   5.485  48.846  1.00  0.00    -0.005 A 
HETATM   21  C12 UNL     1      26.598   6.662  48.297  1.00  0.00     0.017 A 
HETATM   22  C13 UNL     1      27.449   7.469  47.545  1.00  0.00     0.045 A 
HETATM   23  C14 UNL     1      28.744   7.136  47.317  1.00  0.00     0.138 A 
HETATM   24  F1  UNL     1      29.575   7.922  46.585  1.00  0.00    -0.204 F 
HETATM   25  C15 UNL     1      29.190   5.956  47.864  1.00  0.00     0.073 A 
HETATM   26 CL1  UNL     1      30.849   5.479  47.602  1.00  0.00    -0.081 Cl
HETATM   27  C16 UNL     1      28.342   5.172  48.602  1.00  0.00     0.040 A 
ENDBRANCH   3  20
TORSDOF 6
ENDMDL
MODEL 8
REMARK VINA RESULT:      -7.7      4.427      7.336
REMARK  6 active torsions:
REMARK  status: ('A' for Active; 'I' for Inactive)
REMARK    1  A    between atoms: O1_2  and  C2_3 
REMARK    2  A    between atoms: C5_6  and  C6_7 
REMARK    3  A    between atoms: C6_7  and  N1_8 
REMARK    4  A    between atoms: C7_9  and  O2_10 
REMARK    5  A    between atoms: O2_10  and  C8_11 
REMARK    6  A    between atoms: C10_13  and  C11_14 
ROOT
HETATM    1  C8  UNL     1      22.696   1.201  52.139  1.00  0.00     0.173 A 
HETATM    2  C9  UNL     1      24.007   0.775  52.379  1.00  0.00     0.090 A 
HETATM    3  C10 UNL     1      25.064   1.587  52.774  1.00  0.00     0.072 A 
HETATM    4  N2  UNL     1      24.804   2.917  52.943  1.00  0.00    -0.241 NA
HETATM    5  C17 UNL     1      23.546   3.343  52.715  1.00  0.00     0.236 A 
HETATM    6  N3  UNL     1      22.572   2.514  52.337  1.00  0.00    -0.217 NA
ENDROOT
BRANCH   1   7
HETATM    7  O2  UNL     1      21.959   0.119  51.774  1.00  0.00    -0.291 OA
BRANCH   7   8
HETATM    8  C7  UNL     1      20.679  -0.143  52.127  1.00  0.00     0.088 A 
HETATM    9  C5  UNL     1      20.117  -0.801  53.192  1.00  0.00     0.004 A 
HETATM   10  C4  UNL     1      18.732  -0.928  53.297  1.00  0.00     0.014 A 
HETATM   11  C3  UNL     1      17.849  -0.418  52.367  1.00  0.00     0.037 A 
HETATM   12  C2  UNL     1      18.403   0.248  51.290  1.00  0.00     0.070 A 
HETATM   13  C18 UNL     1      19.788   0.379  51.177  1.00  0.00     0.074 A 
BRANCH   9  14
HETATM   14  C6  UNL     1      20.977  -1.372  54.221  1.00  0.00     0.308 C 
BRANCH  14  15
HETATM   15  N1  UNL     1      21.726  -0.431  55.013  1.00  0.00     0.082 N 
HETATM   16  H8  UNL     1      22.017  -0.778  55.949  1.00  0.00     0.313 HD
HETATM   17  H9  UNL     1      21.247   0.506  55.071  1.00  0.00     0.313 HD
ENDBRANCH  14  15
ENDBRANCH   9  14
BRANCH  12  18
HETATM   18  O1  UNL     1      17.514   0.748  50.378  1.00  0.00    -0.356 OA
HETATM   19  C1  UNL     1      16.624   0.041  49.577  1.00  0.00     0.210 C 
ENDBRANCH  12  18
ENDBRANCH   7   8
ENDBRANCH   1   7
BRANCH   3  20
HETATM   20  C11 UNL     1      26.433   1.170  53.029  1.00  0.00    -0.005 A 
HETATM   21  C12 UNL     1      27.358   2.119  53.375  1.00  0.00     0.017 A 
HETATM   22  C13 UNL     1      28.685   1.777  53.627  1.00  0.00     0.045 A 
HETATM   23  C14 UNL     1      29.128   0.497  53.544  1.00  0.00     0.138 A 
HETATM   24  F1  UNL     1      30.421   0.162  53.790  1.00  0.00    -0.204 F 
HETATM   25  C15 UNL     1      28.205  -0.461  53.198  1.00  0.00     0.073 A 
HETATM   26 CL1  UNL     1      28.722  -2.125  53.077  1.00  0.00    -0.081 Cl
HETATM   27  C16 UNL     1      26.903  -0.110  52.953  1.00  0.00     0.040 A 
ENDBRANCH   3  20
TORSDOF 6
ENDMDL
MODEL 9
REMARK VINA RESULT:      -7.5      4.985      6.896
REMARK  6 active torsions:
REMARK  status: ('A' for Active; 'I' for Inactive)
REMARK    1  A    between atoms: O1_2  and  C2_3 
REMARK    2  A    between atoms: C5_6  and  C6_7 
REMARK    3  A    between atoms: C6_7  and  N1_8 
REMARK    4  A    between atoms: C7_9  and  O2_10 
REMARK    5  A    between atoms: O2_10  and  C8_11 
REMARK    6  A    between atoms: C10_13  and  C11_14 
ROOT
HETATM    1  C8  UNL     1      29.129   7.671  48.542  1.00  0.00     0.173 A 
HETATM    2  C9  UNL     1      30.068   6.688  48.211  1.00  0.00     0.090 A 
HETATM    3  C10 UNL     1      31.436   6.763  48.443  1.00  0.00     0.072 A 
HETATM    4  N2  UNL     1      31.909   7.894  49.046  1.00  0.00    -0.241 NA
HETATM    5  C17 UNL     1      31.017   8.851  49.370  1.00  0.00     0.236 A 
HETATM    6  N3  UNL     1      29.713   8.721  49.121  1.00  0.00    -0.217 NA
ENDROOT
BRANCH   1   7
HETATM    7  O2  UNL     1      27.901   7.231  48.158  1.00  0.00    -0.291 OA
BRANCH   7   8
HETATM    8  C7  UNL     1      26.864   6.919  48.970  1.00  0.00     0.088 A 
HETATM    9  C5  UNL     1      26.134   7.644  49.877  1.00  0.00     0.004 A 
HETATM   10  C4  UNL     1      25.098   7.046  50.594  1.00  0.00     0.014 A 
HETATM   11  C3  UNL     1      24.741   5.721  50.452  1.00  0.00     0.037 A 
HETATM   12  C2  UNL     1      25.468   4.980  49.540  1.00  0.00     0.070 A 
HETATM   13  C18 UNL     1      26.507   5.570  48.817  1.00  0.00     0.074 A 
BRANCH   9  14
HETATM   14  C6  UNL     1      26.445   9.052  50.091  1.00  0.00     0.308 C 
BRANCH  14  15
HETATM   15  N1  UNL     1      27.546   9.328  50.978  1.00  0.00     0.082 N 
HETATM   16  H8  UNL     1      27.628   8.684  51.791  1.00  0.00     0.313 HD
HETATM   17  H9  UNL     1      27.573  10.339  51.272  1.00  0.00     0.313 HD
ENDBRANCH  14  15
ENDBRANCH   9  14
BRANCH  12  18
HETATM   18  O1  UNL     1      25.100   3.668  49.410  1.00  0.00    -0.356 OA
HETATM   19  C1  UNL     1      23.814   3.141  49.371  1.00  0.00     0.210 C 
ENDBRANCH  12  18
ENDBRANCH   7   8
ENDBRANCH   1   7
BRANCH   3  20
HETATM   20  C11 UNL     1      32.431   5.757  48.112  1.00  0.00    -0.005 A 
HETATM   21  C12 UNL     1      33.747   6.130  48.034  1.00  0.00     0.017 A 
HETATM   22  C13 UNL     1      34.743   5.210  47.715  1.00  0.00     0.045 A 
HETATM   23  C14 UNL     1      34.465   3.905  47.466  1.00  0.00     0.138 A 
HETATM   24  F1  UNL     1      35.434   3.006  47.156  1.00  0.00    -0.204 F 
HETATM   25  C15 UNL     1      33.147   3.522  47.542  1.00  0.00     0.073 A 
HETATM   26 CL1  UNL     1      32.733   1.854  47.232  1.00  0.00    -0.081 Cl
HETATM   27  C16 UNL     1      32.178   4.439  47.857  1.00  0.00     0.040 A 
ENDBRANCH   3  20
TORSDOF 6
ENDMDL
