MODEL 1
REMARK VINA RESULT:      -8.0      0.000      0.000
REMARK  5 active torsions:
REMARK  status: ('A' for Active; 'I' for Inactive)
REMARK    1  A    between atoms: C3_3  and  C4_4 
REMARK    2  A    between atoms: C5_6  and  C6_7 
REMARK    3  A    between atoms: C11_14  and  N3_15 
REMARK       I    between atoms: N3_15  and  C12_16 
REMARK    4  A    between atoms: C12_16  and  C13_18 
REMARK    5  A    between atoms: C13_18  and  N4_19 
ROOT
HETATM    1  C6  UNL     1      22.497   0.778  52.206  1.00  0.00     0.072 A 
HETATM    2  N1  UNL     1      21.160   0.966  52.286  1.00  0.00    -0.241 NA
HETATM    3  C7  UNL     1      20.457   0.509  53.356  1.00  0.00     0.234 A 
HETATM    4  N2  UNL     1      21.081  -0.152  54.375  1.00  0.00    -0.241 NA
HETATM    5  C8  UNL     1      22.416  -0.336  54.291  1.00  0.00     0.070 A 
HETATM    6  C9  UNL     1      23.125  -0.983  55.286  1.00  0.00     0.035 A 
HETATM    7  C10 UNL     1      24.518  -1.172  55.218  1.00  0.00     0.032 A 
HETATM    8  C11 UNL     1      25.162  -0.679  54.104  1.00  0.00     0.035 A 
HETATM    9  C14 UNL     1      24.514  -0.016  53.059  1.00  0.00     0.045 A 
HETATM   10  C15 UNL     1      23.155   0.115  53.220  1.00  0.00     0.024 A 
ENDROOT
BRANCH   8  11
HETATM   11  N3  UNL     1      26.591  -0.877  54.064  1.00  0.00    -0.326 N 
HETATM   12  C12 UNL     1      27.285   0.262  54.551  1.00  0.00     0.237 C 
HETATM   13  O1  UNL     1      26.737   1.337  54.978  1.00  0.00    -0.272 OA
HETATM   14  H10 UNL     1      27.153  -1.705  53.734  1.00  0.00     0.169 HD
BRANCH  12  15
HETATM   15  C13 UNL     1      28.773   0.239  54.585  1.00  0.00     0.225 C 
BRANCH  15  16
HETATM   16  N4  UNL     1      29.404   1.341  53.938  1.00  0.00    -0.154 NA
HETATM   17  F1  UNL     1      29.784   2.296  54.839  1.00  0.00    -0.136 F 
HETATM   18  H13 UNL     1      28.848   1.808  53.211  1.00  0.00     0.159 HD
ENDBRANCH  15  16
ENDBRANCH  12  15
ENDBRANCH   8  11
BRANCH   1  19
HETATM   19  C5  UNL     1      23.072   1.330  50.995  1.00  0.00     0.051 C 
HETATM   20  C4  UNL     1      23.473   2.584  50.999  1.00  0.00     0.013 C 
HETATM   21 BR1  UNL     1      23.284   3.622  52.621  1.00  0.00    -0.051 Br
BRANCH  20  22
HETATM   22  C3  UNL     1      24.067   3.478  50.058  1.00  0.00     0.015 C 
HETATM   23  C2  UNL     1      25.206   3.839  49.517  1.00  0.00    -0.030 C 
HETATM   24  C1  UNL     1      26.650   3.526  49.550  1.00  0.00     0.036 C 
ENDBRANCH  20  22
ENDBRANCH   1  19
TORSDOF 5
ENDMDL
MODEL 2
REMARK VINA RESULT:      -7.8      1.505      1.850
REMARK  5 active torsions:
REMARK  status: ('A' for Active; 'I' for Inactive)
REMARK    1  A    between atoms: C3_3  and  C4_4 
REMARK    2  A    between atoms: C5_6  and  C6_7 
REMARK    3  A    between atoms: C11_14  and  N3_15 
REMARK       I    between atoms: N3_15  and  C12_16 
REMARK    4  A    between atoms: C12_16  and  C13_18 
REMARK    5  A    between atoms: C13_18  and  N4_19 
ROOT
HETATM    1  C6  UNL     1      22.807   2.903  52.133  1.00  0.00     0.072 A 
HETATM    2  N1  UNL     1      21.458   3.004  52.167  1.00  0.00    -0.241 NA
HETATM    3  C7  UNL     1      20.694   1.970  52.606  1.00  0.00     0.234 A 
HETATM    4  N2  UNL     1      21.267   0.802  53.023  1.00  0.00    -0.241 NA
HETATM    5  C8  UNL     1      22.613   0.706  52.991  1.00  0.00     0.070 A 
HETATM    6  C9  UNL     1      23.271  -0.436  53.408  1.00  0.00     0.035 A 
HETATM    7  C10 UNL     1      24.675  -0.547  53.391  1.00  0.00     0.032 A 
HETATM    8  C11 UNL     1      25.382   0.544  52.934  1.00  0.00     0.035 A 
HETATM    9  C14 UNL     1      24.787   1.730  52.495  1.00  0.00     0.045 A 
HETATM   10  C15 UNL     1      23.414   1.737  52.551  1.00  0.00     0.024 A 
ENDROOT
BRANCH   8  11
HETATM   11  N3  UNL     1      26.818   0.409  52.936  1.00  0.00    -0.326 N 
HETATM   12  C12 UNL     1      27.368   0.739  54.203  1.00  0.00     0.237 C 
HETATM   13  O1  UNL     1      26.696   1.110  55.227  1.00  0.00    -0.272 OA
HETATM   14  H10 UNL     1      27.474   0.120  52.163  1.00  0.00     0.169 HD
BRANCH  12  15
HETATM   15  C13 UNL     1      28.842   0.656  54.393  1.00  0.00     0.225 C 
BRANCH  15  16
HETATM   16  N4  UNL     1      29.505   1.913  54.487  1.00  0.00    -0.154 NA
HETATM   17  F1  UNL     1      28.846   2.878  53.778  1.00  0.00    -0.136 F 
HETATM   18  H13 UNL     1      30.487   1.923  54.181  1.00  0.00     0.159 HD
ENDBRANCH  15  16
ENDBRANCH  12  15
ENDBRANCH   8  11
BRANCH   1  19
HETATM   19  C5  UNL     1      23.451   4.102  51.633  1.00  0.00     0.051 C 
HETATM   20  C4  UNL     1      23.645   4.222  50.337  1.00  0.00     0.013 C 
HETATM   21 BR1  UNL     1      23.054   2.801  49.165  1.00  0.00    -0.051 Br
BRANCH  20  22
HETATM   22  C3  UNL     1      24.220   5.199  49.468  1.00  0.00     0.015 C 
HETATM   23  C2  UNL     1      25.343   5.591  48.916  1.00  0.00    -0.030 C 
HETATM   24  C1  UNL     1      26.777   5.246  48.848  1.00  0.00     0.036 C 
ENDBRANCH  20  22
ENDBRANCH   1  19
TORSDOF 5
ENDMDL
MODEL 3
REMARK VINA RESULT:      -7.5      3.309      5.544
REMARK  5 active torsions:
REMARK  status: ('A' for Active; 'I' for Inactive)
REMARK    1  A    between atoms: C3_3  and  C4_4 
REMARK    2  A    between atoms: C5_6  and  C6_7 
REMARK    3  A    between atoms: C11_14  and  N3_15 
REMARK       I    between atoms: N3_15  and  C12_16 
REMARK    4  A    between atoms: C12_16  and  C13_18 
REMARK    5  A    between atoms: C13_18  and  N4_19 
ROOT
HETATM    1  C6  UNL     1      25.598   0.406  53.067  1.00  0.00     0.072 A 
HETATM    2  N1  UNL     1      26.806   0.621  53.635  1.00  0.00    -0.241 NA
HETATM    3  C7  UNL     1      27.070   0.182  54.894  1.00  0.00     0.234 A 
HETATM    4  N2  UNL     1      26.123  -0.484  55.618  1.00  0.00    -0.241 NA
HETATM    5  C8  UNL     1      24.919  -0.699  55.046  1.00  0.00     0.070 A 
HETATM    6  C9  UNL     1      23.911  -1.377  55.706  1.00  0.00     0.035 A 
HETATM    7  C10 UNL     1      22.654  -1.618  55.118  1.00  0.00     0.032 A 
HETATM    8  C11 UNL     1      22.462  -1.145  53.838  1.00  0.00     0.035 A 
HETATM    9  C14 UNL     1      23.432  -0.451  53.110  1.00  0.00     0.045 A 
HETATM   10  C15 UNL     1      24.622  -0.267  53.773  1.00  0.00     0.024 A 
ENDROOT
BRANCH   8  11
HETATM   11  N3  UNL     1      21.170  -1.414  53.256  1.00  0.00    -0.326 N 
HETATM   12  C12 UNL     1      20.205  -0.458  53.671  1.00  0.00     0.237 C 
HETATM   13  O1  UNL     1      20.429   0.525  54.459  1.00  0.00    -0.272 OA
HETATM   14  H10 UNL     1      20.865  -2.186  52.606  1.00  0.00     0.169 HD
BRANCH  12  15
HETATM   15  C13 UNL     1      18.809  -0.577  53.168  1.00  0.00     0.225 C 
BRANCH  15  16
HETATM   16  N4  UNL     1      17.923  -1.293  54.023  1.00  0.00    -0.154 NA
HETATM   17  F1  UNL     1      18.200  -2.631  54.019  1.00  0.00    -0.136 F 
HETATM   18  H13 UNL     1      16.922  -1.185  53.819  1.00  0.00     0.159 HD
ENDBRANCH  15  16
ENDBRANCH  12  15
ENDBRANCH   8  11
BRANCH   1  19
HETATM   19  C5  UNL     1      25.501   0.947  51.725  1.00  0.00     0.051 C 
HETATM   20  C4  UNL     1      25.035   2.168  51.567  1.00  0.00     0.013 C 
HETATM   21 BR1  UNL     1      24.513   3.181  53.131  1.00  0.00    -0.051 Br
BRANCH  20  22
HETATM   22  C3  UNL     1      24.785   3.040  50.465  1.00  0.00     0.015 C 
HETATM   23  C2  UNL     1      25.361   3.830  49.591  1.00  0.00    -0.030 C 
HETATM   24  C1  UNL     1      26.692   4.330  49.188  1.00  0.00     0.036 C 
ENDBRANCH  20  22
ENDBRANCH   1  19
TORSDOF 5
ENDMDL
MODEL 4
REMARK VINA RESULT:      -7.4      3.729      5.894
REMARK  5 active torsions:
REMARK  status: ('A' for Active; 'I' for Inactive)
REMARK    1  A    between atoms: C3_3  and  C4_4 
REMARK    2  A    between atoms: C5_6  and  C6_7 
REMARK    3  A    between atoms: C11_14  and  N3_15 
REMARK       I    between atoms: N3_15  and  C12_16 
REMARK    4  A    between atoms: C12_16  and  C13_18 
REMARK    5  A    between atoms: C13_18  and  N4_19 
ROOT
HETATM    1  C6  UNL     1      24.481   1.266  52.958  1.00  0.00     0.072 A 
HETATM    2  N1  UNL     1      23.618   0.334  53.422  1.00  0.00    -0.241 NA
HETATM    3  C7  UNL     1      22.492   0.023  52.726  1.00  0.00     0.234 A 
HETATM    4  N2  UNL     1      22.204   0.643  51.544  1.00  0.00    -0.241 NA
HETATM    5  C8  UNL     1      23.070   1.570  51.084  1.00  0.00     0.070 A 
HETATM    6  C9  UNL     1      22.859   2.234  49.889  1.00  0.00     0.035 A 
HETATM    7  C10 UNL     1      23.758   3.196  49.392  1.00  0.00     0.032 A 
HETATM    8  C11 UNL     1      24.878   3.456  50.152  1.00  0.00     0.035 A 
HETATM    9  C14 UNL     1      25.158   2.828  51.368  1.00  0.00     0.045 A 
HETATM   10  C15 UNL     1      24.218   1.907  51.766  1.00  0.00     0.024 A 
ENDROOT
BRANCH   8  11
HETATM   11  N3  UNL     1      25.788   4.438  49.614  1.00  0.00    -0.326 N 
HETATM   12  C12 UNL     1      25.430   5.752  50.016  1.00  0.00     0.237 C 
HETATM   13  O1  UNL     1      24.432   6.052  50.760  1.00  0.00    -0.272 OA
HETATM   14  H10 UNL     1      26.631   4.315  48.993  1.00  0.00     0.169 HD
BRANCH  12  15
HETATM   15  C13 UNL     1      26.259   6.899  49.555  1.00  0.00     0.225 C 
BRANCH  15  16
HETATM   16  N4  UNL     1      26.476   7.912  50.532  1.00  0.00    -0.154 NA
HETATM   17  F1  UNL     1      25.716   9.019  50.279  1.00  0.00    -0.136 F 
HETATM   18  H13 UNL     1      27.449   8.225  50.642  1.00  0.00     0.159 HD
ENDBRANCH  15  16
ENDBRANCH  12  15
ENDBRANCH   8  11
BRANCH   1  19
HETATM   19  C5  UNL     1      25.619   1.466  53.834  1.00  0.00     0.051 C 
HETATM   20  C4  UNL     1      26.572   0.558  53.851  1.00  0.00     0.013 C 
HETATM   21 BR1  UNL     1      26.411  -0.990  52.702  1.00  0.00    -0.051 Br
BRANCH  20  22
HETATM   22  C3  UNL     1      27.809   0.376  54.541  1.00  0.00     0.015 C 
HETATM   23  C2  UNL     1      29.033  -0.078  54.413  1.00  0.00    -0.030 C 
HETATM   24  C1  UNL     1      29.931  -0.713  53.427  1.00  0.00     0.036 C 
ENDBRANCH  20  22
ENDBRANCH   1  19
TORSDOF 5
ENDMDL
MODEL 5
REMARK VINA RESULT:      -7.2      3.284      5.477
REMARK  5 active torsions:
REMARK  status: ('A' for Active; 'I' for Inactive)
REMARK    1  A    between atoms: C3_3  and  C4_4 
REMARK    2  A    between atoms: C5_6  and  C6_7 
REMARK    3  A    between atoms: C11_14  and  N3_15 
REMARK       I    between atoms: N3_15  and  C12_16 
REMARK    4  A    between atoms: C12_16  and  C13_18 
REMARK    5  A    between atoms: C13_18  and  N4_19 
ROOT
HETATM    1  C6  UNL     1      24.520   0.413  53.484  1.00  0.00     0.072 A 
HETATM    2  N1  UNL     1      23.871  -0.564  54.157  1.00  0.00    -0.241 NA
HETATM    3  C7  UNL     1      22.637  -0.977  53.763  1.00  0.00     0.234 A 
HETATM    4  N2  UNL     1      22.022  -0.416  52.681  1.00  0.00    -0.241 NA
HETATM    5  C8  UNL     1      22.675   0.558  52.011  1.00  0.00     0.070 A 
HETATM    6  C9  UNL     1      22.128   1.167  50.897  1.00  0.00     0.035 A 
HETATM    7  C10 UNL     1      22.802   2.175  50.182  1.00  0.00     0.032 A 
HETATM    8  C11 UNL     1      24.049   2.539  50.640  1.00  0.00     0.035 A 
HETATM    9  C14 UNL     1      24.665   1.970  51.757  1.00  0.00     0.045 A 
HETATM   10  C15 UNL     1      23.925   0.997  52.386  1.00  0.00     0.024 A 
ENDROOT
BRANCH   8  11
HETATM   11  N3  UNL     1      24.722   3.566  49.883  1.00  0.00    -0.326 N 
HETATM   12  C12 UNL     1      24.546   4.846  50.475  1.00  0.00     0.237 C 
HETATM   13  O1  UNL     1      23.881   5.081  51.543  1.00  0.00    -0.272 OA
HETATM   14  H10 UNL     1      25.288   3.496  48.997  1.00  0.00     0.169 HD
BRANCH  12  15
HETATM   15  C13 UNL     1      25.172   6.032  49.829  1.00  0.00     0.225 C 
BRANCH  15  16
HETATM   16  N4  UNL     1      26.597   6.028  49.825  1.00  0.00    -0.154 NA
HETATM   17  F1  UNL     1      27.089   5.532  48.650  1.00  0.00    -0.136 F 
HETATM   18  H13 UNL     1      27.044   5.508  50.590  1.00  0.00     0.159 HD
ENDBRANCH  15  16
ENDBRANCH  12  15
ENDBRANCH   8  11
BRANCH   1  19
HETATM   19  C5  UNL     1      25.819   0.721  54.051  1.00  0.00     0.051 C 
HETATM   20  C4  UNL     1      26.864   0.026  53.653  1.00  0.00     0.013 C 
HETATM   21 BR1  UNL     1      26.617  -1.361  52.327  1.00  0.00    -0.051 Br
BRANCH  20  22
HETATM   22  C3  UNL     1      28.261   0.007  53.948  1.00  0.00     0.015 C 
HETATM   23  C2  UNL     1      29.345  -0.728  53.881  1.00  0.00    -0.030 C 
HETATM   24  C1  UNL     1      29.812  -2.057  53.437  1.00  0.00     0.036 C 
ENDBRANCH  20  22
ENDBRANCH   1  19
TORSDOF 5
ENDMDL
MODEL 6
REMARK VINA RESULT:      -7.0      2.467      4.725
REMARK  5 active torsions:
REMARK  status: ('A' for Active; 'I' for Inactive)
REMARK    1  A    between atoms: C3_3  and  C4_4 
REMARK    2  A    between atoms: C5_6  and  C6_7 
REMARK    3  A    between atoms: C11_14  and  N3_15 
REMARK       I    between atoms: N3_15  and  C12_16 
REMARK    4  A    between atoms: C12_16  and  C13_18 
REMARK    5  A    between atoms: C13_18  and  N4_19 
ROOT
HETATM    1  C6  UNL     1      22.699   2.951  51.632  1.00  0.00     0.072 A 
HETATM    2  N1  UNL     1      21.971   3.888  50.982  1.00  0.00    -0.241 NA
HETATM    3  C7  UNL     1      22.547   4.688  50.046  1.00  0.00     0.234 A 
HETATM    4  N2  UNL     1      23.872   4.567  49.739  1.00  0.00    -0.241 NA
HETATM    5  C8  UNL     1      24.594   3.630  50.388  1.00  0.00     0.070 A 
HETATM    6  C9  UNL     1      25.937   3.435  50.126  1.00  0.00     0.035 A 
HETATM    7  C10 UNL     1      26.700   2.454  50.788  1.00  0.00     0.032 A 
HETATM    8  C11 UNL     1      26.047   1.679  51.722  1.00  0.00     0.035 A 
HETATM    9  C14 UNL     1      24.693   1.819  52.041  1.00  0.00     0.045 A 
HETATM   10  C15 UNL     1      24.039   2.805  51.341  1.00  0.00     0.024 A 
ENDROOT
BRANCH   8  11
HETATM   11  N3  UNL     1      26.848   0.675  52.377  1.00  0.00    -0.326 N 
HETATM   12  C12 UNL     1      27.416   1.169  53.582  1.00  0.00     0.237 C 
HETATM   13  O1  UNL     1      27.251   2.349  54.048  1.00  0.00    -0.272 OA
HETATM   14  H10 UNL     1      27.061  -0.317  52.092  1.00  0.00     0.169 HD
BRANCH  12  15
HETATM   15  C13 UNL     1      28.277   0.268  54.396  1.00  0.00     0.225 C 
BRANCH  15  16
HETATM   16  N4  UNL     1      29.415  -0.250  53.714  1.00  0.00    -0.154 NA
HETATM   17  F1  UNL     1      29.248  -1.569  53.398  1.00  0.00    -0.136 F 
HETATM   18  H13 UNL     1      30.310  -0.164  54.211  1.00  0.00     0.159 HD
ENDBRANCH  15  16
ENDBRANCH  12  15
ENDBRANCH   8  11
BRANCH   1  19
HETATM   19  C5  UNL     1      21.918   2.198  52.594  1.00  0.00     0.051 C 
HETATM   20  C4  UNL     1      21.210   1.172  52.170  1.00  0.00     0.013 C 
HETATM   21 BR1  UNL     1      21.254   0.716  50.290  1.00  0.00    -0.051 Br
BRANCH  20  22
HETATM   22  C3  UNL     1      20.338   0.208  52.761  1.00  0.00     0.015 C 
HETATM   23  C2  UNL     1      20.294  -0.810  53.587  1.00  0.00    -0.030 C 
HETATM   24  C1  UNL     1      21.162  -1.626  54.460  1.00  0.00     0.036 C 
ENDBRANCH  20  22
ENDBRANCH   1  19
TORSDOF 5
ENDMDL
MODEL 7
REMARK VINA RESULT:      -6.8      2.310      3.349
REMARK  5 active torsions:
REMARK  status: ('A' for Active; 'I' for Inactive)
REMARK    1  A    between atoms: C3_3  and  C4_4 
REMARK    2  A    between atoms: C5_6  and  C6_7 
REMARK    3  A    between atoms: C11_14  and  N3_15 
REMARK       I    between atoms: N3_15  and  C12_16 
REMARK    4  A    between atoms: C12_16  and  C13_18 
REMARK    5  A    between atoms: C13_18  and  N4_19 
ROOT
HETATM    1  C6  UNL     1      23.261   3.987  50.043  1.00  0.00     0.072 A 
HETATM    2  N1  UNL     1      22.042   4.568  49.962  1.00  0.00    -0.241 NA
HETATM    3  C7  UNL     1      21.040   4.199  50.802  1.00  0.00     0.234 A 
HETATM    4  N2  UNL     1      21.236   3.233  51.747  1.00  0.00    -0.241 NA
HETATM    5  C8  UNL     1      22.454   2.657  51.826  1.00  0.00     0.070 A 
HETATM    6  C9  UNL     1      22.738   1.682  52.764  1.00  0.00     0.035 A 
HETATM    7  C10 UNL     1      24.007   1.081  52.865  1.00  0.00     0.032 A 
HETATM    8  C11 UNL     1      24.974   1.508  51.981  1.00  0.00     0.035 A 
HETATM    9  C14 UNL     1      24.761   2.487  51.007  1.00  0.00     0.045 A 
HETATM   10  C15 UNL     1      23.490   3.010  50.989  1.00  0.00     0.024 A 
ENDROOT
BRANCH   8  11
HETATM   11  N3  UNL     1      26.267   0.884  52.113  1.00  0.00    -0.326 N 
HETATM   12  C12 UNL     1      27.017   1.464  53.171  1.00  0.00     0.237 C 
HETATM   13  O1  UNL     1      26.617   2.417  53.925  1.00  0.00    -0.272 OA
HETATM   14  H10 UNL     1      26.705   0.104  51.555  1.00  0.00     0.169 HD
BRANCH  12  15
HETATM   15  C13 UNL     1      28.383   0.944  53.456  1.00  0.00     0.225 C 
BRANCH  15  16
HETATM   16  N4  UNL     1      28.787   1.041  54.819  1.00  0.00    -0.154 NA
HETATM   17  F1  UNL     1      28.760  -0.179  55.434  1.00  0.00    -0.136 F 
HETATM   18  H13 UNL     1      28.244   1.692  55.400  1.00  0.00     0.159 HD
ENDBRANCH  15  16
ENDBRANCH  12  15
ENDBRANCH   8  11
BRANCH   1  19
HETATM   19  C5  UNL     1      24.200   4.505  49.067  1.00  0.00     0.051 C 
HETATM   20  C4  UNL     1      24.809   5.645  49.318  1.00  0.00     0.013 C 
HETATM   21 BR1  UNL     1      24.431   6.564  50.978  1.00  0.00    -0.051 Br
BRANCH  20  22
HETATM   22  C3  UNL     1      25.763   6.471  48.650  1.00  0.00     0.015 C 
HETATM   23  C2  UNL     1      27.019   6.548  48.281  1.00  0.00    -0.030 C 
HETATM   24  C1  UNL     1      28.285   5.788  48.331  1.00  0.00     0.036 C 
ENDBRANCH  20  22
ENDBRANCH   1  19
TORSDOF 5
ENDMDL
MODEL 8
REMARK VINA RESULT:      -6.6      3.231      5.365
REMARK  5 active torsions:
REMARK  status: ('A' for Active; 'I' for Inactive)
REMARK    1  A    between atoms: C3_3  and  C4_4 
REMARK    2  A    between atoms: C5_6  and  C6_7 
REMARK    3  A    between atoms: C11_14  and  N3_15 
REMARK       I    between atoms: N3_15  and  C12_16 
REMARK    4  A    between atoms: C12_16  and  C13_18 
REMARK    5  A    between atoms: C13_18  and  N4_19 
ROOT
HETATM    1  C6  UNL     1      26.386   1.864  51.977  1.00  0.00     0.072 A 
HETATM    2  N1  UNL     1      27.568   2.481  52.207  1.00  0.00    -0.241 NA
HETATM    3  C7  UNL     1      28.253   2.260  53.359  1.00  0.00     0.234 A 
HETATM    4  N2  UNL     1      27.767   1.413  54.314  1.00  0.00    -0.241 NA
HETATM    5  C8  UNL     1      26.589   0.798  54.079  1.00  0.00     0.070 A 
HETATM    6  C9  UNL     1      26.036  -0.085  54.988  1.00  0.00     0.035 A 
HETATM    7  C10 UNL     1      24.813  -0.743  54.752  1.00  0.00     0.032 A 
HETATM    8  C11 UNL     1      24.177  -0.470  53.560  1.00  0.00     0.035 A 
HETATM    9  C14 UNL     1      24.674   0.410  52.595  1.00  0.00     0.045 A 
HETATM   10  C15 UNL     1      25.871   1.001  52.921  1.00  0.00     0.024 A 
ENDROOT
BRANCH   8  11
HETATM   11  N3  UNL     1      22.932  -1.164  53.339  1.00  0.00    -0.326 N 
HETATM   12  C12 UNL     1      21.817  -0.310  53.548  1.00  0.00     0.237 C 
HETATM   13  O1  UNL     1      21.883   0.923  53.888  1.00  0.00    -0.272 OA
HETATM   14  H10 UNL     1      22.753  -2.166  53.065  1.00  0.00     0.169 HD
BRANCH  12  15
HETATM   15  C13 UNL     1      20.445  -0.856  53.364  1.00  0.00     0.225 C 
BRANCH  15  16
HETATM   16  N4  UNL     1      19.616  -0.106  52.482  1.00  0.00    -0.154 NA
HETATM   17  F1  UNL     1      18.500  -0.811  52.127  1.00  0.00    -0.136 F 
HETATM   18  H13 UNL     1      20.064   0.218  51.615  1.00  0.00     0.159 HD
ENDBRANCH  15  16
ENDBRANCH  12  15
ENDBRANCH   8  11
BRANCH   1  19
HETATM   19  C5  UNL     1      25.801   2.223  50.700  1.00  0.00     0.051 C 
HETATM   20  C4  UNL     1      24.821   3.102  50.677  1.00  0.00     0.013 C 
HETATM   21 BR1  UNL     1      24.219   3.876  52.345  1.00  0.00    -0.051 Br
BRANCH  20  22
HETATM   22  C3  UNL     1      24.002   3.706  49.676  1.00  0.00     0.015 C 
HETATM   23  C2  UNL     1      23.173   3.448  48.693  1.00  0.00    -0.030 C 
HETATM   24  C1  UNL     1      22.544   2.318  47.980  1.00  0.00     0.036 C 
ENDBRANCH  20  22
ENDBRANCH   1  19
TORSDOF 5
ENDMDL
MODEL 9
REMARK VINA RESULT:      -6.6      3.721      5.666
REMARK  5 active torsions:
REMARK  status: ('A' for Active; 'I' for Inactive)
REMARK    1  A    between atoms: C3_3  and  C4_4 
REMARK    2  A    between atoms: C5_6  and  C6_7 
REMARK    3  A    between atoms: C11_14  and  N3_15 
REMARK       I    between atoms: N3_15  and  C12_16 
REMARK    4  A    between atoms: C12_16  and  C13_18 
REMARK    5  A    between atoms: C13_18  and  N4_19 
ROOT
HETATM    1  C6  UNL     1      24.444   3.379  51.418  1.00  0.00     0.072 A 
HETATM    2  N1  UNL     1      25.228   4.079  50.566  1.00  0.00    -0.241 NA
HETATM    3  C7  UNL     1      26.447   3.606  50.195  1.00  0.00     0.234 A 
HETATM    4  N2  UNL     1      26.911   2.414  50.673  1.00  0.00    -0.241 NA
HETATM    5  C8  UNL     1      26.126   1.717  51.521  1.00  0.00     0.070 A 
HETATM    6  C9  UNL     1      26.517   0.496  52.038  1.00  0.00     0.035 A 
HETATM    7  C10 UNL     1      25.703  -0.246  52.915  1.00  0.00     0.032 A 
HETATM    8  C11 UNL     1      24.480   0.297  53.244  1.00  0.00     0.035 A 
HETATM    9  C14 UNL     1      24.018   1.525  52.762  1.00  0.00     0.045 A 
HETATM   10  C15 UNL     1      24.887   2.171  51.915  1.00  0.00     0.024 A 
ENDROOT
BRANCH   8  11
HETATM   11  N3  UNL     1      23.662  -0.488  54.135  1.00  0.00    -0.326 N 
HETATM   12  C12 UNL     1      22.431  -0.850  53.526  1.00  0.00     0.237 C 
HETATM   13  O1  UNL     1      22.072  -0.534  52.339  1.00  0.00    -0.272 OA
HETATM   14  H10 UNL     1      23.845  -0.804  55.124  1.00  0.00     0.169 HD
BRANCH  12  15
HETATM   15  C13 UNL     1      21.455  -1.666  54.299  1.00  0.00     0.225 C 
BRANCH  15  16
HETATM   16  N4  UNL     1      20.113  -1.193  54.256  1.00  0.00    -0.154 NA
HETATM   17  F1  UNL     1      19.240  -2.198  53.949  1.00  0.00    -0.136 F 
HETATM   18  H13 UNL     1      19.933  -0.419  53.604  1.00  0.00     0.159 HD
ENDBRANCH  15  16
ENDBRANCH  12  15
ENDBRANCH   8  11
BRANCH   1  19
HETATM   19  C5  UNL     1      23.186   4.041  51.701  1.00  0.00     0.051 C 
HETATM   20  C4  UNL     1      22.199   3.919  50.838  1.00  0.00     0.013 C 
HETATM   21 BR1  UNL     1      22.474   2.856  49.245  1.00  0.00    -0.051 Br
BRANCH  20  22
HETATM   22  C3  UNL     1      20.855   4.390  50.737  1.00  0.00     0.015 C 
HETATM   23  C2  UNL     1      19.609   4.099  51.025  1.00  0.00    -0.030 C 
HETATM   24  C1  UNL     1      18.787   3.051  51.663  1.00  0.00     0.036 C 
ENDBRANCH  20  22
ENDBRANCH   1  19
TORSDOF 5
ENDMDL
