MODEL 1
REMARK VINA RESULT:      -8.0      0.000      0.000
REMARK  5 active torsions:
REMARK  status: ('A' for Active; 'I' for Inactive)
REMARK    1  A    between atoms: O1_2  and  C2_3 
REMARK    2  A    between atoms: C5_6  and  N1_7 
REMARK    3  A    between atoms: C9_12  and  N4_15 
REMARK    4  A    between atoms: N4_15  and  C11_16 
REMARK    5  A    between atoms: C13_19  and  C14_20 
ROOT
HETATM    1  C2  UNL     1      23.122  -0.310  53.178  1.00  0.00     0.059 A 
HETATM    2  C3  UNL     1      23.322   1.024  53.101  1.00  0.00     0.088 A 
HETATM    3  C4  UNL     1      24.411   1.931  53.098  1.00  0.00     0.046 A 
HETATM    4  C5  UNL     1      25.382   2.636  53.102  1.00  0.00     0.215 A 
HETATM    5  C6  UNL     1      25.247   1.122  53.207  1.00  0.00     0.047 A 
HETATM    6  C7  UNL     1      24.306   0.238  53.212  1.00  0.00     0.077 A 
HETATM    7  N2  UNL     1      24.960  -0.967  53.348  1.00  0.00    -0.389 N 
HETATM    8  C8  UNL     1      26.305  -0.660  53.416  1.00  0.00     0.199 A 
HETATM    9  C9  UNL     1      27.283   0.569  53.131  1.00  0.00     0.402 A 
HETATM   10  N3  UNL     1      28.518   0.446  53.328  1.00  0.00     0.218 N 
HETATM   11  C10 UNL     1      29.656  -0.007  53.626  1.00  0.00     0.534 A 
HETATM   12  N4  UNL     1      28.460  -0.247  53.553  1.00  0.00     0.218 N 
HETATM   13  C11 UNL     1      27.270  -0.428  53.465  1.00  0.00     0.459 A 
HETATM   14  O2  UNL     1      25.858  -0.073  53.347  1.00  0.00     0.000 OA
HETATM   15  C12 UNL     1      26.958   1.922  52.516  1.00  0.00     0.086 C 
HETATM   16  C13 UNL     1      25.575   1.996  52.013  1.00  0.00     0.024 A 
HETATM   17  H7  UNL     1      25.129  -2.021  53.447  1.00  0.00     0.155 HD
ENDROOT
BRANCH   4  18
HETATM   18  N1  UNL     1      24.313   3.667  53.204  1.00  0.00     0.092 N 
HETATM   19  H5  UNL     1      23.234   3.870  53.195  1.00  0.00     0.314 HD
HETATM   20  H6  UNL     1      23.263   3.892  53.201  1.00  0.00     0.314 HD
ENDBRANCH   4  18
BRANCH  16  21
HETATM   21  C14 UNL     1      25.406   3.206  51.160  1.00  0.00     0.091 C 
HETATM   22 BR1  UNL     1      26.490   3.314  49.610  1.00  0.00    -0.096 Br
ENDBRANCH  16  21
BRANCH   1  23
HETATM   23  O1  UNL     1      21.982  -1.038  53.150  1.00  0.00    -0.361 OA
HETATM   24  C1  UNL     1      21.512  -1.635  54.376  1.00  0.00     0.209 C 
ENDBRANCH   1  23
TORSDOF 5
ENDMDL
MODEL 2
REMARK VINA RESULT:      -7.5      2.097      3.577
REMARK  5 active torsions:
REMARK  status: ('A' for Active; 'I' for Inactive)
REMARK    1  A    between atoms: O1_2  and  C2_3 
REMARK    2  A    between atoms: C5_6  and  N1_7 
REMARK    3  A    between atoms: C9_12  and  N4_15 
REMARK    4  A    between atoms: N4_15  and  C11_16 
REMARK    5  A    between atoms: C13_19  and  C14_20 
ROOT
HETATM    1  C2  UNL     1      22.986   0.201  53.515  1.00  0.00     0.059 A 
HETATM    2  C3  UNL     1      24.149  -0.484  53.564  1.00  0.00     0.088 A 
HETATM    3  C4  UNL     1      25.457  -0.386  53.027  1.00  0.00     0.046 A 
HETATM    4  C5  UNL     1      26.541  -0.236  52.536  1.00  0.00     0.215 A 
HETATM    5  C6  UNL     1      25.266   0.590  52.414  1.00  0.00     0.047 A 
HETATM    6  C7  UNL     1      24.058   0.568  52.869  1.00  0.00     0.077 A 
HETATM    7  N2  UNL     1      23.454   1.669  52.304  1.00  0.00    -0.389 N 
HETATM    8  C8  UNL     1      24.420   2.271  51.523  1.00  0.00     0.199 A 
HETATM    9  C9  UNL     1      26.001   2.230  51.305  1.00  0.00     0.402 A 
HETATM   10  N3  UNL     1      26.535   2.976  50.447  1.00  0.00     0.218 N 
HETATM   11  C10 UNL     1      26.730   3.824  49.535  1.00  0.00     0.534 A 
HETATM   12  N4  UNL     1      25.899   3.273  50.242  1.00  0.00     0.218 N 
HETATM   13  C11 UNL     1      25.123   2.696  50.963  1.00  0.00     0.459 A 
HETATM   14  O2  UNL     1      24.644   1.657  51.871  1.00  0.00     0.000 OA
HETATM   15  C12 UNL     1      27.051   1.461  52.093  1.00  0.00     0.086 C 
HETATM   16  C13 UNL     1      26.490   0.798  53.284  1.00  0.00     0.024 A 
HETATM   17  H7  UNL     1      22.705   2.395  52.052  1.00  0.00     0.155 HD
ENDROOT
BRANCH   4  18
HETATM   18  N1  UNL     1      26.708  -1.595  53.120  1.00  0.00     0.092 N 
HETATM   19  H5  UNL     1      26.211  -2.525  53.429  1.00  0.00     0.314 HD
HETATM   20  H6  UNL     1      26.247  -2.515  53.428  1.00  0.00     0.314 HD
ENDBRANCH   4  18
BRANCH  16  21
HETATM   21  C14 UNL     1      27.590   0.328  54.172  1.00  0.00     0.091 C 
HETATM   22 BR1  UNL     1      29.144   1.408  54.249  1.00  0.00    -0.096 Br
ENDBRANCH  16  21
BRANCH   1  23
HETATM   23  O1  UNL     1      21.797  -0.027  54.119  1.00  0.00    -0.361 OA
HETATM   24  C1  UNL     1      20.626  -0.211  53.295  1.00  0.00     0.209 C 
ENDBRANCH   1  23
TORSDOF 5
ENDMDL
MODEL 3
REMARK VINA RESULT:      -7.4      2.465      4.596
REMARK  5 active torsions:
REMARK  status: ('A' for Active; 'I' for Inactive)
REMARK    1  A    between atoms: O1_2  and  C2_3 
REMARK    2  A    between atoms: C5_6  and  N1_7 
REMARK    3  A    between atoms: C9_12  and  N4_15 
REMARK    4  A    between atoms: N4_15  and  C11_16 
REMARK    5  A    between atoms: C13_19  and  C14_20 
ROOT
HETATM    1  C2  UNL     1      24.377   2.878  50.431  1.00  0.00     0.059 A 
HETATM    2  C3  UNL     1      25.297   2.845  51.419  1.00  0.00     0.088 A 
HETATM    3  C4  UNL     1      25.514   2.156  52.639  1.00  0.00     0.046 A 
HETATM    4  C5  UNL     1      25.629   1.533  53.658  1.00  0.00     0.215 A 
HETATM    5  C6  UNL     1      24.538   1.516  52.595  1.00  0.00     0.047 A 
HETATM    6  C7  UNL     1      24.277   2.100  51.473  1.00  0.00     0.077 A 
HETATM    7  N2  UNL     1      23.075   1.562  51.071  1.00  0.00    -0.389 N 
HETATM    8  C8  UNL     1      22.719   0.658  52.054  1.00  0.00     0.199 A 
HETATM    9  C9  UNL     1      23.371  -0.098  53.298  1.00  0.00     0.402 A 
HETATM   10  N3  UNL     1      22.677  -0.888  53.986  1.00  0.00     0.218 N 
HETATM   11  C10 UNL     1      21.728  -1.580  54.442  1.00  0.00     0.534 A 
HETATM   12  N4  UNL     1      22.075  -0.780  53.586  1.00  0.00     0.218 N 
HETATM   13  C11 UNL     1      22.472   0.011  52.766  1.00  0.00     0.459 A 
HETATM   14  O2  UNL     1      23.358   1.013  52.178  1.00  0.00     0.000 OA
HETATM   15  C12 UNL     1      24.823  -0.103  53.755  1.00  0.00     0.086 C 
HETATM   16  C13 UNL     1      25.716   0.586  52.806  1.00  0.00     0.024 A 
HETATM   17  H7  UNL     1      22.195   1.373  50.488  1.00  0.00     0.155 HD
ENDROOT
BRANCH   4  18
HETATM   18  N1  UNL     1      26.737   2.514  53.827  1.00  0.00     0.092 N 
HETATM   19  H5  UNL     1      27.386   3.046  54.535  1.00  0.00     0.314 HD
HETATM   20  H6  UNL     1      27.385   3.046  54.498  1.00  0.00     0.314 HD
ENDBRANCH   4  18
BRANCH  16  21
HETATM   21  C14 UNL     1      27.138   0.290  53.137  1.00  0.00     0.091 C 
HETATM   22 BR1  UNL     1      27.711  -1.502  52.909  1.00  0.00    -0.096 Br
ENDBRANCH  16  21
BRANCH   1  23
HETATM   23  O1  UNL     1      24.327   3.606  49.291  1.00  0.00    -0.361 OA
HETATM   24  C1  UNL     1      23.103   4.299  48.966  1.00  0.00     0.209 C 
ENDBRANCH   1  23
TORSDOF 5
ENDMDL
MODEL 4
REMARK VINA RESULT:      -7.3      1.870      4.400
REMARK  5 active torsions:
REMARK  status: ('A' for Active; 'I' for Inactive)
REMARK    1  A    between atoms: O1_2  and  C2_3 
REMARK    2  A    between atoms: C5_6  and  N1_7 
REMARK    3  A    between atoms: C9_12  and  N4_15 
REMARK    4  A    between atoms: N4_15  and  C11_16 
REMARK    5  A    between atoms: C13_19  and  C14_20 
ROOT
HETATM    1  C2  UNL     1      27.603   0.200  53.977  1.00  0.00     0.059 A 
HETATM    2  C3  UNL     1      27.134   0.961  52.963  1.00  0.00     0.088 A 
HETATM    3  C4  UNL     1      25.893   1.243  52.342  1.00  0.00     0.046 A 
HETATM    4  C5  UNL     1      24.807   1.433  51.867  1.00  0.00     0.215 A 
HETATM    5  C6  UNL     1      25.252   0.536  53.016  1.00  0.00     0.047 A 
HETATM    6  C7  UNL     1      26.345   0.235  53.633  1.00  0.00     0.077 A 
HETATM    7  N2  UNL     1      25.963  -0.676  54.593  1.00  0.00    -0.389 N 
HETATM    8  C8  UNL     1      24.599  -0.836  54.440  1.00  0.00     0.199 A 
HETATM    9  C9  UNL     1      23.371  -0.125  53.711  1.00  0.00     0.402 A 
HETATM   10  N3  UNL     1      22.214  -0.604  53.820  1.00  0.00     0.218 N 
HETATM   11  C10 UNL     1      21.229  -1.327  54.127  1.00  0.00     0.534 A 
HETATM   12  N4  UNL     1      22.434  -1.158  54.243  1.00  0.00     0.218 N 
HETATM   13  C11 UNL     1      23.618  -0.943  54.321  1.00  0.00     0.459 A 
HETATM   14  O2  UNL     1      24.910  -0.363  53.961  1.00  0.00     0.000 OA
HETATM   15  C12 UNL     1      23.350   1.188  52.942  1.00  0.00     0.086 C 
HETATM   16  C13 UNL     1      24.628   1.917  53.035  1.00  0.00     0.024 A 
HETATM   17  H7  UNL     1      26.019  -1.375  55.405  1.00  0.00     0.155 HD
ENDROOT
BRANCH   4  18
HETATM   18  N1  UNL     1      25.653   2.140  50.866  1.00  0.00     0.092 N 
HETATM   19  H5  UNL     1      26.285   2.044  49.973  1.00  0.00     0.314 HD
HETATM   20  H6  UNL     1      26.274   2.074  49.993  1.00  0.00     0.314 HD
ENDBRANCH   4  18
BRANCH  16  21
HETATM   21  C14 UNL     1      24.458   3.310  52.535  1.00  0.00     0.091 C 
HETATM   22 BR1  UNL     1      22.683   3.959  52.405  1.00  0.00    -0.096 Br
ENDBRANCH  16  21
BRANCH   1  23
HETATM   23  O1  UNL     1      28.855   0.052  54.467  1.00  0.00    -0.361 OA
HETATM   24  C1  UNL     1      29.749  -0.874  53.815  1.00  0.00     0.209 C 
ENDBRANCH   1  23
TORSDOF 5
ENDMDL
MODEL 5
REMARK VINA RESULT:      -7.2      2.467      4.063
REMARK  5 active torsions:
REMARK  status: ('A' for Active; 'I' for Inactive)
REMARK    1  A    between atoms: O1_2  and  C2_3 
REMARK    2  A    between atoms: C5_6  and  N1_7 
REMARK    3  A    between atoms: C9_12  and  N4_15 
REMARK    4  A    between atoms: N4_15  and  C11_16 
REMARK    5  A    between atoms: C13_19  and  C14_20 
ROOT
HETATM    1  C2  UNL     1      25.870  -0.340  52.919  1.00  0.00     0.059 A 
HETATM    2  C3  UNL     1      24.605   0.126  53.016  1.00  0.00     0.088 A 
HETATM    3  C4  UNL     1      23.840   1.214  52.528  1.00  0.00     0.046 A 
HETATM    4  C5  UNL     1      23.256   2.160  52.076  1.00  0.00     0.215 A 
HETATM    5  C6  UNL     1      24.706   1.714  51.924  1.00  0.00     0.047 A 
HETATM    6  C7  UNL     1      25.462   0.748  52.326  1.00  0.00     0.077 A 
HETATM    7  N2  UNL     1      26.694   1.017  51.772  1.00  0.00    -0.389 N 
HETATM    8  C8  UNL     1      26.538   2.187  51.054  1.00  0.00     0.199 A 
HETATM    9  C9  UNL     1      25.368   3.114  50.488  1.00  0.00     0.402 A 
HETATM   10  N3  UNL     1      25.649   4.157  49.846  1.00  0.00     0.218 N 
HETATM   11  C10 UNL     1      26.266   5.093  49.271  1.00  0.00     0.534 A 
HETATM   12  N4  UNL     1      26.371   4.055  49.908  1.00  0.00     0.218 N 
HETATM   13  C11 UNL     1      26.414   3.029  50.541  1.00  0.00     0.459 A 
HETATM   14  O2  UNL     1      25.926   1.954  51.401  1.00  0.00     0.000 OA
HETATM   15  C12 UNL     1      23.866   2.869  50.507  1.00  0.00     0.086 C 
HETATM   16  C13 UNL     1      23.519   1.525  51.000  1.00  0.00     0.024 A 
HETATM   17  H7  UNL     1      27.733   0.926  51.522  1.00  0.00     0.155 HD
ENDROOT
BRANCH   4  18
HETATM   18  N1  UNL     1      22.231   1.657  53.031  1.00  0.00     0.092 N 
HETATM   19  H5  UNL     1      21.951   1.522  54.085  1.00  0.00     0.314 HD
HETATM   20  H6  UNL     1      21.933   1.515  54.053  1.00  0.00     0.314 HD
ENDBRANCH   4  18
BRANCH  16  21
HETATM   21  C14 UNL     1      22.087   1.230  50.711  1.00  0.00     0.091 C 
HETATM   22 BR1  UNL     1      21.564   1.240  48.891  1.00  0.00    -0.096 Br
ENDBRANCH  16  21
BRANCH   1  23
HETATM   23  O1  UNL     1      26.452  -1.438  53.453  1.00  0.00    -0.361 OA
HETATM   24  C1  UNL     1      27.189  -2.322  52.582  1.00  0.00     0.209 C 
ENDBRANCH   1  23
TORSDOF 5
ENDMDL
MODEL 6
REMARK VINA RESULT:      -7.1      1.331      1.515
REMARK  5 active torsions:
REMARK  status: ('A' for Active; 'I' for Inactive)
REMARK    1  A    between atoms: O1_2  and  C2_3 
REMARK    2  A    between atoms: C5_6  and  N1_7 
REMARK    3  A    between atoms: C9_12  and  N4_15 
REMARK    4  A    between atoms: N4_15  and  C11_16 
REMARK    5  A    between atoms: C13_19  and  C14_20 
ROOT
HETATM    1  C2  UNL     1      21.812   0.759  53.178  1.00  0.00     0.059 A 
HETATM    2  C3  UNL     1      22.411   1.957  52.998  1.00  0.00     0.088 A 
HETATM    3  C4  UNL     1      23.723   2.469  52.841  1.00  0.00     0.046 A 
HETATM    4  C5  UNL     1      24.861   2.829  52.714  1.00  0.00     0.215 A 
HETATM    5  C6  UNL     1      24.270   1.441  52.928  1.00  0.00     0.047 A 
HETATM    6  C7  UNL     1      23.105   0.903  53.072  1.00  0.00     0.077 A 
HETATM    7  N2  UNL     1      23.360  -0.442  53.228  1.00  0.00    -0.389 N 
HETATM    8  C8  UNL     1      24.733  -0.576  53.158  1.00  0.00     0.199 A 
HETATM    9  C9  UNL     1      26.011   0.267  52.709  1.00  0.00     0.402 A 
HETATM   10  N3  UNL     1      27.159  -0.236  52.804  1.00  0.00     0.218 N 
HETATM   11  C10 UNL     1      28.122  -1.017  53.029  1.00  0.00     0.534 A 
HETATM   12  N4  UNL     1      26.910  -0.866  53.078  1.00  0.00     0.218 N 
HETATM   13  C11 UNL     1      25.722  -0.662  53.106  1.00  0.00     0.459 A 
HETATM   14  O2  UNL     1      24.487   0.120  53.090  1.00  0.00     0.000 OA
HETATM   15  C12 UNL     1      26.064   1.632  52.039  1.00  0.00     0.086 C 
HETATM   16  C13 UNL     1      24.729   2.125  51.656  1.00  0.00     0.024 A 
HETATM   17  H7  UNL     1      23.199  -1.492  53.379  1.00  0.00     0.155 HD
ENDROOT
BRANCH   4  18
HETATM   18  N1  UNL     1      24.185   4.150  52.843  1.00  0.00     0.092 N 
HETATM   19  H5  UNL     1      24.305   5.242  52.843  1.00  0.00     0.314 HD
HETATM   20  H6  UNL     1      24.274   5.220  52.845  1.00  0.00     0.314 HD
ENDBRANCH   4  18
BRANCH  16  21
HETATM   21  C14 UNL     1      24.860   3.297  50.745  1.00  0.00     0.091 C 
HETATM   22 BR1  UNL     1      26.444   3.400  49.710  1.00  0.00    -0.096 Br
ENDBRANCH  16  21
BRANCH   1  23
HETATM   23  O1  UNL     1      20.506   0.431  53.297  1.00  0.00    -0.361 OA
HETATM   24  C1  UNL     1      19.779   0.040  52.113  1.00  0.00     0.209 C 
ENDBRANCH   1  23
TORSDOF 5
ENDMDL
MODEL 7
REMARK VINA RESULT:      -7.0      3.034      4.365
REMARK  5 active torsions:
REMARK  status: ('A' for Active; 'I' for Inactive)
REMARK    1  A    between atoms: O1_2  and  C2_3 
REMARK    2  A    between atoms: C5_6  and  N1_7 
REMARK    3  A    between atoms: C9_12  and  N4_15 
REMARK    4  A    between atoms: N4_15  and  C11_16 
REMARK    5  A    between atoms: C13_19  and  C14_20 
ROOT
HETATM    1  C2  UNL     1      22.938   4.308  52.126  1.00  0.00     0.059 A 
HETATM    2  C3  UNL     1      22.354   3.148  51.751  1.00  0.00     0.088 A 
HETATM    3  C4  UNL     1      22.608   1.758  51.851  1.00  0.00     0.046 A 
HETATM    4  C5  UNL     1      22.889   0.598  51.975  1.00  0.00     0.215 A 
HETATM    5  C6  UNL     1      23.621   1.857  52.424  1.00  0.00     0.047 A 
HETATM    6  C7  UNL     1      23.454   3.136  52.375  1.00  0.00     0.077 A 
HETATM    7  N2  UNL     1      24.563   3.656  53.005  1.00  0.00    -0.389 N 
HETATM    8  C8  UNL     1      25.324   2.569  53.387  1.00  0.00     0.199 A 
HETATM    9  C9  UNL     1      25.183   0.987  53.548  1.00  0.00     0.402 A 
HETATM   10  N3  UNL     1      26.162   0.308  53.946  1.00  0.00     0.218 N 
HETATM   11  C10 UNL     1      27.300  -0.051  54.351  1.00  0.00     0.534 A 
HETATM   12  N4  UNL     1      26.600   0.890  54.008  1.00  0.00     0.218 N 
HETATM   13  C11 UNL     1      25.864   1.780  53.658  1.00  0.00     0.459 A 
HETATM   14  O2  UNL     1      24.699   2.396  53.030  1.00  0.00     0.000 OA
HETATM   15  C12 UNL     1      23.942   0.121  53.389  1.00  0.00     0.086 C 
HETATM   16  C13 UNL     1      22.718   0.918  53.199  1.00  0.00     0.024 A 
HETATM   17  H7  UNL     1      25.259   4.367  53.407  1.00  0.00     0.155 HD
ENDROOT
BRANCH   4  18
HETATM   18  N1  UNL     1      21.732   0.485  51.044  1.00  0.00     0.092 N 
HETATM   19  H5  UNL     1      20.641   0.411  50.947  1.00  0.00     0.314 HD
HETATM   20  H6  UNL     1      20.668   0.414  50.921  1.00  0.00     0.314 HD
ENDBRANCH   4  18
BRANCH  16  21
HETATM   21  C14 UNL     1      21.515   0.053  53.357  1.00  0.00     0.091 C 
HETATM   22 BR1  UNL     1      21.593  -1.276  54.705  1.00  0.00    -0.096 Br
ENDBRANCH  16  21
BRANCH   1  23
HETATM   23  O1  UNL     1      22.544   5.591  51.961  1.00  0.00    -0.361 OA
HETATM   24  C1  UNL     1      23.289   6.433  51.056  1.00  0.00     0.209 C 
ENDBRANCH   1  23
TORSDOF 5
ENDMDL
MODEL 8
REMARK VINA RESULT:      -6.9      2.728      3.871
REMARK  5 active torsions:
REMARK  status: ('A' for Active; 'I' for Inactive)
REMARK    1  A    between atoms: O1_2  and  C2_3 
REMARK    2  A    between atoms: C5_6  and  N1_7 
REMARK    3  A    between atoms: C9_12  and  N4_15 
REMARK    4  A    between atoms: N4_15  and  C11_16 
REMARK    5  A    between atoms: C13_19  and  C14_20 
ROOT
HETATM    1  C2  UNL     1      19.299  -0.321  53.022  1.00  0.00     0.059 A 
HETATM    2  C3  UNL     1      19.703   0.866  52.519  1.00  0.00     0.088 A 
HETATM    3  C4  UNL     1      20.907   1.600  52.379  1.00  0.00     0.046 A 
HETATM    4  C5  UNL     1      21.965   2.161  52.296  1.00  0.00     0.215 A 
HETATM    5  C6  UNL     1      21.594   0.811  52.899  1.00  0.00     0.047 A 
HETATM    6  C7  UNL     1      20.538   0.085  53.057  1.00  0.00     0.077 A 
HETATM    7  N2  UNL     1      20.986  -1.042  53.710  1.00  0.00    -0.389 N 
HETATM    8  C8  UNL     1      22.344  -0.862  53.887  1.00  0.00     0.199 A 
HETATM    9  C9  UNL     1      23.520   0.077  53.357  1.00  0.00     0.402 A 
HETATM   10  N3  UNL     1      24.691  -0.083  53.784  1.00  0.00     0.218 N 
HETATM   11  C10 UNL     1      25.705  -0.502  54.404  1.00  0.00     0.534 A 
HETATM   12  N4  UNL     1      24.504  -0.636  54.224  1.00  0.00     0.218 N 
HETATM   13  C11 UNL     1      23.320  -0.722  54.010  1.00  0.00     0.459 A 
HETATM   14  O2  UNL     1      22.000  -0.301  53.545  1.00  0.00     0.000 OA
HETATM   15  C12 UNL     1      23.475   1.135  52.264  1.00  0.00     0.086 C 
HETATM   16  C13 UNL     1      22.188   1.151  51.547  1.00  0.00     0.024 A 
HETATM   17  H7  UNL     1      20.983  -1.998  54.197  1.00  0.00     0.155 HD
ENDROOT
BRANCH   4  18
HETATM   18  N1  UNL     1      21.056   3.255  51.856  1.00  0.00     0.092 N 
HETATM   19  H5  UNL     1      20.392   4.073  52.167  1.00  0.00     0.314 HD
HETATM   20  H6  UNL     1      20.403   4.062  52.133  1.00  0.00     0.314 HD
ENDBRANCH   4  18
BRANCH  16  21
HETATM   21  C14 UNL     1      22.303   1.974  50.310  1.00  0.00     0.091 C 
HETATM   22 BR1  UNL     1      21.525   1.262  48.737  1.00  0.00    -0.096 Br
ENDBRANCH  16  21
BRANCH   1  23
HETATM   23  O1  UNL     1      18.075  -0.896  53.062  1.00  0.00    -0.361 OA
HETATM   24  C1  UNL     1      17.948  -2.214  53.636  1.00  0.00     0.209 C 
ENDBRANCH   1  23
TORSDOF 5
ENDMDL
MODEL 9
REMARK VINA RESULT:      -6.8      2.173      4.508
REMARK  5 active torsions:
REMARK  status: ('A' for Active; 'I' for Inactive)
REMARK    1  A    between atoms: O1_2  and  C2_3 
REMARK    2  A    between atoms: C5_6  and  N1_7 
REMARK    3  A    between atoms: C9_12  and  N4_15 
REMARK    4  A    between atoms: N4_15  and  C11_16 
REMARK    5  A    between atoms: C13_19  and  C14_20 
ROOT
HETATM    1  C2  UNL     1      27.190   1.647  53.541  1.00  0.00     0.059 A 
HETATM    2  C3  UNL     1      27.168   2.258  52.336  1.00  0.00     0.088 A 
HETATM    3  C4  UNL     1      26.254   2.461  51.272  1.00  0.00     0.046 A 
HETATM    4  C5  UNL     1      25.427   2.592  50.412  1.00  0.00     0.215 A 
HETATM    5  C6  UNL     1      25.371   1.866  51.751  1.00  0.00     0.047 A 
HETATM    6  C7  UNL     1      26.146   1.645  52.759  1.00  0.00     0.077 A 
HETATM    7  N2  UNL     1      25.386   0.887  53.623  1.00  0.00    -0.389 N 
HETATM    8  C8  UNL     1      24.163   0.722  53.004  1.00  0.00     0.199 A 
HETATM    9  C9  UNL     1      23.327   1.334  51.789  1.00  0.00     0.402 A 
HETATM   10  N3  UNL     1      22.182   0.888  51.529  1.00  0.00     0.218 N 
HETATM   11  C10 UNL     1      21.109   0.228  51.546  1.00  0.00     0.534 A 
HETATM   12  N4  UNL     1      22.199   0.399  52.072  1.00  0.00     0.218 N 
HETATM   13  C11 UNL     1      23.286   0.609  52.549  1.00  0.00     0.459 A 
HETATM   14  O2  UNL     1      24.654   1.117  52.614  1.00  0.00     0.000 OA
HETATM   15  C12 UNL     1      23.669   2.521  50.901  1.00  0.00     0.086 C 
HETATM   16  C13 UNL     1      24.870   3.242  51.359  1.00  0.00     0.024 A 
HETATM   17  H7  UNL     1      25.102   0.313  54.483  1.00  0.00     0.155 HD
ENDROOT
BRANCH   4  18
HETATM   18  N1  UNL     1      26.620   3.137  49.708  1.00  0.00     0.092 N 
HETATM   19  H5  UNL     1      27.040   3.975  49.135  1.00  0.00     0.314 HD
HETATM   20  H6  UNL     1      27.056   3.943  49.147  1.00  0.00     0.314 HD
ENDBRANCH   4  18
BRANCH  16  21
HETATM   21  C14 UNL     1      24.980   4.550  50.655  1.00  0.00     0.091 C 
HETATM   22 BR1  UNL     1      23.799   5.922  51.214  1.00  0.00    -0.096 Br
ENDBRANCH  16  21
BRANCH   1  23
HETATM   23  O1  UNL     1      28.169   1.558  54.471  1.00  0.00    -0.361 OA
HETATM   24  C1  UNL     1      28.651   0.250  54.846  1.00  0.00     0.209 C 
ENDBRANCH   1  23
TORSDOF 5
ENDMDL
