MODEL 1
REMARK VINA RESULT:      -8.2      0.000      0.000
REMARK  4 active torsions:
REMARK  status: ('A' for Active; 'I' for Inactive)
REMARK    1  A    between atoms: C5_6  and  N1_7 
REMARK    2  A    between atoms: N1_7  and  C6_8 
REMARK    3  A    between atoms: C8_10  and  C9_11 
REMARK    4  A    between atoms: C9_11  and  N2_12 
ROOT
HETATM    1  C6  UNL     1      25.661  -0.033  53.942  1.00  0.00     0.127 C 
HETATM    2  C7  UNL     1      26.072   1.208  53.869  1.00  0.00     0.049 C 
HETATM    3  C8  UNL     1      26.961   2.204  53.191  1.00  0.00     0.115 C 
HETATM    4  N3  UNL     1      28.330   1.964  53.442  1.00  0.00    -0.411 NA
HETATM    5  C14 UNL     1      28.958   0.862  53.542  1.00  0.00     0.294 C 
HETATM    6  C15 UNL     1      29.584  -0.443  53.636  1.00  0.00     0.136 C 
HETATM    7  N4  UNL     1      28.847  -1.502  53.465  1.00  0.00    -0.253 NA
HETATM    8  C16 UNL     1      27.461  -1.256  53.193  1.00  0.00     0.234 C 
HETATM    9  N5  UNL     1      26.227  -0.972  53.030  1.00  0.00    -0.225 NA
ENDROOT
BRANCH   1  10
HETATM   10  N1  UNL     1      24.778  -0.890  54.658  1.00  0.00    -0.341 N 
HETATM   11  H4  UNL     1      25.164  -1.473  55.430  1.00  0.00     0.167 HD
BRANCH  10  12
HETATM   12  C5  UNL     1      23.463  -0.736  54.102  1.00  0.00     0.034 A 
HETATM   13  C4  UNL     1      22.522  -1.214  55.018  1.00  0.00     0.029 A 
HETATM   14  C3  UNL     1      21.171  -1.179  54.720  1.00  0.00     0.004 A 
HETATM   15  C2  UNL     1      20.760  -0.668  53.516  1.00  0.00     0.019 A 
HETATM   16  C1  UNL     1      21.699  -0.203  52.625  1.00  0.00     0.013 A 
HETATM   17 BR1  UNL     1      21.239   0.531  50.913  1.00  0.00    -0.051 Br
HETATM   18  C17 UNL     1      23.029  -0.226  52.892  1.00  0.00     0.048 A 
ENDBRANCH  10  12
ENDBRANCH   1  10
BRANCH   3  19
HETATM   19  C9  UNL     1      26.606   2.161  51.735  1.00  0.00     0.147 C 
BRANCH  19  20
HETATM   20  N2  UNL     1      25.897   3.280  51.319  1.00  0.00    -0.386 N 
HETATM   21  C10 UNL     1      24.599   3.576  51.757  1.00  0.00     0.148 C 
HETATM   22  C11 UNL     1      23.678   3.171  50.643  1.00  0.00     0.017 C 
HETATM   23  C12 UNL     1      24.147   3.084  49.388  1.00  0.00     0.134 C 
HETATM   24  O1  UNL     1      25.470   3.358  49.066  1.00  0.00    -0.344 OA
HETATM   25  C13 UNL     1      26.292   3.897  50.087  1.00  0.00     0.294 C 
ENDBRANCH  19  20
ENDBRANCH   3  19
TORSDOF 4
ENDMDL
MODEL 2
REMARK VINA RESULT:      -8.0      2.216      5.058
REMARK  4 active torsions:
REMARK  status: ('A' for Active; 'I' for Inactive)
REMARK    1  A    between atoms: C5_6  and  N1_7 
REMARK    2  A    between atoms: N1_7  and  C6_8 
REMARK    3  A    between atoms: C8_10  and  C9_11 
REMARK    4  A    between atoms: C9_11  and  N2_12 
ROOT
HETATM    1  C6  UNL     1      25.981   1.858  52.324  1.00  0.00     0.127 C 
HETATM    2  C7  UNL     1      25.687   0.584  52.245  1.00  0.00     0.049 C 
HETATM    3  C8  UNL     1      25.513  -0.717  52.965  1.00  0.00     0.115 C 
HETATM    4  N3  UNL     1      26.732  -1.222  53.467  1.00  0.00    -0.411 NA
HETATM    5  C14 UNL     1      27.721  -0.606  53.978  1.00  0.00     0.294 C 
HETATM    6  C15 UNL     1      28.795   0.187  54.547  1.00  0.00     0.136 C 
HETATM    7  N4  UNL     1      28.642   1.477  54.627  1.00  0.00    -0.253 NA
HETATM    8  C16 UNL     1      27.397   1.987  54.134  1.00  0.00     0.234 C 
HETATM    9  N5  UNL     1      26.302   2.383  53.610  1.00  0.00    -0.225 NA
ENDROOT
BRANCH   1  10
HETATM   10  N1  UNL     1      26.118   3.036  51.538  1.00  0.00    -0.341 N 
HETATM   11  H4  UNL     1      27.057   3.481  51.463  1.00  0.00     0.167 HD
BRANCH  10  12
HETATM   12  C5  UNL     1      24.830   3.358  50.991  1.00  0.00     0.034 A 
HETATM   13  C4  UNL     1      24.954   3.547  49.612  1.00  0.00     0.029 A 
HETATM   14  C3  UNL     1      23.848   3.869  48.845  1.00  0.00     0.004 A 
HETATM   15  C2  UNL     1      22.624   4.001  49.449  1.00  0.00     0.019 A 
HETATM   16  C1  UNL     1      22.519   3.813  50.807  1.00  0.00     0.013 A 
HETATM   17 BR1  UNL     1      20.861   3.972  51.758  1.00  0.00    -0.051 Br
HETATM   18  C17 UNL     1      23.587   3.496  51.583  1.00  0.00     0.048 A 
ENDBRANCH  10  12
ENDBRANCH   1  10
BRANCH   3  19
HETATM   19  C9  UNL     1      24.486  -0.474  54.030  1.00  0.00     0.147 C 
BRANCH  19  20
HETATM   20  N2  UNL     1      23.217  -0.899  53.663  1.00  0.00    -0.386 N 
HETATM   21  C10 UNL     1      22.431  -0.243  52.706  1.00  0.00     0.148 C 
HETATM   22  C11 UNL     1      21.419   0.558  53.471  1.00  0.00     0.017 C 
HETATM   23  C12 UNL     1      21.101   0.205  54.728  1.00  0.00     0.134 C 
HETATM   24  O1  UNL     1      21.676  -0.887  55.364  1.00  0.00    -0.344 OA
HETATM   25  C13 UNL     1      22.503  -1.734  54.585  1.00  0.00     0.294 C 
ENDBRANCH  19  20
ENDBRANCH   3  19
TORSDOF 4
ENDMDL
MODEL 3
REMARK VINA RESULT:      -7.6      2.271      4.750
REMARK  4 active torsions:
REMARK  status: ('A' for Active; 'I' for Inactive)
REMARK    1  A    between atoms: C5_6  and  N1_7 
REMARK    2  A    between atoms: N1_7  and  C6_8 
REMARK    3  A    between atoms: C8_10  and  C9_11 
REMARK    4  A    between atoms: C9_11  and  N2_12 
ROOT
HETATM    1  C6  UNL     1      23.924   1.742  51.560  1.00  0.00     0.127 C 
HETATM    2  C7  UNL     1      25.179   1.368  51.553  1.00  0.00     0.049 C 
HETATM    3  C8  UNL     1      26.608   1.746  51.794  1.00  0.00     0.115 C 
HETATM    4  N3  UNL     1      27.080   2.694  50.859  1.00  0.00    -0.411 NA
HETATM    5  C14 UNL     1      26.482   3.686  50.333  1.00  0.00     0.294 C 
HETATM    6  C15 UNL     1      25.716   4.792  49.790  1.00  0.00     0.136 C 
HETATM    7  N4  UNL     1      24.489   4.957  50.192  1.00  0.00    -0.253 NA
HETATM    8  C16 UNL     1      24.017   4.005  51.154  1.00  0.00     0.234 C 
HETATM    9  N5  UNL     1      23.634   3.082  51.949  1.00  0.00    -0.225 NA
ENDROOT
BRANCH   1  10
HETATM   10  N1  UNL     1      22.605   1.274  51.300  1.00  0.00    -0.341 N 
HETATM   11  H4  UNL     1      22.136   1.565  50.417  1.00  0.00     0.167 HD
BRANCH  10  12
HETATM   12  C5  UNL     1      22.202   0.446  52.403  1.00  0.00     0.034 A 
HETATM   13  C4  UNL     1      20.820   0.247  52.343  1.00  0.00     0.029 A 
HETATM   14  C3  UNL     1      20.179  -0.521  53.299  1.00  0.00     0.004 A 
HETATM   15  C2  UNL     1      20.912  -1.089  54.309  1.00  0.00     0.019 A 
HETATM   16  C1  UNL     1      22.270  -0.883  54.354  1.00  0.00     0.013 A 
HETATM   17 BR1  UNL     1      23.394  -1.628  55.719  1.00  0.00    -0.051 Br
HETATM   18  C17 UNL     1      22.924  -0.135  53.429  1.00  0.00     0.048 A 
ENDBRANCH  10  12
ENDBRANCH   1  10
BRANCH   3  19
HETATM   19  C9  UNL     1      26.683   2.221  53.214  1.00  0.00     0.147 C 
BRANCH  19  20
HETATM   20  N2  UNL     1      27.383   1.350  54.038  1.00  0.00    -0.386 N 
HETATM   21  C10 UNL     1      28.754   1.096  53.902  1.00  0.00     0.148 C 
HETATM   22  C11 UNL     1      28.870  -0.230  53.207  1.00  0.00     0.017 C 
HETATM   23  C12 UNL     1      27.849  -1.102  53.264  1.00  0.00     0.134 C 
HETATM   24  O1  UNL     1      26.672  -0.830  53.947  1.00  0.00    -0.344 OA
HETATM   25  C13 UNL     1      26.633   0.347  54.735  1.00  0.00     0.294 C 
ENDBRANCH  19  20
ENDBRANCH   3  19
TORSDOF 4
ENDMDL
MODEL 4
REMARK VINA RESULT:      -7.3      2.658      5.286
REMARK  4 active torsions:
REMARK  status: ('A' for Active; 'I' for Inactive)
REMARK    1  A    between atoms: C5_6  and  N1_7 
REMARK    2  A    between atoms: N1_7  and  C6_8 
REMARK    3  A    between atoms: C8_10  and  C9_11 
REMARK    4  A    between atoms: C9_11  and  N2_12 
ROOT
HETATM    1  C6  UNL     1      22.622   3.400  52.038  1.00  0.00     0.127 C 
HETATM    2  C7  UNL     1      23.529   2.633  51.486  1.00  0.00     0.049 C 
HETATM    3  C8  UNL     1      24.974   2.428  51.153  1.00  0.00     0.115 C 
HETATM    4  N3  UNL     1      25.443   3.351  50.194  1.00  0.00    -0.411 NA
HETATM    5  C14 UNL     1      25.164   4.584  50.046  1.00  0.00     0.294 C 
HETATM    6  C15 UNL     1      24.784   5.982  49.962  1.00  0.00     0.136 C 
HETATM    7  N4  UNL     1      23.952   6.456  50.843  1.00  0.00    -0.253 NA
HETATM    8  C16 UNL     1      23.490   5.521  51.827  1.00  0.00     0.234 C 
HETATM    9  N5  UNL     1      23.060   4.623  52.626  1.00  0.00    -0.225 NA
ENDROOT
BRANCH   1  10
HETATM   10  N1  UNL     1      21.226   3.490  52.300  1.00  0.00    -0.341 N 
HETATM   11  H4  UNL     1      20.784   4.432  52.335  1.00  0.00     0.167 HD
BRANCH  10  12
HETATM   12  C5  UNL     1      20.719   2.157  52.467  1.00  0.00     0.034 A 
HETATM   13  C4  UNL     1      19.586   1.997  51.666  1.00  0.00     0.029 A 
HETATM   14  C3  UNL     1      18.904   0.792  51.647  1.00  0.00     0.004 A 
HETATM   15  C2  UNL     1      19.350  -0.248  52.421  1.00  0.00     0.019 A 
HETATM   16  C1  UNL     1      20.467  -0.073  53.204  1.00  0.00     0.013 A 
HETATM   17 BR1  UNL     1      21.181  -1.455  54.327  1.00  0.00    -0.051 Br
HETATM   18  C17 UNL     1      21.154   1.097  53.242  1.00  0.00     0.048 A 
ENDBRANCH  10  12
ENDBRANCH   1  10
BRANCH   3  19
HETATM   19  C9  UNL     1      25.718   2.491  52.454  1.00  0.00     0.147 C 
BRANCH  19  20
HETATM   20  N2  UNL     1      26.601   1.434  52.622  1.00  0.00    -0.386 N 
HETATM   21  C10 UNL     1      26.294   0.110  52.279  1.00  0.00     0.148 C 
HETATM   22  C11 UNL     1      25.961  -0.591  53.564  1.00  0.00     0.017 C 
HETATM   23  C12 UNL     1      26.425  -0.105  54.727  1.00  0.00     0.134 C 
HETATM   24  O1  UNL     1      27.213   1.036  54.798  1.00  0.00    -0.344 OA
HETATM   25  C13 UNL     1      27.659   1.597  53.575  1.00  0.00     0.294 C 
ENDBRANCH  19  20
ENDBRANCH   3  19
TORSDOF 4
ENDMDL
MODEL 5
REMARK VINA RESULT:      -7.2      3.377      5.670
REMARK  4 active torsions:
REMARK  status: ('A' for Active; 'I' for Inactive)
REMARK    1  A    between atoms: C5_6  and  N1_7 
REMARK    2  A    between atoms: N1_7  and  C6_8 
REMARK    3  A    between atoms: C8_10  and  C9_11 
REMARK    4  A    between atoms: C9_11  and  N2_12 
ROOT
HETATM    1  C6  UNL     1      24.343   3.524  52.103  1.00  0.00     0.127 C 
HETATM    2  C7  UNL     1      24.780   3.448  50.871  1.00  0.00     0.049 C 
HETATM    3  C8  UNL     1      24.519   3.721  49.421  1.00  0.00     0.115 C 
HETATM    4  N3  UNL     1      23.476   2.923  48.902  1.00  0.00    -0.411 NA
HETATM    5  C14 UNL     1      22.388   2.550  49.446  1.00  0.00     0.294 C 
HETATM    6  C15 UNL     1      21.176   2.179  50.151  1.00  0.00     0.136 C 
HETATM    7  N4  UNL     1      21.002   2.616  51.365  1.00  0.00    -0.253 NA
HETATM    8  C16 UNL     1      22.053   3.440  51.885  1.00  0.00     0.234 C 
HETATM    9  N5  UNL     1      23.057   4.102  52.314  1.00  0.00    -0.225 NA
ENDROOT
BRANCH   1  10
HETATM   10  N1  UNL     1      24.696   3.218  53.447  1.00  0.00    -0.341 N 
HETATM   11  H4  UNL     1      24.366   3.850  54.207  1.00  0.00     0.167 HD
BRANCH  10  12
HETATM   12  C5  UNL     1      25.484   2.018  53.437  1.00  0.00     0.034 A 
HETATM   13  C4  UNL     1      24.645   0.923  53.213  1.00  0.00     0.029 A 
HETATM   14  C3  UNL     1      25.163  -0.359  53.159  1.00  0.00     0.004 A 
HETATM   15  C2  UNL     1      26.511  -0.549  53.325  1.00  0.00     0.019 A 
HETATM   16  C1  UNL     1      27.322   0.539  53.546  1.00  0.00     0.013 A 
HETATM   17 BR1  UNL     1      29.219   0.392  53.792  1.00  0.00    -0.051 Br
HETATM   18  C17 UNL     1      26.841   1.806  53.604  1.00  0.00     0.048 A 
ENDBRANCH  10  12
ENDBRANCH   1  10
BRANCH   3  19
HETATM   19  C9  UNL     1      24.255   5.192  49.312  1.00  0.00     0.147 C 
BRANCH  19  20
HETATM   20  N2  UNL     1      25.357   5.965  49.650  1.00  0.00    -0.386 N 
HETATM   21  C10 UNL     1      25.289   7.069  50.511  1.00  0.00     0.148 C 
HETATM   22  C11 UNL     1      25.305   8.287  49.635  1.00  0.00     0.017 C 
HETATM   23  C12 UNL     1      25.822   8.211  48.398  1.00  0.00     0.134 C 
HETATM   24  O1  UNL     1      26.353   7.037  47.882  1.00  0.00    -0.344 OA
HETATM   25  C13 UNL     1      26.485   5.937  48.766  1.00  0.00     0.294 C 
ENDBRANCH  19  20
ENDBRANCH   3  19
TORSDOF 4
ENDMDL
MODEL 6
REMARK VINA RESULT:      -7.1      3.184      6.239
REMARK  4 active torsions:
REMARK  status: ('A' for Active; 'I' for Inactive)
REMARK    1  A    between atoms: C5_6  and  N1_7 
REMARK    2  A    between atoms: N1_7  and  C6_8 
REMARK    3  A    between atoms: C8_10  and  C9_11 
REMARK    4  A    between atoms: C9_11  and  N2_12 
ROOT
HETATM    1  C6  UNL     1      24.308   3.637  51.516  1.00  0.00     0.127 C 
HETATM    2  C7  UNL     1      23.233   4.142  52.068  1.00  0.00     0.049 C 
HETATM    3  C8  UNL     1      21.851   4.685  51.872  1.00  0.00     0.115 C 
HETATM    4  N3  UNL     1      21.849   5.919  51.186  1.00  0.00    -0.411 NA
HETATM    5  C14 UNL     1      22.581   6.316  50.223  1.00  0.00     0.294 C 
HETATM    6  C15 UNL     1      23.462   6.676  49.128  1.00  0.00     0.136 C 
HETATM    7  N4  UNL     1      24.330   5.800  48.713  1.00  0.00    -0.253 NA
HETATM    8  C16 UNL     1      24.319   4.541  49.399  1.00  0.00     0.234 C 
HETATM    9  N5  UNL     1      24.309   3.474  50.099  1.00  0.00    -0.225 NA
ENDROOT
BRANCH   1  10
HETATM   10  N1  UNL     1      25.607   3.141  51.819  1.00  0.00    -0.341 N 
HETATM   11  H4  UNL     1      26.428   3.765  51.670  1.00  0.00     0.167 HD
BRANCH  10  12
HETATM   12  C5  UNL     1      25.467   1.794  52.297  1.00  0.00     0.034 A 
HETATM   13  C4  UNL     1      26.603   1.063  51.939  1.00  0.00     0.029 A 
HETATM   14  C3  UNL     1      26.716  -0.272  52.284  1.00  0.00     0.004 A 
HETATM   15  C2  UNL     1      25.703  -0.876  52.983  1.00  0.00     0.019 A 
HETATM   16  C1  UNL     1      24.592  -0.143  53.326  1.00  0.00     0.013 A 
HETATM   17 BR1  UNL     1      23.114  -0.883  54.302  1.00  0.00    -0.051 Br
HETATM   18  C17 UNL     1      24.455   1.167  53.001  1.00  0.00     0.048 A 
ENDBRANCH  10  12
ENDBRANCH   1  10
BRANCH   3  19
HETATM   19  C9  UNL     1      21.073   3.612  51.171  1.00  0.00     0.147 C 
BRANCH  19  20
HETATM   20  N2  UNL     1      20.175   2.964  52.007  1.00  0.00    -0.386 N 
HETATM   21  C10 UNL     1      20.532   1.897  52.843  1.00  0.00     0.148 C 
HETATM   22  C11 UNL     1      20.058   0.649  52.157  1.00  0.00     0.017 C 
HETATM   23  C12 UNL     1      19.064   0.720  51.255  1.00  0.00     0.134 C 
HETATM   24  O1  UNL     1      18.445   1.917  50.922  1.00  0.00    -0.344 OA
HETATM   25  C13 UNL     1      18.781   3.061  51.688  1.00  0.00     0.294 C 
ENDBRANCH  19  20
ENDBRANCH   3  19
TORSDOF 4
ENDMDL
MODEL 7
REMARK VINA RESULT:      -7.1      3.139      5.886
REMARK  4 active torsions:
REMARK  status: ('A' for Active; 'I' for Inactive)
REMARK    1  A    between atoms: C5_6  and  N1_7 
REMARK    2  A    between atoms: N1_7  and  C6_8 
REMARK    3  A    between atoms: C8_10  and  C9_11 
REMARK    4  A    between atoms: C9_11  and  N2_12 
ROOT
HETATM    1  C6  UNL     1      22.019  -0.130  52.615  1.00  0.00     0.127 C 
HETATM    2  C7  UNL     1      21.779   0.618  51.568  1.00  0.00     0.049 C 
HETATM    3  C8  UNL     1      20.905   1.656  50.934  1.00  0.00     0.115 C 
HETATM    4  N3  UNL     1      19.610   1.172  50.651  1.00  0.00    -0.411 NA
HETATM    5  C14 UNL     1      18.874   0.376  51.318  1.00  0.00     0.294 C 
HETATM    6  C15 UNL     1      18.112  -0.535  52.151  1.00  0.00     0.136 C 
HETATM    7  N4  UNL     1      18.637  -0.946  53.269  1.00  0.00    -0.253 NA
HETATM    8  C16 UNL     1      19.945  -0.439  53.563  1.00  0.00     0.234 C 
HETATM    9  N5  UNL     1      21.137  -0.013  53.729  1.00  0.00    -0.225 NA
ENDROOT
BRANCH   1  10
HETATM   10  N1  UNL     1      22.914  -1.117  53.116  1.00  0.00    -0.341 N 
HETATM   11  H4  UNL     1      22.585  -2.103  53.182  1.00  0.00     0.167 HD
BRANCH  10  12
HETATM   12  C5  UNL     1      24.156  -0.469  53.436  1.00  0.00     0.034 A 
HETATM   13  C4  UNL     1      24.564  -0.870  54.711  1.00  0.00     0.029 A 
HETATM   14  C3  UNL     1      25.739  -0.383  55.257  1.00  0.00     0.004 A 
HETATM   15  C2  UNL     1      26.504   0.496  54.536  1.00  0.00     0.019 A 
HETATM   16  C1  UNL     1      26.087   0.881  53.283  1.00  0.00     0.013 A 
HETATM   17 BR1  UNL     1      27.075   2.105  52.185  1.00  0.00    -0.051 Br
HETATM   18  C17 UNL     1      24.940   0.420  52.724  1.00  0.00     0.048 A 
ENDBRANCH  10  12
ENDBRANCH   1  10
BRANCH   3  19
HETATM   19  C9  UNL     1      20.911   2.834  51.863  1.00  0.00     0.147 C 
BRANCH  19  20
HETATM   20  N2  UNL     1      21.528   3.950  51.315  1.00  0.00    -0.386 N 
HETATM   21  C10 UNL     1      21.904   4.039  49.968  1.00  0.00     0.148 C 
HETATM   22  C11 UNL     1      23.384   3.795  49.928  1.00  0.00     0.017 C 
HETATM   23  C12 UNL     1      24.125   4.008  51.028  1.00  0.00     0.134 C 
HETATM   24  O1  UNL     1      23.575   4.452  52.223  1.00  0.00    -0.344 OA
HETATM   25  C13 UNL     1      22.212   4.837  52.209  1.00  0.00     0.294 C 
ENDBRANCH  19  20
ENDBRANCH   3  19
TORSDOF 4
ENDMDL
MODEL 8
REMARK VINA RESULT:      -7.0      3.035      5.640
REMARK  4 active torsions:
REMARK  status: ('A' for Active; 'I' for Inactive)
REMARK    1  A    between atoms: C5_6  and  N1_7 
REMARK    2  A    between atoms: N1_7  and  C6_8 
REMARK    3  A    between atoms: C8_10  and  C9_11 
REMARK    4  A    between atoms: C9_11  and  N2_12 
ROOT
HETATM    1  C6  UNL     1      24.056   1.179  52.579  1.00  0.00     0.127 C 
HETATM    2  C7  UNL     1      24.305   1.721  51.413  1.00  0.00     0.049 C 
HETATM    3  C8  UNL     1      23.825   2.610  50.308  1.00  0.00     0.115 C 
HETATM    4  N3  UNL     1      22.731   2.058  49.608  1.00  0.00    -0.411 NA
HETATM    5  C14 UNL     1      21.743   1.383  50.042  1.00  0.00     0.294 C 
HETATM    6  C15 UNL     1      20.657   0.623  50.633  1.00  0.00     0.136 C 
HETATM    7  N4  UNL     1      20.659   0.431  51.920  1.00  0.00    -0.253 NA
HETATM    8  C16 UNL     1      21.762   1.008  52.632  1.00  0.00     0.234 C 
HETATM    9  N5  UNL     1      22.806   1.480  53.195  1.00  0.00    -0.225 NA
ENDROOT
BRANCH   1  10
HETATM   10  N1  UNL     1      24.613   0.317  53.565  1.00  0.00    -0.341 N 
HETATM   11  H4  UNL     1      23.972  -0.295  54.114  1.00  0.00     0.167 HD
BRANCH  10  12
HETATM   12  C5  UNL     1      26.036   0.508  53.571  1.00  0.00     0.034 A 
HETATM   13  C4  UNL     1      26.312   1.873  53.673  1.00  0.00     0.029 A 
HETATM   14  C3  UNL     1      27.620   2.325  53.699  1.00  0.00     0.004 A 
HETATM   15  C2  UNL     1      28.647   1.420  53.624  1.00  0.00     0.019 A 
HETATM   16  C1  UNL     1      28.358   0.080  53.522  1.00  0.00     0.013 A 
HETATM   17 BR1  UNL     1      29.712  -1.275  53.410  1.00  0.00    -0.051 Br
HETATM   18  C17 UNL     1      27.085  -0.390  53.495  1.00  0.00     0.048 A 
ENDBRANCH  10  12
ENDBRANCH   1  10
BRANCH   3  19
HETATM   19  C9  UNL     1      23.521   3.936  50.939  1.00  0.00     0.147 C 
BRANCH  19  20
HETATM   20  N2  UNL     1      23.617   4.994  50.045  1.00  0.00    -0.386 N 
HETATM   21  C10 UNL     1      24.593   5.068  49.042  1.00  0.00     0.148 C 
HETATM   22  C11 UNL     1      25.638   6.022  49.542  1.00  0.00     0.017 C 
HETATM   23  C12 UNL     1      25.317   6.931  50.478  1.00  0.00     0.134 C 
HETATM   24  O1  UNL     1      24.041   7.030  51.014  1.00  0.00    -0.344 OA
HETATM   25  C13 UNL     1      23.022   6.241  50.424  1.00  0.00     0.294 C 
ENDBRANCH  19  20
ENDBRANCH   3  19
TORSDOF 4
ENDMDL
MODEL 9
REMARK VINA RESULT:      -7.0      3.547      5.741
REMARK  4 active torsions:
REMARK  status: ('A' for Active; 'I' for Inactive)
REMARK    1  A    between atoms: C5_6  and  N1_7 
REMARK    2  A    between atoms: N1_7  and  C6_8 
REMARK    3  A    between atoms: C8_10  and  C9_11 
REMARK    4  A    between atoms: C9_11  and  N2_12 
ROOT
HETATM    1  C6  UNL     1      21.675   0.906  51.772  1.00  0.00     0.127 C 
HETATM    2  C7  UNL     1      22.060   1.335  50.596  1.00  0.00     0.049 C 
HETATM    3  C8  UNL     1      22.290   2.510  49.696  1.00  0.00     0.115 C 
HETATM    4  N3  UNL     1      21.088   3.150  49.327  1.00  0.00    -0.411 NA
HETATM    5  C14 UNL     1      20.036   3.365  50.011  1.00  0.00     0.294 C 
HETATM    6  C15 UNL     1      18.885   3.562  50.871  1.00  0.00     0.136 C 
HETATM    7  N4  UNL     1      18.943   3.134  52.099  1.00  0.00    -0.253 NA
HETATM    8  C16 UNL     1      20.172   2.500  52.478  1.00  0.00     0.234 C 
HETATM    9  N5  UNL     1      21.259   1.879  52.728  1.00  0.00    -0.225 NA
ENDROOT
BRANCH   1  10
HETATM   10  N1  UNL     1      21.493  -0.280  52.537  1.00  0.00    -0.341 N 
HETATM   11  H4  UNL     1      20.599  -0.806  52.439  1.00  0.00     0.167 HD
BRANCH  10  12
HETATM   12  C5  UNL     1      22.676  -0.487  53.325  1.00  0.00     0.034 A 
HETATM   13  C4  UNL     1      22.316  -1.060  54.547  1.00  0.00     0.029 A 
HETATM   14  C3  UNL     1      23.280  -1.361  55.493  1.00  0.00     0.004 A 
HETATM   15  C2  UNL     1      24.597  -1.092  55.222  1.00  0.00     0.019 A 
HETATM   16  C1  UNL     1      24.934  -0.527  54.014  1.00  0.00     0.013 A 
HETATM   17 BR1  UNL     1      26.742  -0.108  53.527  1.00  0.00    -0.051 Br
HETATM   18  C17 UNL     1      24.009  -0.222  53.069  1.00  0.00     0.048 A 
ENDBRANCH  10  12
ENDBRANCH   1  10
BRANCH   3  19
HETATM   19  C9  UNL     1      23.248   3.410  50.417  1.00  0.00     0.147 C 
BRANCH  19  20
HETATM   20  N2  UNL     1      23.272   4.698  49.899  1.00  0.00    -0.386 N 
HETATM   21  C10 UNL     1      23.831   5.018  48.655  1.00  0.00     0.148 C 
HETATM   22  C11 UNL     1      25.175   5.623  48.942  1.00  0.00     0.017 C 
HETATM   23  C12 UNL     1      25.415   6.174  50.143  1.00  0.00     0.134 C 
HETATM   24  O1  UNL     1      24.461   6.210  51.151  1.00  0.00    -0.344 OA
HETATM   25  C13 UNL     1      23.148   5.788  50.822  1.00  0.00     0.294 C 
ENDBRANCH  19  20
ENDBRANCH   3  19
TORSDOF 4
ENDMDL
