MODEL 1
REMARK VINA RESULT:      -8.6      0.000      0.000
REMARK  5 active torsions:
REMARK  status: ('A' for Active; 'I' for Inactive)
REMARK    1  A    between atoms: C2_2  and  C3_4 
REMARK    2  A    between atoms: C3_4  and  C4_5 
REMARK       I    between atoms: C4_5  and  N1_7 
REMARK    3  A    between atoms: N1_7  and  C5_8 
REMARK    4  A    between atoms: C10_15  and  N4_16 
REMARK    5  A    between atoms: N4_16  and  C11_17 
ROOT
HETATM    1  C5  UNL     1      24.480  -0.668  54.211  1.00  0.00     0.035 A 
HETATM    2  C6  UNL     1      23.553  -1.134  55.131  1.00  0.00     0.032 A 
HETATM    3  C7  UNL     1      22.219  -0.858  54.951  1.00  0.00     0.035 A 
HETATM    4  C8  UNL     1      21.844  -0.123  53.855  1.00  0.00     0.072 A 
HETATM    5  N2  UNL     1      20.511   0.097  53.758  1.00  0.00    -0.241 NA
HETATM    6  C9  UNL     1      20.066   0.803  52.720  1.00  0.00     0.236 A 
HETATM    7  N3  UNL     1      20.927   1.269  51.813  1.00  0.00    -0.224 NA
HETATM    8  C10 UNL     1      22.254   1.111  51.811  1.00  0.00     0.142 A 
HETATM    9  C17 UNL     1      22.676   0.380  52.894  1.00  0.00     0.041 A 
HETATM   10  C18 UNL     1      24.003   0.064  53.139  1.00  0.00     0.047 A 
ENDROOT
BRANCH   8  11
HETATM   11  N4  UNL     1      23.188   1.589  50.871  1.00  0.00    -0.340 N 
HETATM   12  H10 UNL     1      23.569   0.968  50.152  1.00  0.00     0.167 HD
BRANCH  11  13
HETATM   13  C11 UNL     1      23.715   2.893  50.763  1.00  0.00     0.035 A 
HETATM   14  C12 UNL     1      23.123   3.990  51.341  1.00  0.00     0.029 A 
HETATM   15  C13 UNL     1      23.629   5.267  51.245  1.00  0.00     0.004 A 
HETATM   16  C14 UNL     1      24.786   5.518  50.549  1.00  0.00     0.019 A 
HETATM   17  C15 UNL     1      25.410   4.447  49.957  1.00  0.00     0.013 A 
HETATM   18 BR1  UNL     1      27.012   4.671  48.968  1.00  0.00    -0.051 Br
HETATM   19  C16 UNL     1      24.871   3.189  50.076  1.00  0.00     0.048 A 
ENDBRANCH  11  13
ENDBRANCH   8  11
BRANCH   1  20
HETATM   20  N1  UNL     1      25.880  -0.931  54.349  1.00  0.00    -0.327 N 
HETATM   21  C4  UNL     1      26.677   0.224  54.699  1.00  0.00     0.229 C 
HETATM   22  O2  UNL     1      26.330   1.413  54.903  1.00  0.00    -0.273 OA
HETATM   23  H6  UNL     1      26.367  -1.849  54.223  1.00  0.00     0.169 HD
BRANCH  21  24
HETATM   24  C3  UNL     1      28.155   0.151  54.885  1.00  0.00     0.180 C 
BRANCH  24  25
HETATM   25  C2  UNL     1      28.813  -0.493  53.714  1.00  0.00     0.131 C 
HETATM   26  C1  UNL     1      30.137  -1.222  53.753  1.00  0.00     0.091 C 
HETATM   27  O1  UNL     1      28.119  -0.344  52.723  1.00  0.00    -0.298 OA
ENDBRANCH  24  25
ENDBRANCH  21  24
ENDBRANCH   1  20
TORSDOF 5
ENDMDL
MODEL 2
REMARK VINA RESULT:      -8.4      2.268      3.060
REMARK  5 active torsions:
REMARK  status: ('A' for Active; 'I' for Inactive)
REMARK    1  A    between atoms: C2_2  and  C3_4 
REMARK    2  A    between atoms: C3_4  and  C4_5 
REMARK       I    between atoms: C4_5  and  N1_7 
REMARK    3  A    between atoms: N1_7  and  C5_8 
REMARK    4  A    between atoms: C10_15  and  N4_16 
REMARK    5  A    between atoms: N4_16  and  C11_17 
ROOT
HETATM    1  C5  UNL     1      25.024   2.010  53.418  1.00  0.00     0.035 A 
HETATM    2  C6  UNL     1      24.203   0.902  53.273  1.00  0.00     0.032 A 
HETATM    3  C7  UNL     1      22.960   1.048  52.704  1.00  0.00     0.035 A 
HETATM    4  C8  UNL     1      22.570   2.298  52.294  1.00  0.00     0.072 A 
HETATM    5  N2  UNL     1      21.333   2.346  51.744  1.00  0.00    -0.241 NA
HETATM    6  C9  UNL     1      20.881   3.524  51.319  1.00  0.00     0.236 A 
HETATM    7  N3  UNL     1      21.642   4.614  51.442  1.00  0.00    -0.224 NA
HETATM    8  C10 UNL     1      22.869   4.680  51.965  1.00  0.00     0.142 A 
HETATM    9  C17 UNL     1      23.302   3.448  52.392  1.00  0.00     0.041 A 
HETATM   10  C18 UNL     1      24.540   3.227  52.973  1.00  0.00     0.047 A 
ENDROOT
BRANCH   8  11
HETATM   11  N4  UNL     1      23.697   5.811  52.109  1.00  0.00    -0.340 N 
HETATM   12  H10 UNL     1      23.936   6.167  53.039  1.00  0.00     0.167 HD
BRANCH  11  13
HETATM   13  C11 UNL     1      24.293   6.581  51.089  1.00  0.00     0.035 A 
HETATM   14  C12 UNL     1      23.853   7.837  50.744  1.00  0.00     0.029 A 
HETATM   15  C13 UNL     1      24.427   8.599  49.753  1.00  0.00     0.004 A 
HETATM   16  C14 UNL     1      25.502   8.133  49.036  1.00  0.00     0.019 A 
HETATM   17  C15 UNL     1      25.973   6.882  49.350  1.00  0.00     0.013 A 
HETATM   18 BR1  UNL     1      27.450   6.130  48.427  1.00  0.00    -0.051 Br
HETATM   19  C16 UNL     1      25.370   6.153  50.346  1.00  0.00     0.048 A 
ENDBRANCH  11  13
ENDBRANCH   8  11
BRANCH   1  20
HETATM   20  N1  UNL     1      26.328   1.912  53.999  1.00  0.00    -0.327 N 
HETATM   21  C4  UNL     1      27.417   2.129  53.073  1.00  0.00     0.229 C 
HETATM   22  O2  UNL     1      27.393   2.391  51.845  1.00  0.00    -0.273 OA
HETATM   23  H6  UNL     1      26.563   1.705  54.999  1.00  0.00     0.169 HD
BRANCH  21  24
HETATM   24  C3  UNL     1      28.848   2.066  53.488  1.00  0.00     0.180 C 
BRANCH  24  25
HETATM   25  C2  UNL     1      29.164   0.762  54.136  1.00  0.00     0.131 C 
HETATM   26  C1  UNL     1      29.934  -0.366  53.489  1.00  0.00     0.091 C 
HETATM   27  O1  UNL     1      28.708   0.748  55.266  1.00  0.00    -0.298 OA
ENDBRANCH  24  25
ENDBRANCH  21  24
ENDBRANCH   1  20
TORSDOF 5
ENDMDL
MODEL 3
REMARK VINA RESULT:      -8.3      1.628      2.205
REMARK  5 active torsions:
REMARK  status: ('A' for Active; 'I' for Inactive)
REMARK    1  A    between atoms: C2_2  and  C3_4 
REMARK    2  A    between atoms: C3_4  and  C4_5 
REMARK       I    between atoms: C4_5  and  N1_7 
REMARK    3  A    between atoms: N1_7  and  C5_8 
REMARK    4  A    between atoms: C10_15  and  N4_16 
REMARK    5  A    between atoms: N4_16  and  C11_17 
ROOT
HETATM    1  C5  UNL     1      24.323  -0.213  53.629  1.00  0.00     0.035 A 
HETATM    2  C6  UNL     1      23.126  -0.910  53.698  1.00  0.00     0.032 A 
HETATM    3  C7  UNL     1      21.956  -0.286  53.333  1.00  0.00     0.035 A 
HETATM    4  C8  UNL     1      22.013   1.017  52.909  1.00  0.00     0.072 A 
HETATM    5  N2  UNL     1      20.814   1.548  52.569  1.00  0.00    -0.241 NA
HETATM    6  C9  UNL     1      20.784   2.810  52.145  1.00  0.00     0.236 A 
HETATM    7  N3  UNL     1      21.916   3.513  52.066  1.00  0.00    -0.224 NA
HETATM    8  C10 UNL     1      23.146   3.091  52.374  1.00  0.00     0.142 A 
HETATM    9  C17 UNL     1      23.138   1.787  52.806  1.00  0.00     0.041 A 
HETATM   10  C18 UNL     1      24.276   1.097  53.189  1.00  0.00     0.047 A 
ENDROOT
BRANCH   8  11
HETATM   11  N4  UNL     1      24.358   3.806  52.302  1.00  0.00    -0.340 N 
HETATM   12  H10 UNL     1      24.794   4.179  53.149  1.00  0.00     0.167 HD
BRANCH  11  13
HETATM   13  C11 UNL     1      25.117   4.105  51.152  1.00  0.00     0.035 A 
HETATM   14  C12 UNL     1      26.060   3.250  50.633  1.00  0.00     0.029 A 
HETATM   15  C13 UNL     1      26.805   3.529  49.510  1.00  0.00     0.004 A 
HETATM   16  C14 UNL     1      26.639   4.710  48.827  1.00  0.00     0.019 A 
HETATM   17  C15 UNL     1      25.705   5.591  49.312  1.00  0.00     0.013 A 
HETATM   18 BR1  UNL     1      25.390   7.255  48.457  1.00  0.00    -0.051 Br
HETATM   19  C16 UNL     1      24.984   5.275  50.437  1.00  0.00     0.048 A 
ENDBRANCH  11  13
ENDBRANCH   8  11
BRANCH   1  20
HETATM   20  N1  UNL     1      25.569  -0.816  53.993  1.00  0.00    -0.327 N 
HETATM   21  C4  UNL     1      26.563  -0.822  52.942  1.00  0.00     0.229 C 
HETATM   22  O2  UNL     1      26.501  -0.379  51.769  1.00  0.00    -0.273 OA
HETATM   23  H6  UNL     1      25.823  -1.240  54.916  1.00  0.00     0.169 HD
BRANCH  21  24
HETATM   24  C3  UNL     1      27.922  -1.408  53.127  1.00  0.00     0.180 C 
BRANCH  24  25
HETATM   25  C2  UNL     1      28.781  -0.521  53.960  1.00  0.00     0.131 C 
HETATM   26  C1  UNL     1      30.142  -0.000  53.559  1.00  0.00     0.091 C 
HETATM   27  O1  UNL     1      28.216  -0.279  55.013  1.00  0.00    -0.298 OA
ENDBRANCH  24  25
ENDBRANCH  21  24
ENDBRANCH   1  20
TORSDOF 5
ENDMDL
MODEL 4
REMARK VINA RESULT:      -8.3      2.674      5.433
REMARK  5 active torsions:
REMARK  status: ('A' for Active; 'I' for Inactive)
REMARK    1  A    between atoms: C2_2  and  C3_4 
REMARK    2  A    between atoms: C3_4  and  C4_5 
REMARK       I    between atoms: C4_5  and  N1_7 
REMARK    3  A    between atoms: N1_7  and  C5_8 
REMARK    4  A    between atoms: C10_15  and  N4_16 
REMARK    5  A    between atoms: N4_16  and  C11_17 
ROOT
HETATM    1  C5  UNL     1      24.430  -0.286  53.366  1.00  0.00     0.035 A 
HETATM    2  C6  UNL     1      25.001  -0.615  54.586  1.00  0.00     0.032 A 
HETATM    3  C7  UNL     1      26.219  -0.080  54.932  1.00  0.00     0.035 A 
HETATM    4  C8  UNL     1      26.835   0.770  54.049  1.00  0.00     0.072 A 
HETATM    5  N2  UNL     1      28.029   1.250  54.475  1.00  0.00    -0.241 NA
HETATM    6  C9  UNL     1      28.690   2.084  53.675  1.00  0.00     0.236 A 
HETATM    7  N3  UNL     1      28.173   2.424  52.492  1.00  0.00    -0.224 NA
HETATM    8  C10 UNL     1      27.011   2.013  51.977  1.00  0.00     0.142 A 
HETATM    9  C17 UNL     1      26.357   1.156  52.828  1.00  0.00     0.041 A 
HETATM   10  C18 UNL     1      25.129   0.580  52.546  1.00  0.00     0.047 A 
ENDROOT
BRANCH   8  11
HETATM   11  N4  UNL     1      26.439   2.352  50.735  1.00  0.00    -0.340 N 
HETATM   12  H10 UNL     1      26.107   1.623  50.097  1.00  0.00     0.167 HD
BRANCH  11  13
HETATM   13  C11 UNL     1      26.236   3.641  50.200  1.00  0.00     0.035 A 
HETATM   14  C12 UNL     1      27.037   4.181  49.222  1.00  0.00     0.029 A 
HETATM   15  C13 UNL     1      26.847   5.436  48.690  1.00  0.00     0.004 A 
HETATM   16  C14 UNL     1      25.818   6.238  49.120  1.00  0.00     0.019 A 
HETATM   17  C15 UNL     1      24.994   5.735  50.096  1.00  0.00     0.013 A 
HETATM   18 BR1  UNL     1      23.541   6.751  50.772  1.00  0.00    -0.051 Br
HETATM   19  C16 UNL     1      25.219   4.478  50.602  1.00  0.00     0.048 A 
ENDBRANCH  11  13
ENDBRANCH   8  11
BRANCH   1  20
HETATM   20  N1  UNL     1      23.162  -0.811  52.959  1.00  0.00    -0.327 N 
HETATM   21  C4  UNL     1      22.046   0.086  53.163  1.00  0.00     0.229 C 
HETATM   22  O2  UNL     1      22.021   1.248  53.637  1.00  0.00    -0.273 OA
HETATM   23  H6  UNL     1      22.970  -1.752  52.542  1.00  0.00     0.169 HD
BRANCH  21  24
HETATM   24  C3  UNL     1      20.646  -0.282  52.805  1.00  0.00     0.180 C 
BRANCH  24  25
HETATM   25  C2  UNL     1      20.289   0.218  51.448  1.00  0.00     0.131 C 
HETATM   26  C1  UNL     1      18.930   0.736  51.041  1.00  0.00     0.091 C 
HETATM   27  O1  UNL     1      21.264   0.146  50.718  1.00  0.00    -0.298 OA
ENDBRANCH  24  25
ENDBRANCH  21  24
ENDBRANCH   1  20
TORSDOF 5
ENDMDL
MODEL 5
REMARK VINA RESULT:      -8.1      2.938      5.252
REMARK  5 active torsions:
REMARK  status: ('A' for Active; 'I' for Inactive)
REMARK    1  A    between atoms: C2_2  and  C3_4 
REMARK    2  A    between atoms: C3_4  and  C4_5 
REMARK       I    between atoms: C4_5  and  N1_7 
REMARK    3  A    between atoms: N1_7  and  C5_8 
REMARK    4  A    between atoms: C10_15  and  N4_16 
REMARK    5  A    between atoms: N4_16  and  C11_17 
ROOT
HETATM    1  C5  UNL     1      25.698   2.567  52.028  1.00  0.00     0.035 A 
HETATM    2  C6  UNL     1      26.229   2.890  50.789  1.00  0.00     0.032 A 
HETATM    3  C7  UNL     1      25.386   3.136  49.732  1.00  0.00     0.035 A 
HETATM    4  C8  UNL     1      24.032   3.054  49.941  1.00  0.00     0.072 A 
HETATM    5  N2  UNL     1      23.280   3.316  48.846  1.00  0.00    -0.241 NA
HETATM    6  C9  UNL     1      21.955   3.258  48.967  1.00  0.00     0.236 A 
HETATM    7  N3  UNL     1      21.406   2.951  50.144  1.00  0.00    -0.224 NA
HETATM    8  C10 UNL     1      22.050   2.677  51.282  1.00  0.00     0.142 A 
HETATM    9  C17 UNL     1      23.412   2.746  51.120  1.00  0.00     0.041 A 
HETATM   10  C18 UNL     1      24.321   2.510  52.138  1.00  0.00     0.047 A 
ENDROOT
BRANCH   8  11
HETATM   11  N4  UNL     1      21.502   2.349  52.538  1.00  0.00    -0.340 N 
HETATM   12  H10 UNL     1      21.274   3.082  53.215  1.00  0.00     0.167 HD
BRANCH  11  13
HETATM   13  C11 UNL     1      21.195   1.067  53.038  1.00  0.00     0.035 A 
HETATM   14  C12 UNL     1      22.113   0.277  53.689  1.00  0.00     0.029 A 
HETATM   15  C13 UNL     1      21.825  -0.974  54.184  1.00  0.00     0.004 A 
HETATM   16  C14 UNL     1      20.569  -1.515  54.053  1.00  0.00     0.019 A 
HETATM   17  C15 UNL     1      19.622  -0.757  53.410  1.00  0.00     0.013 A 
HETATM   18 BR1  UNL     1      17.854  -1.398  53.165  1.00  0.00    -0.051 Br
HETATM   19  C16 UNL     1      19.951   0.487  52.929  1.00  0.00     0.048 A 
ENDBRANCH  11  13
ENDBRANCH   8  11
BRANCH   1  20
HETATM   20  N1  UNL     1      26.531   2.305  53.162  1.00  0.00    -0.327 N 
HETATM   21  C4  UNL     1      26.764   0.903  53.428  1.00  0.00     0.229 C 
HETATM   22  O2  UNL     1      26.352  -0.113  52.816  1.00  0.00    -0.273 OA
HETATM   23  H6  UNL     1      26.974   3.009  53.799  1.00  0.00     0.169 HD
BRANCH  21  24
HETATM   24  C3  UNL     1      27.603   0.430  54.566  1.00  0.00     0.180 C 
BRANCH  24  25
HETATM   25  C2  UNL     1      29.050   0.669  54.304  1.00  0.00     0.131 C 
HETATM   26  C1  UNL     1      29.987  -0.312  53.638  1.00  0.00     0.091 C 
HETATM   27  O1  UNL     1      29.359   1.778  54.706  1.00  0.00    -0.298 OA
ENDBRANCH  24  25
ENDBRANCH  21  24
ENDBRANCH   1  20
TORSDOF 5
ENDMDL
MODEL 6
REMARK VINA RESULT:      -8.0      2.091      3.037
REMARK  5 active torsions:
REMARK  status: ('A' for Active; 'I' for Inactive)
REMARK    1  A    between atoms: C2_2  and  C3_4 
REMARK    2  A    between atoms: C3_4  and  C4_5 
REMARK       I    between atoms: C4_5  and  N1_7 
REMARK    3  A    between atoms: N1_7  and  C5_8 
REMARK    4  A    between atoms: C10_15  and  N4_16 
REMARK    5  A    between atoms: N4_16  and  C11_17 
ROOT
HETATM    1  C5  UNL     1      25.436   1.295  52.299  1.00  0.00     0.035 A 
HETATM    2  C6  UNL     1      24.363   0.875  53.070  1.00  0.00     0.032 A 
HETATM    3  C7  UNL     1      23.117   1.411  52.849  1.00  0.00     0.035 A 
HETATM    4  C8  UNL     1      22.975   2.354  51.863  1.00  0.00     0.072 A 
HETATM    5  N2  UNL     1      21.713   2.824  51.715  1.00  0.00    -0.241 NA
HETATM    6  C9  UNL     1      21.492   3.742  50.776  1.00  0.00     0.236 A 
HETATM    7  N3  UNL     1      22.500   4.171  50.013  1.00  0.00    -0.224 NA
HETATM    8  C10 UNL     1      23.775   3.778  50.073  1.00  0.00     0.142 A 
HETATM    9  C17 UNL     1      23.966   2.832  51.051  1.00  0.00     0.041 A 
HETATM   10  C18 UNL     1      25.191   2.249  51.328  1.00  0.00     0.047 A 
ENDROOT
BRANCH   8  11
HETATM   11  N4  UNL     1      24.860   4.210  49.285  1.00  0.00    -0.340 N 
HETATM   12  H10 UNL     1      25.246   3.608  48.553  1.00  0.00     0.167 HD
BRANCH  11  13
HETATM   13  C11 UNL     1      25.543   5.442  49.358  1.00  0.00     0.035 A 
HETATM   14  C12 UNL     1      25.166   6.460  50.200  1.00  0.00     0.029 A 
HETATM   15  C13 UNL     1      25.826   7.664  50.282  1.00  0.00     0.004 A 
HETATM   16  C14 UNL     1      26.931   7.919  49.506  1.00  0.00     0.019 A 
HETATM   17  C15 UNL     1      27.342   6.927  48.652  1.00  0.00     0.013 A 
HETATM   18 BR1  UNL     1      28.852   7.163  47.529  1.00  0.00    -0.051 Br
HETATM   19  C16 UNL     1      26.654   5.739  48.599  1.00  0.00     0.048 A 
ENDBRANCH  11  13
ENDBRANCH   8  11
BRANCH   1  20
HETATM   20  N1  UNL     1      26.753   0.765  52.484  1.00  0.00    -0.327 N 
HETATM   21  C4  UNL     1      27.590   1.534  53.378  1.00  0.00     0.229 C 
HETATM   22  O2  UNL     1      27.338   2.587  54.015  1.00  0.00    -0.273 OA
HETATM   23  H6  UNL     1      27.156  -0.097  52.049  1.00  0.00     0.169 HD
BRANCH  21  24
HETATM   24  C3  UNL     1      28.995   1.145  53.696  1.00  0.00     0.180 C 
BRANCH  24  25
HETATM   25  C2  UNL     1      29.066  -0.262  54.180  1.00  0.00     0.131 C 
HETATM   26  C1  UNL     1      30.100  -1.278  53.752  1.00  0.00     0.091 C 
HETATM   27  O1  UNL     1      28.165  -0.465  54.976  1.00  0.00    -0.298 OA
ENDBRANCH  24  25
ENDBRANCH  21  24
ENDBRANCH   1  20
TORSDOF 5
ENDMDL
MODEL 7
REMARK VINA RESULT:      -7.8      2.242      2.456
REMARK  5 active torsions:
REMARK  status: ('A' for Active; 'I' for Inactive)
REMARK    1  A    between atoms: C2_2  and  C3_4 
REMARK    2  A    between atoms: C3_4  and  C4_5 
REMARK       I    between atoms: C4_5  and  N1_7 
REMARK    3  A    between atoms: N1_7  and  C5_8 
REMARK    4  A    between atoms: C10_15  and  N4_16 
REMARK    5  A    between atoms: N4_16  and  C11_17 
ROOT
HETATM    1  C5  UNL     1      24.651   0.334  53.057  1.00  0.00     0.035 A 
HETATM    2  C6  UNL     1      23.899  -0.480  53.890  1.00  0.00     0.032 A 
HETATM    3  C7  UNL     1      22.538  -0.298  53.969  1.00  0.00     0.035 A 
HETATM    4  C8  UNL     1      21.964   0.692  53.213  1.00  0.00     0.072 A 
HETATM    5  N2  UNL     1      20.621   0.795  53.352  1.00  0.00    -0.241 NA
HETATM    6  C9  UNL     1      19.988   1.733  52.650  1.00  0.00     0.236 A 
HETATM    7  N3  UNL     1      20.677   2.535  51.836  1.00  0.00    -0.224 NA
HETATM    8  C10 UNL     1      21.996   2.520  51.623  1.00  0.00     0.142 A 
HETATM    9  C17 UNL     1      22.615   1.542  52.364  1.00  0.00     0.041 A 
HETATM   10  C18 UNL     1      23.979   1.304  52.334  1.00  0.00     0.047 A 
ENDROOT
BRANCH   8  11
HETATM   11  N4  UNL     1      22.753   3.352  50.774  1.00  0.00    -0.340 N 
HETATM   12  H10 UNL     1      23.554   3.877  51.136  1.00  0.00     0.167 HD
BRANCH  11  13
HETATM   13  C11 UNL     1      22.559   3.585  49.397  1.00  0.00     0.035 A 
HETATM   14  C12 UNL     1      22.211   2.594  48.511  1.00  0.00     0.029 A 
HETATM   15  C13 UNL     1      22.016   2.810  47.166  1.00  0.00     0.004 A 
HETATM   16  C14 UNL     1      22.162   4.063  46.622  1.00  0.00     0.019 A 
HETATM   17  C15 UNL     1      22.509   5.082  47.475  1.00  0.00     0.013 A 
HETATM   18 BR1  UNL     1      22.741   6.855  46.840  1.00  0.00    -0.051 Br
HETATM   19  C16 UNL     1      22.695   4.824  48.811  1.00  0.00     0.048 A 
ENDBRANCH  11  13
ENDBRANCH   8  11
BRANCH   1  20
HETATM   20  N1  UNL     1      26.069   0.185  52.934  1.00  0.00    -0.327 N 
HETATM   21  C4  UNL     1      26.842   1.215  53.591  1.00  0.00     0.229 C 
HETATM   22  O2  UNL     1      26.460   2.213  54.251  1.00  0.00    -0.273 OA
HETATM   23  H6  UNL     1      26.585  -0.574  52.429  1.00  0.00     0.169 HD
BRANCH  21  24
HETATM   24  C3  UNL     1      28.333   1.234  53.573  1.00  0.00     0.180 C 
BRANCH  24  25
HETATM   25  C2  UNL     1      28.893  -0.039  54.108  1.00  0.00     0.131 C 
HETATM   26  C1  UNL     1      30.077  -0.778  53.530  1.00  0.00     0.091 C 
HETATM   27  O1  UNL     1      28.251  -0.388  55.083  1.00  0.00    -0.298 OA
ENDBRANCH  24  25
ENDBRANCH  21  24
ENDBRANCH   1  20
TORSDOF 5
ENDMDL
MODEL 8
REMARK VINA RESULT:      -7.7      6.759      9.611
REMARK  5 active torsions:
REMARK  status: ('A' for Active; 'I' for Inactive)
REMARK    1  A    between atoms: C2_2  and  C3_4 
REMARK    2  A    between atoms: C3_4  and  C4_5 
REMARK       I    between atoms: C4_5  and  N1_7 
REMARK    3  A    between atoms: N1_7  and  C5_8 
REMARK    4  A    between atoms: C10_15  and  N4_16 
REMARK    5  A    between atoms: N4_16  and  C11_17 
ROOT
HETATM    1  C5  UNL     1      32.021   5.741  48.616  1.00  0.00     0.035 A 
HETATM    2  C6  UNL     1      32.841   6.776  49.039  1.00  0.00     0.032 A 
HETATM    3  C7  UNL     1      32.307   8.027  49.237  1.00  0.00     0.035 A 
HETATM    4  C8  UNL     1      30.967   8.212  49.009  1.00  0.00     0.072 A 
HETATM    5  N2  UNL     1      30.529   9.474  49.233  1.00  0.00    -0.241 NA
HETATM    6  C9  UNL     1      29.239   9.735  49.035  1.00  0.00     0.236 A 
HETATM    7  N3  UNL     1      28.418   8.764  48.629  1.00  0.00    -0.224 NA
HETATM    8  C10 UNL     1      28.741   7.492  48.380  1.00  0.00     0.142 A 
HETATM    9  C17 UNL     1      30.078   7.260  48.594  1.00  0.00     0.041 A 
HETATM   10  C18 UNL     1      30.683   6.027  48.414  1.00  0.00     0.047 A 
ENDROOT
BRANCH   8  11
HETATM   11  N4  UNL     1      27.900   6.446  47.950  1.00  0.00    -0.340 N 
HETATM   12  H10 UNL     1      27.859   6.183  46.961  1.00  0.00     0.167 HD
BRANCH  11  13
HETATM   13  C11 UNL     1      27.046   5.646  48.736  1.00  0.00     0.035 A 
HETATM   14  C12 UNL     1      27.237   4.297  48.916  1.00  0.00     0.029 A 
HETATM   15  C13 UNL     1      26.411   3.507  49.684  1.00  0.00     0.004 A 
HETATM   16  C14 UNL     1      25.323   4.041  50.330  1.00  0.00     0.019 A 
HETATM   17  C15 UNL     1      25.097   5.386  50.177  1.00  0.00     0.013 A 
HETATM   18 BR1  UNL     1      23.625   6.236  51.019  1.00  0.00    -0.051 Br
HETATM   19  C16 UNL     1      25.945   6.139  49.401  1.00  0.00     0.048 A 
ENDBRANCH  11  13
ENDBRANCH   8  11
BRANCH   1  20
HETATM   20  N1  UNL     1      32.524   4.419  48.399  1.00  0.00    -0.327 N 
HETATM   21  C4  UNL     1      32.996   4.168  47.055  1.00  0.00     0.229 C 
HETATM   22  O2  UNL     1      33.034   4.930  46.058  1.00  0.00    -0.273 OA
HETATM   23  H6  UNL     1      32.581   3.640  49.097  1.00  0.00     0.169 HD
BRANCH  21  24
HETATM   24  C3  UNL     1      33.555   2.851  46.634  1.00  0.00     0.180 C 
BRANCH  24  25
HETATM   25  C2  UNL     1      32.768   1.725  47.209  1.00  0.00     0.131 C 
HETATM   26  C1  UNL     1      31.704   0.943  46.474  1.00  0.00     0.091 C 
HETATM   27  O1  UNL     1      33.117   1.530  48.361  1.00  0.00    -0.298 OA
ENDBRANCH  24  25
ENDBRANCH  21  24
ENDBRANCH   1  20
TORSDOF 5
ENDMDL
MODEL 9
REMARK VINA RESULT:      -7.5      2.845      5.344
REMARK  5 active torsions:
REMARK  status: ('A' for Active; 'I' for Inactive)
REMARK    1  A    between atoms: C2_2  and  C3_4 
REMARK    2  A    between atoms: C3_4  and  C4_5 
REMARK       I    between atoms: C4_5  and  N1_7 
REMARK    3  A    between atoms: N1_7  and  C5_8 
REMARK    4  A    between atoms: C10_15  and  N4_16 
REMARK    5  A    between atoms: N4_16  and  C11_17 
ROOT
HETATM    1  C5  UNL     1      25.600   2.994  50.563  1.00  0.00     0.035 A 
HETATM    2  C6  UNL     1      25.748   4.316  50.175  1.00  0.00     0.032 A 
HETATM    3  C7  UNL     1      24.686   4.979  49.606  1.00  0.00     0.035 A 
HETATM    4  C8  UNL     1      23.504   4.304  49.440  1.00  0.00     0.072 A 
HETATM    5  N2  UNL     1      22.515   5.036  48.875  1.00  0.00    -0.241 NA
HETATM    6  C9  UNL     1      21.334   4.452  48.681  1.00  0.00     0.236 A 
HETATM    7  N3  UNL     1      21.153   3.180  49.042  1.00  0.00    -0.224 NA
HETATM    8  C10 UNL     1      22.054   2.369  49.604  1.00  0.00     0.142 A 
HETATM    9  C17 UNL     1      23.258   3.005  49.789  1.00  0.00     0.041 A 
HETATM   10  C18 UNL     1      24.368   2.400  50.355  1.00  0.00     0.047 A 
ENDROOT
BRANCH   8  11
HETATM   11  N4  UNL     1      21.896   1.025  49.996  1.00  0.00    -0.340 N 
HETATM   12  H10 UNL     1      22.314   0.269  49.446  1.00  0.00     0.167 HD
BRANCH  11  13
HETATM   13  C11 UNL     1      21.197   0.528  51.115  1.00  0.00     0.035 A 
HETATM   14  C12 UNL     1      19.825   0.488  51.185  1.00  0.00     0.029 A 
HETATM   15  C13 UNL     1      19.132   0.002  52.270  1.00  0.00     0.004 A 
HETATM   16  C14 UNL     1      19.794  -0.483  53.372  1.00  0.00     0.019 A 
HETATM   17  C15 UNL     1      21.166  -0.461  53.342  1.00  0.00     0.013 A 
HETATM   18 BR1  UNL     1      22.189  -1.102  54.805  1.00  0.00    -0.051 Br
HETATM   19  C16 UNL     1      21.819   0.033  52.239  1.00  0.00     0.048 A 
ENDBRANCH  11  13
ENDBRANCH   8  11
BRANCH   1  20
HETATM   20  N1  UNL     1      26.671   2.259  51.164  1.00  0.00    -0.327 N 
HETATM   21  C4  UNL     1      26.539   2.060  52.591  1.00  0.00     0.229 C 
HETATM   22  O2  UNL     1      25.631   2.430  53.376  1.00  0.00    -0.273 OA
HETATM   23  H6  UNL     1      27.515   1.863  50.687  1.00  0.00     0.169 HD
BRANCH  21  24
HETATM   24  C3  UNL     1      27.554   1.321  53.396  1.00  0.00     0.180 C 
BRANCH  24  25
HETATM   25  C2  UNL     1      27.070  -0.042  53.751  1.00  0.00     0.131 C 
HETATM   26  C1  UNL     1      26.324  -0.970  52.821  1.00  0.00     0.091 C 
HETATM   27  O1  UNL     1      27.371  -0.292  54.906  1.00  0.00    -0.298 OA
ENDBRANCH  24  25
ENDBRANCH  21  24
ENDBRANCH   1  20
TORSDOF 5
ENDMDL
