MODEL 1
REMARK VINA RESULT:      -7.5      0.000      0.000
REMARK  6 active torsions:
REMARK  status: ('A' for Active; 'I' for Inactive)
REMARK    1  A    between atoms: C2_2  and  N1_3 
REMARK    2  A    between atoms: C2_2  and  C11_14 
REMARK    3  A    between atoms: N1_3  and  C3_4 
REMARK    4  A    between atoms: C6_7  and  C7_8 
REMARK    5  A    between atoms: C7_8  and  O1_9 
REMARK    6  A    between atoms: O1_9  and  C8_10 
ROOT
HETATM    1  N1  UNL     1      24.678   1.348  51.665  1.00  0.00    -0.361 N 
HETATM    2  H3  UNL     1      24.466   1.415  50.623  1.00  0.00     0.165 HD
ENDROOT
BRANCH   1   3
HETATM    3  C2  UNL     1      25.908   2.078  51.894  1.00  0.00     0.015 C 
HETATM    4  C1  UNL     1      26.546   2.926  51.111  1.00  0.00     0.061 C 
BRANCH   3   5
HETATM    5  C11 UNL     1      26.476   1.787  53.207  1.00  0.00     0.163 A 
HETATM    6  N2  UNL     1      27.686   2.456  53.598  1.00  0.00    -0.376 N 
HETATM    7  C12 UNL     1      28.480   1.274  53.618  1.00  0.00     0.037 A 
HETATM    8  H12 UNL     1      27.707   3.490  53.754  1.00  0.00     0.160 HD
HETATM    9  C13 UNL     1      29.724   0.723  53.852  1.00  0.00     0.030 A 
HETATM   10  C17 UNL     1      27.372   0.576  53.200  1.00  0.00    -0.004 A 
HETATM   11  C14 UNL     1      29.863  -0.639  53.653  1.00  0.00     0.002 A 
HETATM   12  C15 UNL     1      28.751  -1.329  53.235  1.00  0.00     0.001 A 
HETATM   13  C16 UNL     1      27.491  -0.806  52.990  1.00  0.00     0.012 A 
ENDBRANCH   3   5
ENDBRANCH   1   3
BRANCH   1  14
HETATM   14  C3  UNL     1      23.695   0.607  52.397  1.00  0.00     0.032 A 
HETATM   15  C4  UNL     1      23.867  -0.314  53.394  1.00  0.00     0.030 A 
HETATM   16  C5  UNL     1      22.771  -0.917  53.965  1.00  0.00     0.011 A 
HETATM   17  C6  UNL     1      21.480  -0.632  53.573  1.00  0.00    -0.034 A 
HETATM   18  C9  UNL     1      21.312   0.292  52.572  1.00  0.00     0.011 A 
HETATM   19  C10 UNL     1      22.396   0.922  51.971  1.00  0.00     0.030 A 
BRANCH  17  20
HETATM   20  C7  UNL     1      20.220  -1.208  54.110  1.00  0.00     0.216 C 
BRANCH  20  21
HETATM   21  O1  UNL     1      19.119  -0.690  53.400  1.00  0.00    -0.324 OA
BRANCH  21  22
HETATM   22  C8  UNL     1      17.976  -1.359  53.066  1.00  0.00     0.398 C 
HETATM   23  O2  UNL     1      17.527  -2.377  53.597  1.00  0.00    -0.276 OA
ENDBRANCH  21  22
ENDBRANCH  20  21
ENDBRANCH  17  20
ENDBRANCH   1  14
TORSDOF 6
ENDMDL
MODEL 2
REMARK VINA RESULT:      -7.4      3.575      6.835
REMARK  6 active torsions:
REMARK  status: ('A' for Active; 'I' for Inactive)
REMARK    1  A    between atoms: C2_2  and  N1_3 
REMARK    2  A    between atoms: C2_2  and  C11_14 
REMARK    3  A    between atoms: N1_3  and  C3_4 
REMARK    4  A    between atoms: C6_7  and  C7_8 
REMARK    5  A    between atoms: C7_8  and  O1_9 
REMARK    6  A    between atoms: O1_9  and  C8_10 
ROOT
HETATM    1  N1  UNL     1      23.021   2.336  51.355  1.00  0.00    -0.361 N 
HETATM    2  H3  UNL     1      22.439   3.022  51.926  1.00  0.00     0.165 HD
ENDROOT
BRANCH   1   3
HETATM    3  C2  UNL     1      22.119   1.687  50.426  1.00  0.00     0.015 C 
HETATM    4  C1  UNL     1      22.113   1.695  49.108  1.00  0.00     0.061 C 
BRANCH   3   5
HETATM    5  C11 UNL     1      21.085   0.923  51.117  1.00  0.00     0.163 A 
HETATM    6  N2  UNL     1      20.334   1.565  52.161  1.00  0.00    -0.376 N 
HETATM    7  C12 UNL     1      20.846   0.744  53.205  1.00  0.00     0.037 A 
HETATM    8  H12 UNL     1      19.687   2.360  51.951  1.00  0.00     0.160 HD
HETATM    9  C13 UNL     1      20.830   0.449  54.555  1.00  0.00     0.030 A 
HETATM   10  C17 UNL     1      21.627   0.113  52.267  1.00  0.00    -0.004 A 
HETATM   11  C14 UNL     1      21.665  -0.563  54.993  1.00  0.00     0.002 A 
HETATM   12  C15 UNL     1      22.443  -1.188  54.049  1.00  0.00     0.001 A 
HETATM   13  C16 UNL     1      22.483  -0.915  52.690  1.00  0.00     0.012 A 
ENDBRANCH   3   5
ENDBRANCH   1   3
BRANCH   1  14
HETATM   14  C3  UNL     1      24.410   2.340  51.708  1.00  0.00     0.032 A 
HETATM   15  C4  UNL     1      25.509   2.481  50.906  1.00  0.00     0.030 A 
HETATM   16  C5  UNL     1      26.768   2.450  51.459  1.00  0.00     0.011 A 
HETATM   17  C6  UNL     1      26.979   2.284  52.812  1.00  0.00    -0.034 A 
HETATM   18  C9  UNL     1      25.873   2.143  53.613  1.00  0.00     0.011 A 
HETATM   19  C10 UNL     1      24.585   2.168  53.089  1.00  0.00     0.030 A 
BRANCH  17  20
HETATM   20  C7  UNL     1      28.280   2.238  53.529  1.00  0.00     0.216 C 
BRANCH  20  21
HETATM   21  O1  UNL     1      28.840   0.950  53.420  1.00  0.00    -0.324 OA
BRANCH  21  22
HETATM   22  C8  UNL     1      28.857  -0.016  54.385  1.00  0.00     0.398 C 
HETATM   23  O2  UNL     1      27.919  -0.369  55.102  1.00  0.00    -0.276 OA
ENDBRANCH  21  22
ENDBRANCH  20  21
ENDBRANCH  17  20
ENDBRANCH   1  14
TORSDOF 6
ENDMDL
MODEL 3
REMARK VINA RESULT:      -7.3      5.233      8.119
REMARK  6 active torsions:
REMARK  status: ('A' for Active; 'I' for Inactive)
REMARK    1  A    between atoms: C2_2  and  N1_3 
REMARK    2  A    between atoms: C2_2  and  C11_14 
REMARK    3  A    between atoms: N1_3  and  C3_4 
REMARK    4  A    between atoms: C6_7  and  C7_8 
REMARK    5  A    between atoms: C7_8  and  O1_9 
REMARK    6  A    between atoms: O1_9  and  C8_10 
ROOT
HETATM    1  N1  UNL     1      24.178   4.010  50.435  1.00  0.00    -0.361 N 
HETATM    2  H3  UNL     1      23.319   3.914  49.812  1.00  0.00     0.165 HD
ENDROOT
BRANCH   1   3
HETATM    3  C2  UNL     1      23.871   3.345  51.685  1.00  0.00     0.015 C 
HETATM    4  C1  UNL     1      23.696   3.850  52.890  1.00  0.00     0.061 C 
BRANCH   3   5
HETATM    5  C11 UNL     1      23.751   1.900  51.516  1.00  0.00     0.163 A 
HETATM    6  N2  UNL     1      23.154   1.130  52.573  1.00  0.00    -0.376 N 
HETATM    7  C12 UNL     1      24.346   0.425  52.900  1.00  0.00     0.037 A 
HETATM    8  H12 UNL     1      22.144   1.243  52.821  1.00  0.00     0.160 HD
HETATM    9  C13 UNL     1      24.939  -0.532  53.702  1.00  0.00     0.030 A 
HETATM   10  C17 UNL     1      24.993   1.158  51.934  1.00  0.00    -0.004 A 
HETATM   11  C14 UNL     1      26.289  -0.770  53.514  1.00  0.00     0.002 A 
HETATM   12  C15 UNL     1      26.928  -0.033  52.547  1.00  0.00     0.001 A 
HETATM   13  C16 UNL     1      26.363   0.933  51.728  1.00  0.00     0.012 A 
ENDBRANCH   3   5
ENDBRANCH   1   3
BRANCH   1  14
HETATM   14  C3  UNL     1      25.255   4.717  49.809  1.00  0.00     0.032 A 
HETATM   15  C4  UNL     1      25.349   6.043  49.481  1.00  0.00     0.030 A 
HETATM   16  C5  UNL     1      26.488   6.518  48.874  1.00  0.00     0.011 A 
HETATM   17  C6  UNL     1      27.563   5.707  48.576  1.00  0.00    -0.034 A 
HETATM   18  C9  UNL     1      27.464   4.378  48.906  1.00  0.00     0.011 A 
HETATM   19  C10 UNL     1      26.328   3.861  49.520  1.00  0.00     0.030 A 
BRANCH  17  20
HETATM   20  C7  UNL     1      28.843   6.097  47.930  1.00  0.00     0.216 C 
BRANCH  20  21
HETATM   21  O1  UNL     1      29.867   5.218  48.333  1.00  0.00    -0.324 OA
BRANCH  21  22
HETATM   22  C8  UNL     1      31.132   5.149  47.822  1.00  0.00     0.398 C 
HETATM   23  O2  UNL     1      32.012   4.340  48.120  1.00  0.00    -0.276 OA
ENDBRANCH  21  22
ENDBRANCH  20  21
ENDBRANCH  17  20
ENDBRANCH   1  14
TORSDOF 6
ENDMDL
MODEL 4
REMARK VINA RESULT:      -7.3      3.865      7.047
REMARK  6 active torsions:
REMARK  status: ('A' for Active; 'I' for Inactive)
REMARK    1  A    between atoms: C2_2  and  N1_3 
REMARK    2  A    between atoms: C2_2  and  C11_14 
REMARK    3  A    between atoms: N1_3  and  C3_4 
REMARK    4  A    between atoms: C6_7  and  C7_8 
REMARK    5  A    between atoms: C7_8  and  O1_9 
REMARK    6  A    between atoms: O1_9  and  C8_10 
ROOT
HETATM    1  N1  UNL     1      23.211  -0.493  53.165  1.00  0.00    -0.361 N 
HETATM    2  H3  UNL     1      23.045  -1.421  52.670  1.00  0.00     0.165 HD
ENDROOT
BRANCH   1   3
HETATM    3  C2  UNL     1      21.918  -0.008  53.602  1.00  0.00     0.015 C 
HETATM    4  C1  UNL     1      21.324  -0.122  54.774  1.00  0.00     0.061 C 
BRANCH   3   5
HETATM    5  C11 UNL     1      21.217   0.705  52.539  1.00  0.00     0.163 A 
HETATM    6  N2  UNL     1      21.329   0.217  51.192  1.00  0.00    -0.376 N 
HETATM    7  C12 UNL     1      22.043   1.350  50.709  1.00  0.00     0.037 A 
HETATM    8  H12 UNL     1      20.925  -0.707  50.916  1.00  0.00     0.160 HD
HETATM    9  C13 UNL     1      22.637   1.964  49.623  1.00  0.00     0.030 A 
HETATM   10  C17 UNL     1      22.013   1.858  51.986  1.00  0.00    -0.004 A 
HETATM   11  C14 UNL     1      23.248   3.186  49.841  1.00  0.00     0.002 A 
HETATM   12  C15 UNL     1      23.213   3.686  51.120  1.00  0.00     0.001 A 
HETATM   13  C16 UNL     1      22.628   3.096  52.229  1.00  0.00     0.012 A 
ENDBRANCH   3   5
ENDBRANCH   1   3
BRANCH   1  14
HETATM   14  C3  UNL     1      24.592  -0.115  53.213  1.00  0.00     0.032 A 
HETATM   15  C4  UNL     1      25.370   0.456  52.242  1.00  0.00     0.030 A 
HETATM   16  C5  UNL     1      26.691   0.736  52.501  1.00  0.00     0.011 A 
HETATM   17  C6  UNL     1      27.282   0.464  53.718  1.00  0.00    -0.034 A 
HETATM   18  C9  UNL     1      26.498  -0.109  54.688  1.00  0.00     0.011 A 
HETATM   19  C10 UNL     1      25.158  -0.407  54.462  1.00  0.00     0.030 A 
BRANCH  17  20
HETATM   20  C7  UNL     1      28.688   0.720  54.122  1.00  0.00     0.216 C 
BRANCH  20  21
HETATM   21  O1  UNL     1      29.345  -0.502  54.363  1.00  0.00    -0.324 OA
BRANCH  21  22
HETATM   22  C8  UNL     1      29.568  -1.501  53.458  1.00  0.00     0.398 C 
HETATM   23  O2  UNL     1      29.069  -2.628  53.456  1.00  0.00    -0.276 OA
ENDBRANCH  21  22
ENDBRANCH  20  21
ENDBRANCH  17  20
ENDBRANCH   1  14
TORSDOF 6
ENDMDL
MODEL 5
REMARK VINA RESULT:      -7.3      4.705      7.121
REMARK  6 active torsions:
REMARK  status: ('A' for Active; 'I' for Inactive)
REMARK    1  A    between atoms: C2_2  and  N1_3 
REMARK    2  A    between atoms: C2_2  and  C11_14 
REMARK    3  A    between atoms: N1_3  and  C3_4 
REMARK    4  A    between atoms: C6_7  and  C7_8 
REMARK    5  A    between atoms: C7_8  and  O1_9 
REMARK    6  A    between atoms: O1_9  and  C8_10 
ROOT
HETATM    1  N1  UNL     1      25.659   2.286  51.226  1.00  0.00    -0.361 N 
HETATM    2  H3  UNL     1      26.422   1.607  50.924  1.00  0.00     0.165 HD
ENDROOT
BRANCH   1   3
HETATM    3  C2  UNL     1      24.883   1.620  52.252  1.00  0.00     0.015 C 
HETATM    4  C1  UNL     1      23.656   1.137  52.204  1.00  0.00     0.061 C 
BRANCH   3   5
HETATM    5  C11 UNL     1      25.626   1.495  53.501  1.00  0.00     0.163 A 
HETATM    6  N2  UNL     1      26.669   2.442  53.781  1.00  0.00    -0.376 N 
HETATM    7  C12 UNL     1      27.724   1.489  53.714  1.00  0.00     0.037 A 
HETATM    8  H12 UNL     1      26.453   3.453  53.944  1.00  0.00     0.160 HD
HETATM    9  C13 UNL     1      29.082   1.259  53.823  1.00  0.00     0.030 A 
HETATM   10  C17 UNL     1      26.784   0.537  53.398  1.00  0.00    -0.004 A 
HETATM   11  C14 UNL     1      29.528  -0.030  53.599  1.00  0.00     0.002 A 
HETATM   12  C15 UNL     1      28.583  -0.976  53.283  1.00  0.00     0.001 A 
HETATM   13  C16 UNL     1      27.216  -0.778  53.165  1.00  0.00     0.012 A 
ENDBRANCH   3   5
ENDBRANCH   1   3
BRANCH   1  14
HETATM   14  C3  UNL     1      25.711   3.541  50.537  1.00  0.00     0.032 A 
HETATM   15  C4  UNL     1      24.861   4.611  50.617  1.00  0.00     0.030 A 
HETATM   16  C5  UNL     1      25.098   5.730  49.855  1.00  0.00     0.011 A 
HETATM   17  C6  UNL     1      26.174   5.830  48.998  1.00  0.00    -0.034 A 
HETATM   18  C9  UNL     1      27.024   4.754  48.921  1.00  0.00     0.011 A 
HETATM   19  C10 UNL     1      26.816   3.605  49.676  1.00  0.00     0.030 A 
BRANCH  17  20
HETATM   20  C7  UNL     1      26.541   6.978  48.129  1.00  0.00     0.216 C 
BRANCH  20  21
HETATM   21  O1  UNL     1      26.424   8.180  48.854  1.00  0.00    -0.324 OA
BRANCH  21  22
HETATM   22  C8  UNL     1      27.402   8.790  49.588  1.00  0.00     0.398 C 
HETATM   23  O2  UNL     1      27.249   9.573  50.527  1.00  0.00    -0.276 OA
ENDBRANCH  21  22
ENDBRANCH  20  21
ENDBRANCH  17  20
ENDBRANCH   1  14
TORSDOF 6
ENDMDL
MODEL 6
REMARK VINA RESULT:      -7.2      1.532      2.151
REMARK  6 active torsions:
REMARK  status: ('A' for Active; 'I' for Inactive)
REMARK    1  A    between atoms: C2_2  and  N1_3 
REMARK    2  A    between atoms: C2_2  and  C11_14 
REMARK    3  A    between atoms: N1_3  and  C3_4 
REMARK    4  A    between atoms: C6_7  and  C7_8 
REMARK    5  A    between atoms: C7_8  and  O1_9 
REMARK    6  A    between atoms: O1_9  and  C8_10 
ROOT
HETATM    1  N1  UNL     1      24.289  -0.147  53.638  1.00  0.00    -0.361 N 
HETATM    2  H3  UNL     1      24.718  -0.955  54.184  1.00  0.00     0.165 HD
ENDROOT
BRANCH   1   3
HETATM    3  C2  UNL     1      25.373   0.750  53.290  1.00  0.00     0.015 C 
HETATM    4  C1  UNL     1      25.597   1.992  53.671  1.00  0.00     0.061 C 
BRANCH   3   5
HETATM    5  C11 UNL     1      26.326   0.124  52.379  1.00  0.00     0.163 A 
HETATM    6  N2  UNL     1      26.487  -1.303  52.424  1.00  0.00    -0.376 N 
HETATM    7  C12 UNL     1      27.829  -1.262  52.899  1.00  0.00     0.037 A 
HETATM    8  H12 UNL     1      25.710  -1.945  52.144  1.00  0.00     0.160 HD
HETATM    9  C13 UNL     1      28.944  -1.985  53.274  1.00  0.00     0.030 A 
HETATM   10  C17 UNL     1      27.730   0.109  52.923  1.00  0.00    -0.004 A 
HETATM   11  C14 UNL     1      30.048  -1.272  53.705  1.00  0.00     0.002 A 
HETATM   12  C15 UNL     1      29.942   0.098  53.727  1.00  0.00     0.001 A 
HETATM   13  C16 UNL     1      28.838   0.852  53.360  1.00  0.00     0.012 A 
ENDBRANCH   3   5
ENDBRANCH   1   3
BRANCH   1  14
HETATM   14  C3  UNL     1      22.873  -0.271  53.460  1.00  0.00     0.032 A 
HETATM   15  C4  UNL     1      21.958  -0.941  54.226  1.00  0.00     0.030 A 
HETATM   16  C5  UNL     1      20.631  -0.933  53.867  1.00  0.00     0.011 A 
HETATM   17  C6  UNL     1      20.168  -0.268  52.751  1.00  0.00    -0.034 A 
HETATM   18  C9  UNL     1      21.090   0.403  51.986  1.00  0.00     0.011 A 
HETATM   19  C10 UNL     1      22.441   0.417  52.317  1.00  0.00     0.030 A 
BRANCH  17  20
HETATM   20  C7  UNL     1      18.768  -0.180  52.261  1.00  0.00     0.216 C 
BRANCH  20  21
HETATM   21  O1  UNL     1      17.987  -1.183  52.868  1.00  0.00    -0.324 OA
BRANCH  21  22
HETATM   22  C8  UNL     1      16.629  -1.178  53.021  1.00  0.00     0.398 C 
HETATM   23  O2  UNL     1      15.885  -0.196  53.033  1.00  0.00    -0.276 OA
ENDBRANCH  21  22
ENDBRANCH  20  21
ENDBRANCH  17  20
ENDBRANCH   1  14
TORSDOF 6
ENDMDL
MODEL 7
REMARK VINA RESULT:      -7.2      3.448      7.654
REMARK  6 active torsions:
REMARK  status: ('A' for Active; 'I' for Inactive)
REMARK    1  A    between atoms: C2_2  and  N1_3 
REMARK    2  A    between atoms: C2_2  and  C11_14 
REMARK    3  A    between atoms: N1_3  and  C3_4 
REMARK    4  A    between atoms: C6_7  and  C7_8 
REMARK    5  A    between atoms: C7_8  and  O1_9 
REMARK    6  A    between atoms: O1_9  and  C8_10 
ROOT
HETATM    1  N1  UNL     1      22.703   2.318  52.148  1.00  0.00    -0.361 N 
HETATM    2  H3  UNL     1      23.039   3.327  52.097  1.00  0.00     0.165 HD
ENDROOT
BRANCH   1   3
HETATM    3  C2  UNL     1      21.284   2.329  51.859  1.00  0.00     0.015 C 
HETATM    4  C1  UNL     1      20.378   3.255  52.103  1.00  0.00     0.061 C 
BRANCH   3   5
HETATM    5  C11 UNL     1      20.855   1.102  51.195  1.00  0.00     0.163 A 
HETATM    6  N2  UNL     1      19.655   1.128  50.404  1.00  0.00    -0.376 N 
HETATM    7  C12 UNL     1      18.925   0.254  51.258  1.00  0.00     0.037 A 
HETATM    8  H12 UNL     1      19.599   1.691  49.525  1.00  0.00     0.160 HD
HETATM    9  C13 UNL     1      17.736  -0.411  51.485  1.00  0.00     0.030 A 
HETATM   10  C17 UNL     1      20.022   0.217  52.085  1.00  0.00    -0.004 A 
HETATM   11  C14 UNL     1      17.644  -1.174  52.635  1.00  0.00     0.002 A 
HETATM   12  C15 UNL     1      18.745  -1.205  53.457  1.00  0.00     0.001 A 
HETATM   13  C16 UNL     1      19.950  -0.550  53.259  1.00  0.00     0.012 A 
ENDBRANCH   3   5
ENDBRANCH   1   3
BRANCH   1  14
HETATM   14  C3  UNL     1      23.748   1.388  52.457  1.00  0.00     0.032 A 
HETATM   15  C4  UNL     1      23.724   0.299  53.286  1.00  0.00     0.030 A 
HETATM   16  C5  UNL     1      24.856  -0.466  53.442  1.00  0.00     0.011 A 
HETATM   17  C6  UNL     1      26.038  -0.183  52.790  1.00  0.00    -0.034 A 
HETATM   18  C9  UNL     1      26.058   0.910  51.960  1.00  0.00     0.011 A 
HETATM   19  C10 UNL     1      24.933   1.708  51.778  1.00  0.00     0.030 A 
BRANCH  17  20
HETATM   20  C7  UNL     1      27.321  -0.929  52.871  1.00  0.00     0.216 C 
BRANCH  20  21
HETATM   21  O1  UNL     1      27.813  -0.889  54.190  1.00  0.00    -0.324 OA
BRANCH  21  22
HETATM   22  C8  UNL     1      28.683   0.028  54.710  1.00  0.00     0.398 C 
HETATM   23  O2  UNL     1      28.494   1.238  54.846  1.00  0.00    -0.276 OA
ENDBRANCH  21  22
ENDBRANCH  20  21
ENDBRANCH  17  20
ENDBRANCH   1  14
TORSDOF 6
ENDMDL
MODEL 8
REMARK VINA RESULT:      -7.1      4.185      6.633
REMARK  6 active torsions:
REMARK  status: ('A' for Active; 'I' for Inactive)
REMARK    1  A    between atoms: C2_2  and  N1_3 
REMARK    2  A    between atoms: C2_2  and  C11_14 
REMARK    3  A    between atoms: N1_3  and  C3_4 
REMARK    4  A    between atoms: C6_7  and  C7_8 
REMARK    5  A    between atoms: C7_8  and  O1_9 
REMARK    6  A    between atoms: O1_9  and  C8_10 
ROOT
HETATM    1  N1  UNL     1      23.888   3.194  50.465  1.00  0.00    -0.361 N 
HETATM    2  H3  UNL     1      22.846   2.996  50.564  1.00  0.00     0.165 HD
ENDROOT
BRANCH   1   3
HETATM    3  C2  UNL     1      24.015   4.383  49.648  1.00  0.00     0.015 C 
HETATM    4  C1  UNL     1      23.392   4.714  48.533  1.00  0.00     0.061 C 
BRANCH   3   5
HETATM    5  C11 UNL     1      24.996   5.316  50.194  1.00  0.00     0.163 A 
HETATM    6  N2  UNL     1      24.947   6.691  49.778  1.00  0.00    -0.376 N 
HETATM    7  C12 UNL     1      26.194   6.659  49.094  1.00  0.00     0.037 A 
HETATM    8  H12 UNL     1      24.138   7.304  50.032  1.00  0.00     0.160 HD
HETATM    9  C13 UNL     1      27.128   7.365  48.361  1.00  0.00     0.030 A 
HETATM   10  C17 UNL     1      26.288   5.326  49.418  1.00  0.00    -0.004 A 
HETATM   11  C14 UNL     1      28.244   6.676  47.922  1.00  0.00     0.002 A 
HETATM   12  C15 UNL     1      28.330   5.345  48.249  1.00  0.00     0.001 A 
HETATM   13  C16 UNL     1      27.411   4.607  48.980  1.00  0.00     0.012 A 
ENDBRANCH   3   5
ENDBRANCH   1   3
BRANCH   1  14
HETATM   14  C3  UNL     1      24.713   2.255  51.164  1.00  0.00     0.032 A 
HETATM   15  C4  UNL     1      26.068   2.073  51.099  1.00  0.00     0.030 A 
HETATM   16  C5  UNL     1      26.664   1.097  51.862  1.00  0.00     0.011 A 
HETATM   17  C6  UNL     1      25.949   0.277  52.708  1.00  0.00    -0.034 A 
HETATM   18  C9  UNL     1      24.590   0.462  52.770  1.00  0.00     0.011 A 
HETATM   19  C10 UNL     1      23.951   1.439  52.012  1.00  0.00     0.030 A 
BRANCH  17  20
HETATM   20  C7  UNL     1      26.472  -0.804  53.583  1.00  0.00     0.216 C 
BRANCH  20  21
HETATM   21  O1  UNL     1      27.090  -0.243  54.717  1.00  0.00    -0.324 OA
BRANCH  21  22
HETATM   22  C8  UNL     1      28.416   0.055  54.861  1.00  0.00     0.398 C 
HETATM   23  O2  UNL     1      29.357  -0.415  54.219  1.00  0.00    -0.276 OA
ENDBRANCH  21  22
ENDBRANCH  20  21
ENDBRANCH  17  20
ENDBRANCH   1  14
TORSDOF 6
ENDMDL
MODEL 9
REMARK VINA RESULT:      -7.1      5.567      7.991
REMARK  6 active torsions:
REMARK  status: ('A' for Active; 'I' for Inactive)
REMARK    1  A    between atoms: C2_2  and  N1_3 
REMARK    2  A    between atoms: C2_2  and  C11_14 
REMARK    3  A    between atoms: N1_3  and  C3_4 
REMARK    4  A    between atoms: C6_7  and  C7_8 
REMARK    5  A    between atoms: C7_8  and  O1_9 
REMARK    6  A    between atoms: O1_9  and  C8_10 
ROOT
HETATM    1  N1  UNL     1      25.133   3.496  50.802  1.00  0.00    -0.361 N 
HETATM    2  H3  UNL     1      24.087   3.543  50.605  1.00  0.00     0.165 HD
ENDROOT
BRANCH   1   3
HETATM    3  C2  UNL     1      25.321   2.520  51.856  1.00  0.00     0.015 C 
HETATM    4  C1  UNL     1      24.653   2.350  52.980  1.00  0.00     0.061 C 
BRANCH   3   5
HETATM    5  C11 UNL     1      26.433   1.618  51.569  1.00  0.00     0.163 A 
HETATM    6  N2  UNL     1      26.308   0.233  51.930  1.00  0.00    -0.376 N 
HETATM    7  C12 UNL     1      27.331   0.270  52.919  1.00  0.00     0.037 A 
HETATM    8  H12 UNL     1      25.609  -0.387  51.461  1.00  0.00     0.160 HD
HETATM    9  C13 UNL     1      28.056  -0.438  53.858  1.00  0.00     0.030 A 
HETATM   10  C17 UNL     1      27.475   1.612  52.657  1.00  0.00    -0.004 A 
HETATM   11  C14 UNL     1      29.001   0.259  54.588  1.00  0.00     0.002 A 
HETATM   12  C15 UNL     1      29.139   1.600  54.320  1.00  0.00     0.001 A 
HETATM   13  C16 UNL     1      28.427   2.339  53.388  1.00  0.00     0.012 A 
ENDBRANCH   3   5
ENDBRANCH   1   3
BRANCH   1  14
HETATM   14  C3  UNL     1      25.906   4.371  49.972  1.00  0.00     0.032 A 
HETATM   15  C4  UNL     1      27.024   4.100  49.230  1.00  0.00     0.030 A 
HETATM   16  C5  UNL     1      27.617   5.101  48.498  1.00  0.00     0.011 A 
HETATM   17  C6  UNL     1      27.130   6.391  48.474  1.00  0.00    -0.034 A 
HETATM   18  C9  UNL     1      26.009   6.658  49.220  1.00  0.00     0.011 A 
HETATM   19  C10 UNL     1      25.381   5.671  49.973  1.00  0.00     0.030 A 
BRANCH  17  20
HETATM   20  C7  UNL     1      27.674   7.554  47.726  1.00  0.00     0.216 C 
BRANCH  20  21
HETATM   21  O1  UNL     1      29.036   7.727  48.039  1.00  0.00    -0.324 OA
BRANCH  21  22
HETATM   22  C8  UNL     1      29.562   8.625  48.924  1.00  0.00     0.398 C 
HETATM   23  O2  UNL     1      28.942   9.369  49.687  1.00  0.00    -0.276 OA
ENDBRANCH  21  22
ENDBRANCH  20  21
ENDBRANCH  17  20
ENDBRANCH   1  14
TORSDOF 6
ENDMDL
