MODEL 1
REMARK VINA RESULT:      -7.9      0.000      0.000
REMARK  7 active torsions:
REMARK  status: ('A' for Active; 'I' for Inactive)
REMARK    1  A    between atoms: C2_2  and  N1_3 
REMARK    2  A    between atoms: N1_3  and  C4_5 
REMARK    3  A    between atoms: C4_5  and  C5_6 
REMARK    4  A    between atoms: C5_6  and  N2_7 
REMARK    5  A    between atoms: N2_7  and  C6_8 
REMARK    6  A    between atoms: C6_8  and  C8_10 
REMARK    7  A    between atoms: C11_14  and  C12_15 
ROOT
HETATM    1  C8  UNL     1      21.366   1.111  51.846  1.00  0.00    -0.016 A 
HETATM    2  C9  UNL     1      20.739   0.436  52.879  1.00  0.00    -0.012 A 
HETATM    3  C10 UNL     1      19.325   0.286  53.334  1.00  0.00     0.057 C 
HETATM    4  S1  UNL     1      22.104  -0.387  53.780  1.00  0.00    -0.094 SA
HETATM    5  C11 UNL     1      23.395   0.258  52.679  1.00  0.00     0.013 A 
HETATM    6  C21 UNL     1      22.715   1.042  51.715  1.00  0.00    -0.035 A 
HETATM    7  C22 UNL     1      23.518   1.709  50.663  1.00  0.00     0.050 C 
ENDROOT
BRANCH   5   8
HETATM    8  C12 UNL     1      24.799  -0.042  52.847  1.00  0.00     0.037 C 
HETATM    9  C13 UNL     1      25.741   0.754  53.236  1.00  0.00     0.046 A 
HETATM   10  C14 UNL     1      25.684   2.137  53.614  1.00  0.00     0.257 A 
HETATM   11  C20 UNL     1      27.120   0.311  53.357  1.00  0.00     0.009 A 
HETATM   12  O1  UNL     1      24.710   2.923  53.663  1.00  0.00    -0.267 OA
HETATM   13  N3  UNL     1      27.005   2.517  53.956  1.00  0.00    -0.322 N 
HETATM   14  C15 UNL     1      27.886   1.391  53.797  1.00  0.00     0.046 A 
HETATM   15  H22 UNL     1      27.326   3.462  54.278  1.00  0.00     0.169 HD
HETATM   16  C16 UNL     1      29.233   1.245  53.993  1.00  0.00     0.033 A 
HETATM   17  C17 UNL     1      29.882   0.040  53.768  1.00  0.00     0.044 A 
HETATM   18  C18 UNL     1      29.105  -1.008  53.336  1.00  0.00     0.117 A 
HETATM   19  F1  UNL     1      29.815  -2.167  53.138  1.00  0.00    -0.206 F 
HETATM   20  C19 UNL     1      27.738  -0.918  53.119  1.00  0.00     0.057 A 
ENDBRANCH   5   8
BRANCH   1  21
HETATM   21  C6  UNL     1      20.477   1.897  50.917  1.00  0.00     0.107 C 
HETATM   22  C7  UNL     1      20.225   1.084  49.672  1.00  0.00     0.037 C 
BRANCH  21  23
HETATM   23  N2  UNL     1      21.049   3.168  50.667  1.00  0.00    -0.412 N 
HETATM   24  H13 UNL     1      21.963   3.200  50.207  1.00  0.00     0.153 HD
BRANCH  23  25
HETATM   25  C5  UNL     1      20.872   4.208  51.588  1.00  0.00     0.144 C 
BRANCH  25  26
HETATM   26  C4  UNL     1      22.079   4.801  52.224  1.00  0.00     0.291 C 
BRANCH  26  27
HETATM   27  N1  UNL     1      22.666   5.928  51.586  1.00  0.00     0.085 N 
HETATM   28  C3  UNL     1      21.795   6.512  50.567  1.00  0.00     0.309 C 
BRANCH  27  29
HETATM   29  C2  UNL     1      23.825   5.435  50.822  1.00  0.00     0.267 C 
HETATM   30  C1  UNL     1      23.605   5.515  49.345  1.00  0.00     0.037 C 
ENDBRANCH  27  29
ENDBRANCH  26  27
ENDBRANCH  25  26
ENDBRANCH  23  25
ENDBRANCH  21  23
ENDBRANCH   1  21
TORSDOF 7
ENDMDL
MODEL 2
REMARK VINA RESULT:      -7.9      4.353      6.745
REMARK  7 active torsions:
REMARK  status: ('A' for Active; 'I' for Inactive)
REMARK    1  A    between atoms: C2_2  and  N1_3 
REMARK    2  A    between atoms: N1_3  and  C4_5 
REMARK    3  A    between atoms: C4_5  and  C5_6 
REMARK    4  A    between atoms: C5_6  and  N2_7 
REMARK    5  A    between atoms: N2_7  and  C6_8 
REMARK    6  A    between atoms: C6_8  and  C8_10 
REMARK    7  A    between atoms: C11_14  and  C12_15 
ROOT
HETATM    1  C8  UNL     1      25.693   5.647  49.730  1.00  0.00    -0.016 A 
HETATM    2  C9  UNL     1      26.734   4.906  49.198  1.00  0.00    -0.012 A 
HETATM    3  C10 UNL     1      27.973   5.230  48.430  1.00  0.00     0.057 C 
HETATM    4  S1  UNL     1      26.321   3.173  49.621  1.00  0.00    -0.094 SA
HETATM    5  C11 UNL     1      24.781   3.610  50.476  1.00  0.00     0.013 A 
HETATM    6  C21 UNL     1      24.684   5.020  50.386  1.00  0.00    -0.035 A 
HETATM    7  C22 UNL     1      23.510   5.682  51.004  1.00  0.00     0.050 C 
ENDROOT
BRANCH   5   8
HETATM    8  C12 UNL     1      23.914   2.632  51.092  1.00  0.00     0.037 C 
HETATM    9  C13 UNL     1      24.195   1.810  52.051  1.00  0.00     0.046 A 
HETATM   10  C14 UNL     1      25.417   1.627  52.781  1.00  0.00     0.257 A 
HETATM   11  C20 UNL     1      23.214   0.873  52.571  1.00  0.00     0.009 A 
HETATM   12  O1  UNL     1      26.519   2.213  52.674  1.00  0.00    -0.267 OA
HETATM   13  N3  UNL     1      25.174   0.597  53.722  1.00  0.00    -0.322 N 
HETATM   14  C15 UNL     1      23.817   0.136  53.592  1.00  0.00     0.046 A 
HETATM   15  H22 UNL     1      25.852   0.208  54.420  1.00  0.00     0.169 HD
HETATM   16  C16 UNL     1      23.108  -0.828  54.256  1.00  0.00     0.033 A 
HETATM   17  C17 UNL     1      21.784  -1.108  53.951  1.00  0.00     0.044 A 
HETATM   18  C18 UNL     1      21.214  -0.368  52.943  1.00  0.00     0.117 A 
HETATM   19  F1  UNL     1      19.903  -0.698  52.700  1.00  0.00    -0.206 F 
HETATM   20  C19 UNL     1      21.883   0.619  52.236  1.00  0.00     0.057 A 
ENDBRANCH   5   8
BRANCH   1  21
HETATM   21  C6  UNL     1      25.759   7.140  49.534  1.00  0.00     0.107 C 
HETATM   22  C7  UNL     1      25.560   7.455  48.073  1.00  0.00     0.037 C 
BRANCH  21  23
HETATM   23  N2  UNL     1      26.971   7.640  50.070  1.00  0.00    -0.412 N 
HETATM   24  H13 UNL     1      27.384   7.144  50.864  1.00  0.00     0.153 HD
BRANCH  23  25
HETATM   25  C5  UNL     1      27.195   9.022  50.121  1.00  0.00     0.144 C 
BRANCH  25  26
HETATM   26  C4  UNL     1      28.426   9.561  49.482  1.00  0.00     0.291 C 
BRANCH  26  27
HETATM   27  N1  UNL     1      29.207   8.660  48.706  1.00  0.00     0.085 N 
HETATM   28  C3  UNL     1      30.615   8.658  49.097  1.00  0.00     0.309 C 
BRANCH  27  29
HETATM   29  C2  UNL     1      29.222   9.181  47.328  1.00  0.00     0.267 C 
HETATM   30  C1  UNL     1      28.759   8.164  46.334  1.00  0.00     0.037 C 
ENDBRANCH  27  29
ENDBRANCH  26  27
ENDBRANCH  25  26
ENDBRANCH  23  25
ENDBRANCH  21  23
ENDBRANCH   1  21
TORSDOF 7
ENDMDL
MODEL 3
REMARK VINA RESULT:      -7.7      1.836      2.833
REMARK  7 active torsions:
REMARK  status: ('A' for Active; 'I' for Inactive)
REMARK    1  A    between atoms: C2_2  and  N1_3 
REMARK    2  A    between atoms: N1_3  and  C4_5 
REMARK    3  A    between atoms: C4_5  and  C5_6 
REMARK    4  A    between atoms: C5_6  and  N2_7 
REMARK    5  A    between atoms: N2_7  and  C6_8 
REMARK    6  A    between atoms: C6_8  and  C8_10 
REMARK    7  A    between atoms: C11_14  and  C12_15 
ROOT
HETATM    1  C8  UNL     1      21.272   0.954  51.766  1.00  0.00    -0.016 A 
HETATM    2  C9  UNL     1      20.657   0.198  52.751  1.00  0.00    -0.012 A 
HETATM    3  C10 UNL     1      19.243  -0.046  53.162  1.00  0.00     0.057 C 
HETATM    4  S1  UNL     1      22.043  -0.595  53.648  1.00  0.00    -0.094 SA
HETATM    5  C11 UNL     1      23.323   0.167  52.611  1.00  0.00     0.013 A 
HETATM    6  C21 UNL     1      22.626   0.961  51.667  1.00  0.00    -0.035 A 
HETATM    7  C22 UNL     1      23.416   1.718  50.669  1.00  0.00     0.050 C 
ENDROOT
BRANCH   5   8
HETATM    8  C12 UNL     1      24.736  -0.066  52.801  1.00  0.00     0.037 C 
HETATM    9  C13 UNL     1      25.636   0.775  53.196  1.00  0.00     0.046 A 
HETATM   10  C14 UNL     1      25.511   2.157  53.560  1.00  0.00     0.257 A 
HETATM   11  C20 UNL     1      27.032   0.396  53.340  1.00  0.00     0.009 A 
HETATM   12  O1  UNL     1      24.502   2.899  53.587  1.00  0.00    -0.267 OA
HETATM   13  N3  UNL     1      26.808   2.600  53.916  1.00  0.00    -0.322 N 
HETATM   14  C15 UNL     1      27.742   1.514  53.781  1.00  0.00     0.046 A 
HETATM   15  H22 UNL     1      27.082   3.561  54.233  1.00  0.00     0.169 HD
HETATM   16  C16 UNL     1      29.091   1.431  53.997  1.00  0.00     0.033 A 
HETATM   17  C17 UNL     1      29.797   0.254  53.792  1.00  0.00     0.044 A 
HETATM   18  C18 UNL     1      29.075  -0.832  53.359  1.00  0.00     0.117 A 
HETATM   19  F1  UNL     1      29.839  -1.959  53.183  1.00  0.00    -0.206 F 
HETATM   20  C19 UNL     1      27.708  -0.805  53.123  1.00  0.00     0.057 A 
ENDBRANCH   5   8
BRANCH   1  21
HETATM   21  C6  UNL     1      20.365   1.735  50.852  1.00  0.00     0.107 C 
HETATM   22  C7  UNL     1      20.582   1.276  49.432  1.00  0.00     0.037 C 
BRANCH  21  23
HETATM   23  N2  UNL     1      20.569   3.123  51.045  1.00  0.00    -0.412 N 
HETATM   24  H13 UNL     1      21.287   3.412  51.715  1.00  0.00     0.153 HD
BRANCH  23  25
HETATM   25  C5  UNL     1      19.480   4.003  51.007  1.00  0.00     0.144 C 
BRANCH  25  26
HETATM   26  C4  UNL     1      18.176   3.537  51.551  1.00  0.00     0.291 C 
BRANCH  26  27
HETATM   27  N1  UNL     1      17.108   3.363  50.628  1.00  0.00     0.085 N 
HETATM   28  C3  UNL     1      17.438   3.851  49.290  1.00  0.00     0.309 C 
BRANCH  27  29
HETATM   29  C2  UNL     1      16.012   4.245  51.067  1.00  0.00     0.267 C 
HETATM   30  C1  UNL     1      15.677   4.054  52.512  1.00  0.00     0.037 C 
ENDBRANCH  27  29
ENDBRANCH  26  27
ENDBRANCH  25  26
ENDBRANCH  23  25
ENDBRANCH  21  23
ENDBRANCH   1  21
TORSDOF 7
ENDMDL
MODEL 4
REMARK VINA RESULT:      -7.7      3.624      6.713
REMARK  7 active torsions:
REMARK  status: ('A' for Active; 'I' for Inactive)
REMARK    1  A    between atoms: C2_2  and  N1_3 
REMARK    2  A    between atoms: N1_3  and  C4_5 
REMARK    3  A    between atoms: C4_5  and  C5_6 
REMARK    4  A    between atoms: C5_6  and  N2_7 
REMARK    5  A    between atoms: N2_7  and  C6_8 
REMARK    6  A    between atoms: C6_8  and  C8_10 
REMARK    7  A    between atoms: C11_14  and  C12_15 
ROOT
HETATM    1  C8  UNL     1      23.069   1.798  50.817  1.00  0.00    -0.016 A 
HETATM    2  C9  UNL     1      22.172   1.791  49.763  1.00  0.00    -0.012 A 
HETATM    3  C10 UNL     1      20.916   1.046  49.453  1.00  0.00     0.057 C 
HETATM    4  S1  UNL     1      22.844   3.023  48.586  1.00  0.00    -0.094 SA
HETATM    5  C11 UNL     1      24.274   3.432  49.626  1.00  0.00     0.013 A 
HETATM    6  C21 UNL     1      24.149   2.620  50.780  1.00  0.00    -0.035 A 
HETATM    7  C22 UNL     1      25.187   2.732  51.831  1.00  0.00     0.050 C 
ENDROOT
BRANCH   5   8
HETATM    8  C12 UNL     1      25.270   4.409  49.251  1.00  0.00     0.037 C 
HETATM    9  C13 UNL     1      25.403   5.619  49.691  1.00  0.00     0.046 A 
HETATM   10  C14 UNL     1      24.629   6.339  50.661  1.00  0.00     0.257 A 
HETATM   11  C20 UNL     1      26.460   6.496  49.217  1.00  0.00     0.009 A 
HETATM   12  O1  UNL     1      23.629   5.981  51.325  1.00  0.00    -0.267 OA
HETATM   13  N3  UNL     1      25.210   7.626  50.767  1.00  0.00    -0.322 N 
HETATM   14  C15 UNL     1      26.338   7.719  49.878  1.00  0.00     0.046 A 
HETATM   15  H22 UNL     1      24.896   8.411  51.386  1.00  0.00     0.169 HD
HETATM   16  C16 UNL     1      27.216   8.736  49.613  1.00  0.00     0.033 A 
HETATM   17  C17 UNL     1      28.246   8.596  48.694  1.00  0.00     0.044 A 
HETATM   18  C18 UNL     1      28.345   7.382  48.058  1.00  0.00     0.117 A 
HETATM   19  F1  UNL     1      29.388   7.318  47.167  1.00  0.00    -0.206 F 
HETATM   20  C19 UNL     1      27.484   6.319  48.285  1.00  0.00     0.057 A 
ENDBRANCH   5   8
BRANCH   1  21
HETATM   21  C6  UNL     1      22.772   0.863  51.961  1.00  0.00     0.107 C 
HETATM   22  C7  UNL     1      21.984   1.604  53.011  1.00  0.00     0.037 C 
BRANCH  21  23
HETATM   23  N2  UNL     1      23.976   0.294  52.441  1.00  0.00    -0.412 N 
HETATM   24  H13 UNL     1      24.605  -0.141  51.760  1.00  0.00     0.153 HD
BRANCH  23  25
HETATM   25  C5  UNL     1      23.999  -0.350  53.685  1.00  0.00     0.144 C 
BRANCH  25  26
HETATM   26  C4  UNL     1      25.317  -0.735  54.256  1.00  0.00     0.291 C 
BRANCH  26  27
HETATM   27  N1  UNL     1      26.479  -0.180  53.651  1.00  0.00     0.085 N 
HETATM   28  C3  UNL     1      27.286  -1.184  52.960  1.00  0.00     0.309 C 
BRANCH  27  29
HETATM   29  C2  UNL     1      27.351   0.288  54.742  1.00  0.00     0.267 C 
HETATM   30  C1  UNL     1      28.801   0.190  54.388  1.00  0.00     0.037 C 
ENDBRANCH  27  29
ENDBRANCH  26  27
ENDBRANCH  25  26
ENDBRANCH  23  25
ENDBRANCH  21  23
ENDBRANCH   1  21
TORSDOF 7
ENDMDL
MODEL 5
REMARK VINA RESULT:      -7.7      4.306      7.201
REMARK  7 active torsions:
REMARK  status: ('A' for Active; 'I' for Inactive)
REMARK    1  A    between atoms: C2_2  and  N1_3 
REMARK    2  A    between atoms: N1_3  and  C4_5 
REMARK    3  A    between atoms: C4_5  and  C5_6 
REMARK    4  A    between atoms: C5_6  and  N2_7 
REMARK    5  A    between atoms: N2_7  and  C6_8 
REMARK    6  A    between atoms: C6_8  and  C8_10 
REMARK    7  A    between atoms: C11_14  and  C12_15 
ROOT
HETATM    1  C8  UNL     1      25.678   5.597  49.832  1.00  0.00    -0.016 A 
HETATM    2  C9  UNL     1      26.703   4.806  49.339  1.00  0.00    -0.012 A 
HETATM    3  C10 UNL     1      27.909   5.051  48.495  1.00  0.00     0.057 C 
HETATM    4  S1  UNL     1      26.316   3.126  49.956  1.00  0.00    -0.094 SA
HETATM    5  C11 UNL     1      24.808   3.647  50.820  1.00  0.00     0.013 A 
HETATM    6  C21 UNL     1      24.699   5.040  50.588  1.00  0.00    -0.035 A 
HETATM    7  C22 UNL     1      23.547   5.761  51.179  1.00  0.00     0.050 C 
ENDROOT
BRANCH   5   8
HETATM    8  C12 UNL     1      23.970   2.736  51.567  1.00  0.00     0.037 C 
HETATM    9  C13 UNL     1      22.864   2.182  51.190  1.00  0.00     0.046 A 
HETATM   10  C14 UNL     1      22.151   2.294  49.950  1.00  0.00     0.257 A 
HETATM   11  C20 UNL     1      22.122   1.281  52.057  1.00  0.00     0.009 A 
HETATM   12  O1  UNL     1      22.418   2.955  48.920  1.00  0.00    -0.267 OA
HETATM   13  N3  UNL     1      21.002   1.475  50.070  1.00  0.00    -0.322 N 
HETATM   14  C15 UNL     1      20.987   0.852  51.367  1.00  0.00     0.046 A 
HETATM   15  H22 UNL     1      20.258   1.322  49.347  1.00  0.00     0.169 HD
HETATM   16  C16 UNL     1      20.106  -0.010  51.962  1.00  0.00     0.033 A 
HETATM   17  C17 UNL     1      20.299  -0.486  53.250  1.00  0.00     0.044 A 
HETATM   18  C18 UNL     1      21.424  -0.049  53.907  1.00  0.00     0.117 A 
HETATM   19  F1  UNL     1      21.550  -0.565  55.173  1.00  0.00    -0.206 F 
HETATM   20  C19 UNL     1      22.350   0.824  53.355  1.00  0.00     0.057 A 
ENDBRANCH   5   8
BRANCH   1  21
HETATM   21  C6  UNL     1      25.729   7.062  49.480  1.00  0.00     0.107 C 
HETATM   22  C7  UNL     1      25.692   7.210  47.979  1.00  0.00     0.037 C 
BRANCH  21  23
HETATM   23  N2  UNL     1      26.857   7.662  50.088  1.00  0.00    -0.412 N 
HETATM   24  H13 UNL     1      27.069   7.411  51.058  1.00  0.00     0.153 HD
BRANCH  23  25
HETATM   25  C5  UNL     1      27.190   8.990  49.790  1.00  0.00     0.144 C 
BRANCH  25  26
HETATM   26  C4  UNL     1      28.622   9.330  49.579  1.00  0.00     0.291 C 
BRANCH  26  27
HETATM   27  N1  UNL     1      29.398   8.430  48.797  1.00  0.00     0.085 N 
HETATM   28  C3  UNL     1      30.811   8.438  49.169  1.00  0.00     0.309 C 
BRANCH  27  29
HETATM   29  C2  UNL     1      29.391   8.943  47.416  1.00  0.00     0.267 C 
HETATM   30  C1  UNL     1      29.032   7.886  46.421  1.00  0.00     0.037 C 
ENDBRANCH  27  29
ENDBRANCH  26  27
ENDBRANCH  25  26
ENDBRANCH  23  25
ENDBRANCH  21  23
ENDBRANCH   1  21
TORSDOF 7
ENDMDL
MODEL 6
REMARK VINA RESULT:      -7.5      4.124      6.948
REMARK  7 active torsions:
REMARK  status: ('A' for Active; 'I' for Inactive)
REMARK    1  A    between atoms: C2_2  and  N1_3 
REMARK    2  A    between atoms: N1_3  and  C4_5 
REMARK    3  A    between atoms: C4_5  and  C5_6 
REMARK    4  A    between atoms: C5_6  and  N2_7 
REMARK    5  A    between atoms: N2_7  and  C6_8 
REMARK    6  A    between atoms: C6_8  and  C8_10 
REMARK    7  A    between atoms: C11_14  and  C12_15 
ROOT
HETATM    1  C8  UNL     1      22.497   2.432  50.822  1.00  0.00    -0.016 A 
HETATM    2  C9  UNL     1      22.080   1.824  49.650  1.00  0.00    -0.012 A 
HETATM    3  C10 UNL     1      21.254   0.625  49.321  1.00  0.00     0.057 C 
HETATM    4  S1  UNL     1      22.804   2.855  48.321  1.00  0.00    -0.094 SA
HETATM    5  C11 UNL     1      23.603   4.009  49.471  1.00  0.00     0.013 A 
HETATM    6  C21 UNL     1      23.272   3.545  50.767  1.00  0.00    -0.035 A 
HETATM    7  C22 UNL     1      23.790   4.297  51.934  1.00  0.00     0.050 C 
ENDROOT
BRANCH   5   8
HETATM    8  C12 UNL     1      24.388   5.142  49.035  1.00  0.00     0.037 C 
HETATM    9  C13 UNL     1      25.674   5.220  48.917  1.00  0.00     0.046 A 
HETATM   10  C14 UNL     1      26.686   4.235  49.170  1.00  0.00     0.257 A 
HETATM   11  C20 UNL     1      26.331   6.436  48.466  1.00  0.00     0.009 A 
HETATM   12  O1  UNL     1      26.582   3.053  49.569  1.00  0.00    -0.267 OA
HETATM   13  N3  UNL     1      27.929   4.848  48.876  1.00  0.00    -0.322 N 
HETATM   14  C15 UNL     1      27.707   6.202  48.442  1.00  0.00     0.046 A 
HETATM   15  H22 UNL     1      28.879   4.414  48.951  1.00  0.00     0.169 HD
HETATM   16  C16 UNL     1      28.567   7.194  48.053  1.00  0.00     0.033 A 
HETATM   17  C17 UNL     1      28.116   8.449  47.671  1.00  0.00     0.044 A 
HETATM   18  C18 UNL     1      26.758   8.653  47.702  1.00  0.00     0.117 A 
HETATM   19  F1  UNL     1      26.387   9.915  47.309  1.00  0.00    -0.206 F 
HETATM   20  C19 UNL     1      25.840   7.687  48.089  1.00  0.00     0.057 A 
ENDBRANCH   5   8
BRANCH   1  21
HETATM   21  C6  UNL     1      22.046   1.793  52.110  1.00  0.00     0.107 C 
HETATM   22  C7  UNL     1      20.915   2.602  52.693  1.00  0.00     0.037 C 
BRANCH  21  23
HETATM   23  N2  UNL     1      23.151   1.639  52.982  1.00  0.00    -0.412 N 
HETATM   24  H13 UNL     1      23.586   2.486  53.357  1.00  0.00     0.153 HD
BRANCH  23  25
HETATM   25  C5  UNL     1      24.075   0.608  52.765  1.00  0.00     0.144 C 
BRANCH  25  26
HETATM   26  C4  UNL     1      24.305  -0.374  53.858  1.00  0.00     0.291 C 
BRANCH  26  27
HETATM   27  N1  UNL     1      25.645  -0.790  54.090  1.00  0.00     0.085 N 
HETATM   28  C3  UNL     1      26.383   0.142  54.940  1.00  0.00     0.309 C 
BRANCH  27  29
HETATM   29  C2  UNL     1      26.347  -0.723  52.796  1.00  0.00     0.267 C 
HETATM   30  C1  UNL     1      26.901  -2.049  52.383  1.00  0.00     0.037 C 
ENDBRANCH  27  29
ENDBRANCH  26  27
ENDBRANCH  25  26
ENDBRANCH  23  25
ENDBRANCH  21  23
ENDBRANCH   1  21
TORSDOF 7
ENDMDL
MODEL 7
REMARK VINA RESULT:      -7.2      5.398      7.737
REMARK  7 active torsions:
REMARK  status: ('A' for Active; 'I' for Inactive)
REMARK    1  A    between atoms: C2_2  and  N1_3 
REMARK    2  A    between atoms: N1_3  and  C4_5 
REMARK    3  A    between atoms: C4_5  and  C5_6 
REMARK    4  A    between atoms: C5_6  and  N2_7 
REMARK    5  A    between atoms: N2_7  and  C6_8 
REMARK    6  A    between atoms: C6_8  and  C8_10 
REMARK    7  A    between atoms: C11_14  and  C12_15 
ROOT
HETATM    1  C8  UNL     1      24.328   4.528  49.216  1.00  0.00    -0.016 A 
HETATM    2  C9  UNL     1      23.355   5.445  48.854  1.00  0.00    -0.012 A 
HETATM    3  C10 UNL     1      21.862   5.457  48.867  1.00  0.00     0.057 C 
HETATM    4  S1  UNL     1      24.298   6.891  48.241  1.00  0.00    -0.094 SA
HETATM    5  C11 UNL     1      25.916   6.123  48.530  1.00  0.00     0.013 A 
HETATM    6  C21 UNL     1      25.640   4.841  49.064  1.00  0.00    -0.035 A 
HETATM    7  C22 UNL     1      26.783   3.963  49.407  1.00  0.00     0.050 C 
ENDROOT
BRANCH   5   8
HETATM    8  C12 UNL     1      27.168   6.786  48.240  1.00  0.00     0.037 C 
HETATM    9  C13 UNL     1      27.702   7.786  48.864  1.00  0.00     0.046 A 
HETATM   10  C14 UNL     1      27.233   8.519  50.004  1.00  0.00     0.257 A 
HETATM   11  C20 UNL     1      28.976   8.354  48.455  1.00  0.00     0.009 A 
HETATM   12  O1  UNL     1      26.189   8.380  50.683  1.00  0.00    -0.267 OA
HETATM   13  N3  UNL     1      28.207   9.511  50.275  1.00  0.00    -0.322 N 
HETATM   14  C15 UNL     1      29.279   9.406  49.320  1.00  0.00     0.046 A 
HETATM   15  H22 UNL     1      28.184  10.225  51.041  1.00  0.00     0.169 HD
HETATM   16  C16 UNL     1      30.434  10.122  49.155  1.00  0.00     0.033 A 
HETATM   17  C17 UNL     1      31.336   9.837  48.141  1.00  0.00     0.044 A 
HETATM   18  C18 UNL     1      31.015   8.796  47.303  1.00  0.00     0.117 A 
HETATM   19  F1  UNL     1      31.955   8.571  46.328  1.00  0.00    -0.206 F 
HETATM   20  C19 UNL     1      29.859   8.038  47.422  1.00  0.00     0.057 A 
ENDBRANCH   5   8
BRANCH   1  21
HETATM   21  C6  UNL     1      23.842   3.212  49.766  1.00  0.00     0.107 C 
HETATM   22  C7  UNL     1      22.904   2.577  48.771  1.00  0.00     0.037 C 
BRANCH  21  23
HETATM   23  N2  UNL     1      23.273   3.410  51.047  1.00  0.00    -0.412 N 
HETATM   24  H13 UNL     1      22.450   4.015  51.118  1.00  0.00     0.153 HD
BRANCH  23  25
HETATM   25  C5  UNL     1      24.099   3.490  52.176  1.00  0.00     0.144 C 
BRANCH  25  26
HETATM   26  C4  UNL     1      24.245   2.282  53.031  1.00  0.00     0.291 C 
BRANCH  26  27
HETATM   27  N1  UNL     1      24.588   1.062  52.385  1.00  0.00     0.085 N 
HETATM   28  C3  UNL     1      24.328  -0.108  53.221  1.00  0.00     0.309 C 
BRANCH  27  29
HETATM   29  C2  UNL     1      26.052   1.060  52.217  1.00  0.00     0.267 C 
HETATM   30  C1  UNL     1      26.619  -0.323  52.204  1.00  0.00     0.037 C 
ENDBRANCH  27  29
ENDBRANCH  26  27
ENDBRANCH  25  26
ENDBRANCH  23  25
ENDBRANCH  21  23
ENDBRANCH   1  21
TORSDOF 7
ENDMDL
MODEL 8
REMARK VINA RESULT:      -7.1      3.552      5.479
REMARK  7 active torsions:
REMARK  status: ('A' for Active; 'I' for Inactive)
REMARK    1  A    between atoms: C2_2  and  N1_3 
REMARK    2  A    between atoms: N1_3  and  C4_5 
REMARK    3  A    between atoms: C4_5  and  C5_6 
REMARK    4  A    between atoms: C5_6  and  N2_7 
REMARK    5  A    between atoms: N2_7  and  C6_8 
REMARK    6  A    between atoms: C6_8  and  C8_10 
REMARK    7  A    between atoms: C11_14  and  C12_15 
ROOT
HETATM    1  C8  UNL     1      22.387   4.612  48.347  1.00  0.00    -0.016 A 
HETATM    2  C9  UNL     1      22.210   3.742  47.284  1.00  0.00    -0.012 A 
HETATM    3  C10 UNL     1      21.904   3.901  45.832  1.00  0.00     0.057 C 
HETATM    4  S1  UNL     1      22.429   2.078  48.017  1.00  0.00    -0.094 SA
HETATM    5  C11 UNL     1      22.738   2.711  49.689  1.00  0.00     0.013 A 
HETATM    6  C21 UNL     1      22.657   4.121  49.583  1.00  0.00    -0.035 A 
HETATM    7  C22 UNL     1      22.868   4.929  50.807  1.00  0.00     0.050 C 
ENDROOT
BRANCH   5   8
HETATM    8  C12 UNL     1      23.007   1.854  50.822  1.00  0.00     0.037 C 
HETATM    9  C13 UNL     1      22.169   1.413  51.703  1.00  0.00     0.046 A 
HETATM   10  C14 UNL     1      20.755   1.628  51.821  1.00  0.00     0.257 A 
HETATM   11  C20 UNL     1      22.588   0.554  52.798  1.00  0.00     0.009 A 
HETATM   12  O1  UNL     1      19.976   2.297  51.104  1.00  0.00    -0.267 OA
HETATM   13  N3  UNL     1      20.332   0.911  52.967  1.00  0.00    -0.322 N 
HETATM   14  C15 UNL     1      21.462   0.250  53.565  1.00  0.00     0.046 A 
HETATM   15  H22 UNL     1      19.358   0.849  53.348  1.00  0.00     0.169 HD
HETATM   16  C16 UNL     1      21.577  -0.550  54.670  1.00  0.00     0.033 A 
HETATM   17  C17 UNL     1      22.795  -1.083  55.066  1.00  0.00     0.044 A 
HETATM   18  C18 UNL     1      23.887  -0.770  54.294  1.00  0.00     0.117 A 
HETATM   19  F1  UNL     1      25.054  -1.336  54.745  1.00  0.00    -0.206 F 
HETATM   20  C19 UNL     1      23.830   0.035  53.166  1.00  0.00     0.057 A 
ENDBRANCH   5   8
BRANCH   1  21
HETATM   21  C6  UNL     1      22.262   6.082  48.041  1.00  0.00     0.107 C 
HETATM   22  C7  UNL     1      20.852   6.375  47.593  1.00  0.00     0.037 C 
BRANCH  21  23
HETATM   23  N2  UNL     1      23.254   6.463  47.106  1.00  0.00    -0.412 N 
HETATM   24  H13 UNL     1      23.737   5.722  46.591  1.00  0.00     0.153 HD
BRANCH  23  25
HETATM   25  C5  UNL     1      24.081   7.563  47.371  1.00  0.00     0.144 C 
BRANCH  25  26
HETATM   26  C4  UNL     1      25.519   7.312  47.656  1.00  0.00     0.291 C 
BRANCH  26  27
HETATM   27  N1  UNL     1      25.856   6.858  48.961  1.00  0.00     0.085 N 
HETATM   28  C3  UNL     1      26.475   7.903  49.776  1.00  0.00     0.309 C 
BRANCH  27  29
HETATM   29  C2  UNL     1      26.921   5.852  48.806  1.00  0.00     0.267 C 
HETATM   30  C1  UNL     1      26.481   4.490  49.241  1.00  0.00     0.037 C 
ENDBRANCH  27  29
ENDBRANCH  26  27
ENDBRANCH  25  26
ENDBRANCH  23  25
ENDBRANCH  21  23
ENDBRANCH   1  21
TORSDOF 7
ENDMDL
MODEL 9
REMARK VINA RESULT:      -7.0      6.122      7.870
REMARK  7 active torsions:
REMARK  status: ('A' for Active; 'I' for Inactive)
REMARK    1  A    between atoms: C2_2  and  N1_3 
REMARK    2  A    between atoms: N1_3  and  C4_5 
REMARK    3  A    between atoms: C4_5  and  C5_6 
REMARK    4  A    between atoms: C5_6  and  N2_7 
REMARK    5  A    between atoms: N2_7  and  C6_8 
REMARK    6  A    between atoms: C6_8  and  C8_10 
REMARK    7  A    between atoms: C11_14  and  C12_15 
ROOT
HETATM    1  C8  UNL     1      26.100   6.576  48.577  1.00  0.00    -0.016 A 
HETATM    2  C9  UNL     1      26.225   7.774  47.894  1.00  0.00    -0.012 A 
HETATM    3  C10 UNL     1      25.317   8.925  47.612  1.00  0.00     0.057 C 
HETATM    4  S1  UNL     1      27.944   7.759  47.261  1.00  0.00    -0.094 SA
HETATM    5  C11 UNL     1      28.333   6.138  47.977  1.00  0.00     0.013 A 
HETATM    6  C21 UNL     1      27.153   5.721  48.640  1.00  0.00    -0.035 A 
HETATM    7  C22 UNL     1      27.164   4.412  49.333  1.00  0.00     0.050 C 
ENDROOT
BRANCH   5   8
HETATM    8  C12 UNL     1      29.624   5.503  47.840  1.00  0.00     0.037 C 
HETATM    9  C13 UNL     1      30.773   5.937  48.249  1.00  0.00     0.046 A 
HETATM   10  C14 UNL     1      31.107   7.144  48.949  1.00  0.00     0.257 A 
HETATM   11  C20 UNL     1      31.998   5.185  48.035  1.00  0.00     0.009 A 
HETATM   12  O1  UNL     1      30.375   8.082  49.340  1.00  0.00    -0.267 OA
HETATM   13  N3  UNL     1      32.508   7.118  49.152  1.00  0.00    -0.322 N 
HETATM   14  C15 UNL     1      33.053   5.911  48.590  1.00  0.00     0.046 A 
HETATM   15  H22 UNL     1      33.090   7.845  49.633  1.00  0.00     0.169 HD
HETATM   16  C16 UNL     1      34.332   5.424  48.525  1.00  0.00     0.033 A 
HETATM   17  C17 UNL     1      34.626   4.212  47.917  1.00  0.00     0.044 A 
HETATM   18  C18 UNL     1      33.569   3.518  47.380  1.00  0.00     0.117 A 
HETATM   19  F1  UNL     1      33.937   2.329  46.801  1.00  0.00    -0.206 F 
HETATM   20  C19 UNL     1      32.256   3.962  47.416  1.00  0.00     0.057 A 
ENDBRANCH   5   8
BRANCH   1  21
HETATM   21  C6  UNL     1      24.765   6.303  49.220  1.00  0.00     0.107 C 
HETATM   22  C7  UNL     1      24.817   6.729  50.666  1.00  0.00     0.037 C 
BRANCH  21  23
HETATM   23  N2  UNL     1      24.412   4.945  49.034  1.00  0.00    -0.412 N 
HETATM   24  H13 UNL     1      24.135   4.646  48.095  1.00  0.00     0.153 HD
BRANCH  23  25
HETATM   25  C5  UNL     1      23.728   4.255  50.043  1.00  0.00     0.144 C 
BRANCH  25  26
HETATM   26  C4  UNL     1      23.673   2.770  49.971  1.00  0.00     0.291 C 
BRANCH  26  27
HETATM   27  N1  UNL     1      23.838   2.050  51.187  1.00  0.00     0.085 N 
HETATM   28  C3  UNL     1      22.804   2.365  52.170  1.00  0.00     0.309 C 
BRANCH  27  29
HETATM   29  C2  UNL     1      25.081   2.539  51.810  1.00  0.00     0.267 C 
HETATM   30  C1  UNL     1      26.227   1.602  51.596  1.00  0.00     0.037 C 
ENDBRANCH  27  29
ENDBRANCH  26  27
ENDBRANCH  25  26
ENDBRANCH  23  25
ENDBRANCH  21  23
ENDBRANCH   1  21
TORSDOF 7
ENDMDL
