MODEL 1
REMARK VINA RESULT:      -7.7      0.000      0.000
REMARK  7 active torsions:
REMARK  status: ('A' for Active; 'I' for Inactive)
REMARK    1  A    between atoms: C2_3  and  C3_4 
REMARK    2  A    between atoms: C3_4  and  C4_5 
REMARK    3  A    between atoms: C4_5  and  N1_6 
REMARK    4  A    between atoms: N1_6  and  C5_7 
REMARK       I    between atoms: N1_6  and  C14_17 
REMARK    5  A    between atoms: C5_7  and  C6_8 
REMARK    6  A    between atoms: C13_15  and  O1_16 
REMARK       I    between atoms: C14_17  and  N2_19 
REMARK    7  A    between atoms: N2_19  and  C15_20 
ROOT
HETATM    1  C1  UNL     1      21.110   8.417  49.665  1.00  0.00     0.104 C 
HETATM    2  S1  UNL     1      21.406   7.142  50.476  1.00  0.00    -0.096 SA
HETATM    3  C2  UNL     1      21.651   6.095  51.169  1.00  0.00    -0.111 C 
ENDROOT
BRANCH   3   4
HETATM    4  C3  UNL     1      21.930   4.932  51.970  1.00  0.00     0.112 C 
BRANCH   4   5
HETATM    5  C4  UNL     1      23.428   4.815  52.078  1.00  0.00     0.140 C 
BRANCH   5   6
HETATM    6  N1  UNL     1      24.043   3.983  51.068  1.00  0.00    -0.329 N 
HETATM    7  C14 UNL     1      25.007   4.742  50.305  1.00  0.00     0.323 C 
HETATM    8  O2  UNL     1      25.026   5.919  50.807  1.00  0.00    -0.247 OA
HETATM    9  N2  UNL     1      25.849   4.450  49.212  1.00  0.00    -0.309 N 
HETATM   10  H19 UNL     1      25.714   3.475  48.913  1.00  0.00     0.170 HD
BRANCH   6  11
HETATM   11  C5  UNL     1      23.904   2.597  50.659  1.00  0.00     0.169 C 
BRANCH  11  12
HETATM   12  C6  UNL     1      24.148   1.594  51.683  1.00  0.00    -0.006 A 
HETATM   13  C7  UNL     1      23.174   0.985  52.468  1.00  0.00     0.018 A 
HETATM   14  C8  UNL     1      23.398   0.018  53.429  1.00  0.00    -0.061 A 
HETATM   15  C9  UNL     1      22.286  -0.573  54.213  1.00  0.00     0.048 C 
HETATM   16  C10 UNL     1      24.698  -0.376  53.628  1.00  0.00     0.016 A 
HETATM   17  C11 UNL     1      25.745   0.159  52.910  1.00  0.00    -0.028 A 
HETATM   18  C12 UNL     1      27.127  -0.288  53.152  1.00  0.00     0.051 C 
HETATM   19  C13 UNL     1      25.438   1.123  51.965  1.00  0.00     0.079 A 
BRANCH  19  20
HETATM   20  O1  UNL     1      26.529   1.629  51.277  1.00  0.00    -0.360 OA
HETATM   21  H18 UNL     1      26.474   1.862  50.294  1.00  0.00     0.217 HD
ENDBRANCH  19  20
ENDBRANCH  11  12
ENDBRANCH   6  11
BRANCH   9  22
HETATM   22  C15 UNL     1      26.713   5.436  48.672  1.00  0.00     0.036 A 
HETATM   23  C16 UNL     1      28.028   4.964  48.619  1.00  0.00     0.029 A 
HETATM   24  C17 UNL     1      29.069   5.751  48.121  1.00  0.00     0.002 A 
HETATM   25  C18 UNL     1      28.758   7.028  47.676  1.00  0.00     0.000 A 
HETATM   26  C19 UNL     1      27.471   7.463  47.740  1.00  0.00     0.002 A 
HETATM   27  C20 UNL     1      26.445   6.713  48.220  1.00  0.00     0.029 A 
ENDBRANCH   9  22
ENDBRANCH   5   6
ENDBRANCH   4   5
ENDBRANCH   3   4
TORSDOF 7
ENDMDL
MODEL 2
REMARK VINA RESULT:      -7.6      1.930      6.150
REMARK  7 active torsions:
REMARK  status: ('A' for Active; 'I' for Inactive)
REMARK    1  A    between atoms: C2_3  and  C3_4 
REMARK    2  A    between atoms: C3_4  and  C4_5 
REMARK    3  A    between atoms: C4_5  and  N1_6 
REMARK    4  A    between atoms: N1_6  and  C5_7 
REMARK       I    between atoms: N1_6  and  C14_17 
REMARK    5  A    between atoms: C5_7  and  C6_8 
REMARK    6  A    between atoms: C13_15  and  O1_16 
REMARK       I    between atoms: C14_17  and  N2_19 
REMARK    7  A    between atoms: N2_19  and  C15_20 
ROOT
HETATM    1  C1  UNL     1      21.253   8.403  49.717  1.00  0.00     0.104 C 
HETATM    2  S1  UNL     1      21.486   6.993  50.286  1.00  0.00    -0.096 SA
HETATM    3  C2  UNL     1      21.700   5.819  50.750  1.00  0.00    -0.111 C 
ENDROOT
BRANCH   3   4
HETATM    4  C3  UNL     1      21.962   4.498  51.258  1.00  0.00     0.112 C 
BRANCH   4   5
HETATM    5  C4  UNL     1      23.386   4.485  51.753  1.00  0.00     0.140 C 
BRANCH   5   6
HETATM    6  N1  UNL     1      24.332   3.866  50.852  1.00  0.00    -0.329 N 
HETATM    7  C14 UNL     1      25.220   2.986  51.578  1.00  0.00     0.323 C 
HETATM    8  O2  UNL     1      24.847   3.018  52.802  1.00  0.00    -0.247 OA
HETATM    9  N2  UNL     1      26.317   2.177  51.218  1.00  0.00    -0.309 N 
HETATM   10  H19 UNL     1      26.503   2.264  50.209  1.00  0.00     0.170 HD
BRANCH   6  11
HETATM   11  C5  UNL     1      24.585   3.936  49.424  1.00  0.00     0.169 C 
BRANCH  11  12
HETATM   12  C6  UNL     1      25.330   5.094  48.957  1.00  0.00    -0.006 A 
HETATM   13  C7  UNL     1      24.783   6.330  48.631  1.00  0.00     0.018 A 
HETATM   14  C8  UNL     1      25.488   7.440  48.206  1.00  0.00    -0.061 A 
HETATM   15  C9  UNL     1      24.808   8.718  47.883  1.00  0.00     0.048 C 
HETATM   16  C10 UNL     1      26.850   7.309  48.095  1.00  0.00     0.016 A 
HETATM   17  C11 UNL     1      27.501   6.131  48.390  1.00  0.00    -0.028 A 
HETATM   18  C12 UNL     1      28.964   6.029  48.257  1.00  0.00     0.051 C 
HETATM   19  C13 UNL     1      26.724   5.066  48.809  1.00  0.00     0.079 A 
BRANCH  19  20
HETATM   20  O1  UNL     1      27.429   3.907  49.088  1.00  0.00    -0.360 OA
HETATM   21  H18 UNL     1      28.265   3.658  48.574  1.00  0.00     0.217 HD
ENDBRANCH  19  20
ENDBRANCH  11  12
ENDBRANCH   6  11
BRANCH   9  22
HETATM   22  C15 UNL     1      27.002   1.401  52.187  1.00  0.00     0.036 A 
HETATM   23  C16 UNL     1      26.612   0.061  52.111  1.00  0.00     0.029 A 
HETATM   24  C17 UNL     1      27.149  -0.907  52.963  1.00  0.00     0.002 A 
HETATM   25  C18 UNL     1      28.090  -0.497  53.895  1.00  0.00     0.000 A 
HETATM   26  C19 UNL     1      28.452   0.813  53.948  1.00  0.00     0.002 A 
HETATM   27  C20 UNL     1      27.942   1.769  53.129  1.00  0.00     0.029 A 
ENDBRANCH   9  22
ENDBRANCH   5   6
ENDBRANCH   4   5
ENDBRANCH   3   4
TORSDOF 7
ENDMDL
MODEL 3
REMARK VINA RESULT:      -7.6      2.784      5.543
REMARK  7 active torsions:
REMARK  status: ('A' for Active; 'I' for Inactive)
REMARK    1  A    between atoms: C2_3  and  C3_4 
REMARK    2  A    between atoms: C3_4  and  C4_5 
REMARK    3  A    between atoms: C4_5  and  N1_6 
REMARK    4  A    between atoms: N1_6  and  C5_7 
REMARK       I    between atoms: N1_6  and  C14_17 
REMARK    5  A    between atoms: C5_7  and  C6_8 
REMARK    6  A    between atoms: C13_15  and  O1_16 
REMARK       I    between atoms: C14_17  and  N2_19 
REMARK    7  A    between atoms: N2_19  and  C15_20 
ROOT
HETATM    1  C1  UNL     1      24.427   8.059  50.290  1.00  0.00     0.104 C 
HETATM    2  S1  UNL     1      24.474   6.536  50.074  1.00  0.00    -0.096 SA
HETATM    3  C2  UNL     1      24.491   5.268  49.896  1.00  0.00    -0.111 C 
ENDROOT
BRANCH   3   4
HETATM    4  C3  UNL     1      24.484   3.842  49.702  1.00  0.00     0.112 C 
BRANCH   4   5
HETATM    5  C4  UNL     1      25.625   3.277  50.508  1.00  0.00     0.140 C 
BRANCH   5   6
HETATM    6  N1  UNL     1      25.229   2.615  51.731  1.00  0.00    -0.329 N 
HETATM    7  C14 UNL     1      26.225   1.644  52.126  1.00  0.00     0.323 C 
HETATM    8  O2  UNL     1      27.168   1.716  51.263  1.00  0.00    -0.247 OA
HETATM    9  N2  UNL     1      26.336   0.722  53.187  1.00  0.00    -0.309 N 
HETATM   10  H19 UNL     1      25.501   0.772  53.787  1.00  0.00     0.170 HD
BRANCH   6  11
HETATM   11  C5  UNL     1      24.083   2.701  52.619  1.00  0.00     0.169 C 
BRANCH  11  12
HETATM   12  C6  UNL     1      23.005   1.757  52.373  1.00  0.00    -0.006 A 
HETATM   13  C7  UNL     1      22.051   1.861  51.366  1.00  0.00     0.018 A 
HETATM   14  C8  UNL     1      21.036   0.957  51.115  1.00  0.00    -0.061 A 
HETATM   15  C9  UNL     1      20.068   1.160  50.011  1.00  0.00     0.048 C 
HETATM   16  C10 UNL     1      20.963  -0.142  51.935  1.00  0.00     0.016 A 
HETATM   17  C11 UNL     1      21.853  -0.349  52.966  1.00  0.00    -0.028 A 
HETATM   18  C12 UNL     1      21.742  -1.540  53.825  1.00  0.00     0.051 C 
HETATM   19  C13 UNL     1      22.841   0.602  53.152  1.00  0.00     0.079 A 
BRANCH  19  20
HETATM   20  O1  UNL     1      23.704   0.345  54.204  1.00  0.00    -0.360 OA
HETATM   21  H18 UNL     1      24.265   1.076  54.621  1.00  0.00     0.217 HD
ENDBRANCH  19  20
ENDBRANCH  11  12
ENDBRANCH   6  11
BRANCH   9  22
HETATM   22  C15 UNL     1      27.473  -0.117  53.310  1.00  0.00     0.036 A 
HETATM   23  C16 UNL     1      27.208  -1.385  52.787  1.00  0.00     0.029 A 
HETATM   24  C17 UNL     1      28.175  -2.394  52.789  1.00  0.00     0.002 A 
HETATM   25  C18 UNL     1      29.417  -2.097  53.329  1.00  0.00     0.000 A 
HETATM   26  C19 UNL     1      29.648  -0.854  53.832  1.00  0.00     0.002 A 
HETATM   27  C20 UNL     1      28.722   0.139  53.839  1.00  0.00     0.029 A 
ENDBRANCH   9  22
ENDBRANCH   5   6
ENDBRANCH   4   5
ENDBRANCH   3   4
TORSDOF 7
ENDMDL
MODEL 4
REMARK VINA RESULT:      -7.5      2.705      3.538
REMARK  7 active torsions:
REMARK  status: ('A' for Active; 'I' for Inactive)
REMARK    1  A    between atoms: C2_3  and  C3_4 
REMARK    2  A    between atoms: C3_4  and  C4_5 
REMARK    3  A    between atoms: C4_5  and  N1_6 
REMARK    4  A    between atoms: N1_6  and  C5_7 
REMARK       I    between atoms: N1_6  and  C14_17 
REMARK    5  A    between atoms: C5_7  and  C6_8 
REMARK    6  A    between atoms: C13_15  and  O1_16 
REMARK       I    between atoms: C14_17  and  N2_19 
REMARK    7  A    between atoms: N2_19  and  C15_20 
ROOT
HETATM    1  C1  UNL     1      16.902   2.388  50.034  1.00  0.00     0.104 C 
HETATM    2  S1  UNL     1      18.369   1.935  49.923  1.00  0.00    -0.096 SA
HETATM    3  C2  UNL     1      19.592   1.573  49.814  1.00  0.00    -0.111 C 
ENDROOT
BRANCH   3   4
HETATM    4  C3  UNL     1      20.970   1.182  49.670  1.00  0.00     0.112 C 
BRANCH   4   5
HETATM    5  C4  UNL     1      21.755   2.426  49.343  1.00  0.00     0.140 C 
BRANCH   5   6
HETATM    6  N1  UNL     1      22.520   2.964  50.445  1.00  0.00    -0.329 N 
HETATM    7  C14 UNL     1      23.638   3.737  49.954  1.00  0.00     0.323 C 
HETATM    8  O2  UNL     1      23.563   3.720  48.677  1.00  0.00    -0.247 OA
HETATM    9  N2  UNL     1      24.696   4.440  50.569  1.00  0.00    -0.309 N 
HETATM   10  H19 UNL     1      24.629   4.353  51.592  1.00  0.00     0.170 HD
BRANCH   6  11
HETATM   11  C5  UNL     1      22.420   2.895  51.892  1.00  0.00     0.169 C 
BRANCH  11  12
HETATM   12  C6  UNL     1      22.921   1.681  52.516  1.00  0.00    -0.006 A 
HETATM   13  C7  UNL     1      24.241   1.244  52.491  1.00  0.00     0.018 A 
HETATM   14  C8  UNL     1      24.727   0.102  53.099  1.00  0.00    -0.061 A 
HETATM   15  C9  UNL     1      26.158  -0.277  53.015  1.00  0.00     0.048 C 
HETATM   16  C10 UNL     1      23.824  -0.670  53.788  1.00  0.00     0.016 A 
HETATM   17  C11 UNL     1      22.491  -0.336  53.879  1.00  0.00    -0.028 A 
HETATM   18  C12 UNL     1      21.553  -1.190  54.626  1.00  0.00     0.051 C 
HETATM   19  C13 UNL     1      22.084   0.823  53.243  1.00  0.00     0.079 A 
BRANCH  19  20
HETATM   20  O1  UNL     1      20.734   1.108  53.364  1.00  0.00    -0.360 OA
HETATM   21  H18 UNL     1      20.045   0.376  53.480  1.00  0.00     0.217 HD
ENDBRANCH  19  20
ENDBRANCH  11  12
ENDBRANCH   6  11
BRANCH   9  22
HETATM   22  C15 UNL     1      25.665   5.125  49.793  1.00  0.00     0.036 A 
HETATM   23  C16 UNL     1      26.701   4.263  49.426  1.00  0.00     0.029 A 
HETATM   24  C17 UNL     1      27.780   4.702  48.654  1.00  0.00     0.002 A 
HETATM   25  C18 UNL     1      27.792   6.031  48.257  1.00  0.00     0.000 A 
HETATM   26  C19 UNL     1      26.771   6.849  48.629  1.00  0.00     0.002 A 
HETATM   27  C20 UNL     1      25.714   6.441  49.378  1.00  0.00     0.029 A 
ENDBRANCH   9  22
ENDBRANCH   5   6
ENDBRANCH   4   5
ENDBRANCH   3   4
TORSDOF 7
ENDMDL
MODEL 5
REMARK VINA RESULT:      -7.5      2.436      3.066
REMARK  7 active torsions:
REMARK  status: ('A' for Active; 'I' for Inactive)
REMARK    1  A    between atoms: C2_3  and  C3_4 
REMARK    2  A    between atoms: C3_4  and  C4_5 
REMARK    3  A    between atoms: C4_5  and  N1_6 
REMARK    4  A    between atoms: N1_6  and  C5_7 
REMARK       I    between atoms: N1_6  and  C14_17 
REMARK    5  A    between atoms: C5_7  and  C6_8 
REMARK    6  A    between atoms: C13_15  and  O1_16 
REMARK       I    between atoms: C14_17  and  N2_19 
REMARK    7  A    between atoms: N2_19  and  C15_20 
ROOT
HETATM    1  C1  UNL     1      17.183   2.904  49.229  1.00  0.00     0.104 C 
HETATM    2  S1  UNL     1      18.495   2.167  49.551  1.00  0.00    -0.096 SA
HETATM    3  C2  UNL     1      19.596   1.563  49.800  1.00  0.00    -0.111 C 
ENDROOT
BRANCH   3   4
HETATM    4  C3  UNL     1      20.843   0.893  50.059  1.00  0.00     0.112 C 
BRANCH   4   5
HETATM    5  C4  UNL     1      21.945   1.804  49.584  1.00  0.00     0.140 C 
BRANCH   5   6
HETATM    6  N1  UNL     1      22.673   2.473  50.639  1.00  0.00    -0.329 N 
HETATM    7  C14 UNL     1      23.787   3.214  50.094  1.00  0.00     0.323 C 
HETATM    8  O2  UNL     1      23.744   3.060  48.824  1.00  0.00    -0.247 OA
HETATM    9  N2  UNL     1      24.816   4.001  50.653  1.00  0.00    -0.309 N 
HETATM   10  H19 UNL     1      24.726   4.022  51.678  1.00  0.00     0.170 HD
BRANCH   6  11
HETATM   11  C5  UNL     1      22.539   2.556  52.082  1.00  0.00     0.169 C 
BRANCH  11  12
HETATM   12  C6  UNL     1      22.931   1.375  52.835  1.00  0.00    -0.006 A 
HETATM   13  C7  UNL     1      22.070   0.381  53.288  1.00  0.00     0.018 A 
HETATM   14  C8  UNL     1      22.438  -0.753  53.986  1.00  0.00    -0.061 A 
HETATM   15  C9  UNL     1      21.440  -1.757  54.424  1.00  0.00     0.048 C 
HETATM   16  C10 UNL     1      23.775  -0.911  54.258  1.00  0.00     0.016 A 
HETATM   17  C11 UNL     1      24.719   0.010  53.860  1.00  0.00    -0.028 A 
HETATM   18  C12 UNL     1      26.144  -0.194  54.171  1.00  0.00     0.051 C 
HETATM   19  C13 UNL     1      24.269   1.119  53.165  1.00  0.00     0.079 A 
BRANCH  19  20
HETATM   20  O1  UNL     1      25.260   2.012  52.794  1.00  0.00    -0.360 OA
HETATM   21  H18 UNL     1      25.852   1.845  51.990  1.00  0.00     0.217 HD
ENDBRANCH  19  20
ENDBRANCH  11  12
ENDBRANCH   6  11
BRANCH   9  22
HETATM   22  C15 UNL     1      25.790   4.622  49.831  1.00  0.00     0.036 A 
HETATM   23  C16 UNL     1      25.420   5.936  49.536  1.00  0.00     0.029 A 
HETATM   24  C17 UNL     1      26.219   6.761  48.740  1.00  0.00     0.002 A 
HETATM   25  C18 UNL     1      27.403   6.233  48.248  1.00  0.00     0.000 A 
HETATM   26  C19 UNL     1      27.739   4.950  48.551  1.00  0.00     0.002 A 
HETATM   27  C20 UNL     1      26.977   4.133  49.322  1.00  0.00     0.029 A 
ENDBRANCH   9  22
ENDBRANCH   5   6
ENDBRANCH   4   5
ENDBRANCH   3   4
TORSDOF 7
ENDMDL
MODEL 6
REMARK VINA RESULT:      -7.5      2.385      5.436
REMARK  7 active torsions:
REMARK  status: ('A' for Active; 'I' for Inactive)
REMARK    1  A    between atoms: C2_3  and  C3_4 
REMARK    2  A    between atoms: C3_4  and  C4_5 
REMARK    3  A    between atoms: C4_5  and  N1_6 
REMARK    4  A    between atoms: N1_6  and  C5_7 
REMARK       I    between atoms: N1_6  and  C14_17 
REMARK    5  A    between atoms: C5_7  and  C6_8 
REMARK    6  A    between atoms: C13_15  and  O1_16 
REMARK       I    between atoms: C14_17  and  N2_19 
REMARK    7  A    between atoms: N2_19  and  C15_20 
ROOT
HETATM    1  C1  UNL     1      26.926   7.780  47.711  1.00  0.00     0.104 C 
HETATM    2  S1  UNL     1      26.077   6.765  48.497  1.00  0.00    -0.096 SA
HETATM    3  C2  UNL     1      25.373   5.934  49.169  1.00  0.00    -0.111 C 
ENDROOT
BRANCH   3   4
HETATM    4  C3  UNL     1      24.588   5.011  49.948  1.00  0.00     0.112 C 
BRANCH   4   5
HETATM    5  C4  UNL     1      25.498   3.876  50.342  1.00  0.00     0.140 C 
BRANCH   5   6
HETATM    6  N1  UNL     1      25.113   3.189  51.554  1.00  0.00    -0.329 N 
HETATM    7  C14 UNL     1      26.169   2.303  51.991  1.00  0.00     0.323 C 
HETATM    8  O2  UNL     1      27.133   2.447  51.162  1.00  0.00    -0.247 OA
HETATM    9  N2  UNL     1      26.316   1.397  53.061  1.00  0.00    -0.309 N 
HETATM   10  H19 UNL     1      25.459   1.382  53.631  1.00  0.00     0.170 HD
BRANCH   6  11
HETATM   11  C5  UNL     1      23.933   3.185  52.401  1.00  0.00     0.169 C 
BRANCH  11  12
HETATM   12  C6  UNL     1      23.014   2.073  52.221  1.00  0.00    -0.006 A 
HETATM   13  C7  UNL     1      22.956   0.934  53.017  1.00  0.00     0.018 A 
HETATM   14  C8  UNL     1      22.072  -0.117  52.864  1.00  0.00    -0.061 A 
HETATM   15  C9  UNL     1      22.091  -1.289  53.770  1.00  0.00     0.048 C 
HETATM   16  C10 UNL     1      21.170  -0.028  51.831  1.00  0.00     0.016 A 
HETATM   17  C11 UNL     1      21.136   1.053  50.978  1.00  0.00    -0.028 A 
HETATM   18  C12 UNL     1      20.155   1.112  49.881  1.00  0.00     0.051 C 
HETATM   19  C13 UNL     1      22.054   2.064  51.198  1.00  0.00     0.079 A 
BRANCH  19  20
HETATM   20  O1  UNL     1      21.977   3.123  50.309  1.00  0.00    -0.360 OA
HETATM   21  H18 UNL     1      22.620   3.903  50.354  1.00  0.00     0.217 HD
ENDBRANCH  19  20
ENDBRANCH  11  12
ENDBRANCH   6  11
BRANCH   9  22
HETATM   22  C15 UNL     1      27.511   0.654  53.231  1.00  0.00     0.036 A 
HETATM   23  C16 UNL     1      27.305  -0.691  52.911  1.00  0.00     0.029 A 
HETATM   24  C17 UNL     1      28.336  -1.630  52.995  1.00  0.00     0.002 A 
HETATM   25  C18 UNL     1      29.583  -1.186  53.408  1.00  0.00     0.000 A 
HETATM   26  C19 UNL     1      29.756   0.129  53.714  1.00  0.00     0.002 A 
HETATM   27  C20 UNL     1      28.767   1.056  53.639  1.00  0.00     0.029 A 
ENDBRANCH   9  22
ENDBRANCH   5   6
ENDBRANCH   4   5
ENDBRANCH   3   4
TORSDOF 7
ENDMDL
MODEL 7
REMARK VINA RESULT:      -7.4      2.760      5.546
REMARK  7 active torsions:
REMARK  status: ('A' for Active; 'I' for Inactive)
REMARK    1  A    between atoms: C2_3  and  C3_4 
REMARK    2  A    between atoms: C3_4  and  C4_5 
REMARK    3  A    between atoms: C4_5  and  N1_6 
REMARK    4  A    between atoms: N1_6  and  C5_7 
REMARK       I    between atoms: N1_6  and  C14_17 
REMARK    5  A    between atoms: C5_7  and  C6_8 
REMARK    6  A    between atoms: C13_15  and  O1_16 
REMARK       I    between atoms: C14_17  and  N2_19 
REMARK    7  A    between atoms: N2_19  and  C15_20 
ROOT
HETATM    1  C1  UNL     1      21.845   5.288  47.283  1.00  0.00     0.104 C 
HETATM    2  S1  UNL     1      22.980   5.035  48.292  1.00  0.00    -0.096 SA
HETATM    3  C2  UNL     1      23.919   4.844  49.141  1.00  0.00    -0.111 C 
ENDROOT
BRANCH   3   4
HETATM    4  C3  UNL     1      24.971   4.654  50.105  1.00  0.00     0.112 C 
BRANCH   4   5
HETATM    5  C4  UNL     1      25.119   3.169  50.315  1.00  0.00     0.140 C 
BRANCH   5   6
HETATM    6  N1  UNL     1      24.960   2.735  51.684  1.00  0.00    -0.329 N 
HETATM    7  C14 UNL     1      25.995   1.790  52.039  1.00  0.00     0.323 C 
HETATM    8  O2  UNL     1      26.749   1.671  51.012  1.00  0.00    -0.247 OA
HETATM    9  N2  UNL     1      26.295   1.046  53.199  1.00  0.00    -0.309 N 
HETATM   10  H19 UNL     1      25.597   1.237  53.931  1.00  0.00     0.170 HD
BRANCH   6  11
HETATM   11  C5  UNL     1      24.015   3.024  52.748  1.00  0.00     0.169 C 
BRANCH  11  12
HETATM   12  C6  UNL     1      22.801   2.223  52.768  1.00  0.00    -0.006 A 
HETATM   13  C7  UNL     1      22.690   0.934  53.278  1.00  0.00     0.018 A 
HETATM   14  C8  UNL     1      21.535   0.176  53.317  1.00  0.00    -0.061 A 
HETATM   15  C9  UNL     1      21.520  -1.193  53.886  1.00  0.00     0.048 C 
HETATM   16  C10 UNL     1      20.395   0.748  52.805  1.00  0.00     0.016 A 
HETATM   17  C11 UNL     1      20.388   2.019  52.273  1.00  0.00    -0.028 A 
HETATM   18  C12 UNL     1      19.146   2.597  51.733  1.00  0.00     0.051 C 
HETATM   19  C13 UNL     1      21.585   2.713  52.271  1.00  0.00     0.079 A 
BRANCH  19  20
HETATM   20  O1  UNL     1      21.519   3.982  51.720  1.00  0.00    -0.360 OA
HETATM   21  H18 UNL     1      22.354   4.515  51.514  1.00  0.00     0.217 HD
ENDBRANCH  19  20
ENDBRANCH  11  12
ENDBRANCH   6  11
BRANCH   9  22
HETATM   22  C15 UNL     1      27.417   0.180  53.241  1.00  0.00     0.036 A 
HETATM   23  C16 UNL     1      28.565   0.880  53.624  1.00  0.00     0.029 A 
HETATM   24  C17 UNL     1      29.804   0.245  53.742  1.00  0.00     0.002 A 
HETATM   25  C18 UNL     1      29.863  -1.113  53.468  1.00  0.00     0.000 A 
HETATM   26  C19 UNL     1      28.730  -1.770  53.097  1.00  0.00     0.002 A 
HETATM   27  C20 UNL     1      27.518  -1.171  52.976  1.00  0.00     0.029 A 
ENDBRANCH   9  22
ENDBRANCH   5   6
ENDBRANCH   4   5
ENDBRANCH   3   4
TORSDOF 7
ENDMDL
MODEL 8
REMARK VINA RESULT:      -7.3      1.196      2.065
REMARK  7 active torsions:
REMARK  status: ('A' for Active; 'I' for Inactive)
REMARK    1  A    between atoms: C2_3  and  C3_4 
REMARK    2  A    between atoms: C3_4  and  C4_5 
REMARK    3  A    between atoms: C4_5  and  N1_6 
REMARK    4  A    between atoms: N1_6  and  C5_7 
REMARK       I    between atoms: N1_6  and  C14_17 
REMARK    5  A    between atoms: C5_7  and  C6_8 
REMARK    6  A    between atoms: C13_15  and  O1_16 
REMARK       I    between atoms: C14_17  and  N2_19 
REMARK    7  A    between atoms: N2_19  and  C15_20 
ROOT
HETATM    1  C1  UNL     1      21.109   8.489  49.627  1.00  0.00     0.104 C 
HETATM    2  S1  UNL     1      21.389   7.213  50.442  1.00  0.00    -0.096 SA
HETATM    3  C2  UNL     1      21.622   6.166  51.139  1.00  0.00    -0.111 C 
ENDROOT
BRANCH   3   4
HETATM    4  C3  UNL     1      21.888   5.002  51.943  1.00  0.00     0.112 C 
BRANCH   4   5
HETATM    5  C4  UNL     1      23.385   4.844  52.017  1.00  0.00     0.140 C 
BRANCH   5   6
HETATM    6  N1  UNL     1      23.958   4.032  50.967  1.00  0.00    -0.329 N 
HETATM    7  C14 UNL     1      24.964   4.776  50.244  1.00  0.00     0.323 C 
HETATM    8  O2  UNL     1      25.044   5.924  50.805  1.00  0.00    -0.247 OA
HETATM    9  N2  UNL     1      25.795   4.494  49.140  1.00  0.00    -0.309 N 
HETATM   10  H19 UNL     1      25.609   3.543  48.792  1.00  0.00     0.170 HD
BRANCH   6  11
HETATM   11  C5  UNL     1      23.747   2.677  50.489  1.00  0.00     0.169 C 
BRANCH  11  12
HETATM   12  C6  UNL     1      23.663   1.640  51.505  1.00  0.00    -0.006 A 
HETATM   13  C7  UNL     1      24.741   1.081  52.181  1.00  0.00     0.018 A 
HETATM   14  C8  UNL     1      24.666   0.110  53.162  1.00  0.00    -0.061 A 
HETATM   15  C9  UNL     1      25.879  -0.422  53.827  1.00  0.00     0.048 C 
HETATM   16  C10 UNL     1      23.413  -0.344  53.496  1.00  0.00     0.016 A 
HETATM   17  C11 UNL     1      22.273   0.137  52.891  1.00  0.00    -0.028 A 
HETATM   18  C12 UNL     1      20.947  -0.374  53.276  1.00  0.00     0.051 C 
HETATM   19  C13 UNL     1      22.433   1.109  51.919  1.00  0.00     0.079 A 
BRANCH  19  20
HETATM   20  O1  UNL     1      21.255   1.553  51.342  1.00  0.00    -0.360 OA
HETATM   21  H18 UNL     1      21.121   2.522  51.086  1.00  0.00     0.217 HD
ENDBRANCH  19  20
ENDBRANCH  11  12
ENDBRANCH   6  11
BRANCH   9  22
HETATM   22  C15 UNL     1      26.712   5.458  48.651  1.00  0.00     0.036 A 
HETATM   23  C16 UNL     1      28.009   4.937  48.627  1.00  0.00     0.029 A 
HETATM   24  C17 UNL     1      29.094   5.695  48.182  1.00  0.00     0.002 A 
HETATM   25  C18 UNL     1      28.847   6.992  47.759  1.00  0.00     0.000 A 
HETATM   26  C19 UNL     1      27.576   7.475  47.793  1.00  0.00     0.002 A 
HETATM   27  C20 UNL     1      26.508   6.755  48.222  1.00  0.00     0.029 A 
ENDBRANCH   9  22
ENDBRANCH   5   6
ENDBRANCH   4   5
ENDBRANCH   3   4
TORSDOF 7
ENDMDL
MODEL 9
REMARK VINA RESULT:      -7.3      2.111      6.767
REMARK  7 active torsions:
REMARK  status: ('A' for Active; 'I' for Inactive)
REMARK    1  A    between atoms: C2_3  and  C3_4 
REMARK    2  A    between atoms: C3_4  and  C4_5 
REMARK    3  A    between atoms: C4_5  and  N1_6 
REMARK    4  A    between atoms: N1_6  and  C5_7 
REMARK       I    between atoms: N1_6  and  C14_17 
REMARK    5  A    between atoms: C5_7  and  C6_8 
REMARK    6  A    between atoms: C13_15  and  O1_16 
REMARK       I    between atoms: C14_17  and  N2_19 
REMARK    7  A    between atoms: N2_19  and  C15_20 
ROOT
HETATM    1  C1  UNL     1      23.251   7.762  45.035  1.00  0.00     0.104 C 
HETATM    2  S1  UNL     1      22.872   6.883  46.241  1.00  0.00    -0.096 SA
HETATM    3  C2  UNL     1      22.572   6.164  47.256  1.00  0.00    -0.111 C 
ENDROOT
BRANCH   3   4
HETATM    4  C3  UNL     1      22.254   5.365  48.411  1.00  0.00     0.112 C 
BRANCH   4   5
HETATM    5  C4  UNL     1      23.350   4.341  48.560  1.00  0.00     0.140 C 
BRANCH   5   6
HETATM    6  N1  UNL     1      24.310   4.632  49.601  1.00  0.00    -0.329 N 
HETATM    7  C14 UNL     1      24.547   3.460  50.413  1.00  0.00     0.323 C 
HETATM    8  O2  UNL     1      23.839   2.519  49.911  1.00  0.00    -0.247 OA
HETATM    9  N2  UNL     1      25.340   3.191  51.548  1.00  0.00    -0.309 N 
HETATM   10  H19 UNL     1      25.838   4.042  51.840  1.00  0.00     0.170 HD
BRANCH   6  11
HETATM   11  C5  UNL     1      25.061   5.808  50.004  1.00  0.00     0.169 C 
BRANCH  11  12
HETATM   12  C6  UNL     1      26.071   6.279  49.069  1.00  0.00    -0.006 A 
HETATM   13  C7  UNL     1      25.948   7.383  48.233  1.00  0.00     0.018 A 
HETATM   14  C8  UNL     1      26.912   7.847  47.358  1.00  0.00    -0.061 A 
HETATM   15  C9  UNL     1      26.682   9.039  46.507  1.00  0.00     0.048 C 
HETATM   16  C10 UNL     1      28.097   7.155  47.310  1.00  0.00     0.016 A 
HETATM   17  C11 UNL     1      28.330   6.045  48.093  1.00  0.00    -0.028 A 
HETATM   18  C12 UNL     1      29.614   5.328  48.013  1.00  0.00     0.051 C 
HETATM   19  C13 UNL     1      27.315   5.644  48.943  1.00  0.00     0.079 A 
BRANCH  19  20
HETATM   20  O1  UNL     1      27.603   4.522  49.702  1.00  0.00    -0.360 OA
HETATM   21  H18 UNL     1      28.483   4.423  50.191  1.00  0.00     0.217 HD
ENDBRANCH  19  20
ENDBRANCH  11  12
ENDBRANCH   6  11
BRANCH   9  22
HETATM   22  C15 UNL     1      25.365   1.899  52.131  1.00  0.00     0.036 A 
HETATM   23  C16 UNL     1      26.494   1.190  51.711  1.00  0.00     0.029 A 
HETATM   24  C17 UNL     1      26.747  -0.111  52.150  1.00  0.00     0.002 A 
HETATM   25  C18 UNL     1      25.838  -0.686  53.026  1.00  0.00     0.000 A 
HETATM   26  C19 UNL     1      24.747   0.025  53.418  1.00  0.00     0.002 A 
HETATM   27  C20 UNL     1      24.483   1.291  53.003  1.00  0.00     0.029 A 
ENDBRANCH   9  22
ENDBRANCH   5   6
ENDBRANCH   4   5
ENDBRANCH   3   4
TORSDOF 7
ENDMDL
