MODEL 1
REMARK VINA RESULT:      -8.9      0.000      0.000
REMARK  5 active torsions:
REMARK  status: ('A' for Active; 'I' for Inactive)
REMARK    1  A    between atoms: C2_2  and  C4_4 
REMARK    2  A    between atoms: C7_7  and  C8_8 
REMARK    3  A    between atoms: C9_10  and  N2_11 
REMARK    4  A    between atoms: C13_15  and  C14_16 
REMARK    5  A    between atoms: N3_23  and  N4_24 
ROOT
HETATM    1  C8  UNL     1      25.275   4.633  49.764  1.00  0.00     0.045 C 
HETATM    2  N1  UNL     1      24.105   5.078  49.567  1.00  0.00    -0.256 NA
HETATM    3  C9  UNL     1      22.936   4.503  50.176  1.00  0.00     0.362 C 
HETATM    4  C10 UNL     1      23.083   3.015  50.209  1.00  0.00     0.163 C 
HETATM    5  C11 UNL     1      24.377   2.636  50.844  1.00  0.00    -0.053 C 
HETATM    6  C12 UNL     1      24.202   1.517  51.542  1.00  0.00     0.004 C 
HETATM    7  C13 UNL     1      22.786   1.139  51.377  1.00  0.00     0.137 C 
HETATM    8  N3  UNL     1      22.155   2.434  51.196  1.00  0.00    -0.213 NA
HETATM    9  C20 UNL     1      25.592   3.488  50.630  1.00  0.00     0.095 C 
ENDROOT
BRANCH   1  10
HETATM   10  C7  UNL     1      26.360   5.330  49.070  1.00  0.00    -0.011 A 
HETATM   11  C6  UNL     1      27.584   4.746  48.823  1.00  0.00     0.014 A 
HETATM   12  C5  UNL     1      28.628   5.369  48.171  1.00  0.00     0.008 A 
HETATM   13  C4  UNL     1      28.455   6.666  47.729  1.00  0.00    -0.055 A 
HETATM   14  C22 UNL     1      27.256   7.298  47.947  1.00  0.00     0.008 A 
HETATM   15  C21 UNL     1      26.255   6.623  48.602  1.00  0.00     0.014 A 
BRANCH  13  16
HETATM   16  C2  UNL     1      29.590   7.331  47.025  1.00  0.00     0.010 C 
HETATM   17  C1  UNL     1      30.282   8.319  47.950  1.00  0.00     0.015 C 
HETATM   18  C3  UNL     1      29.125   8.046  45.790  1.00  0.00     0.015 C 
ENDBRANCH  13  16
ENDBRANCH   1  10
BRANCH   3  19
HETATM   19  N2  UNL     1      21.818   4.881  49.317  1.00  0.00     0.105 N 
HETATM   20  H11 UNL     1      21.006   4.309  49.617  1.00  0.00     0.315 HD
HETATM   21  H12 UNL     1      22.015   4.732  48.314  1.00  0.00     0.315 HD
ENDBRANCH   3  19
BRANCH   8  22
HETATM   22  N4  UNL     1      22.241   3.231  52.319  1.00  0.00    -0.362 N 
HETATM   23  H20 UNL     1      22.567   4.189  52.178  1.00  0.00     0.171 HD
HETATM   24  H21 UNL     1      21.581   3.045  53.075  1.00  0.00     0.171 HD
ENDBRANCH   8  22
BRANCH   7  25
HETATM   25  C14 UNL     1      22.225   0.342  52.470  1.00  0.00    -0.013 A 
HETATM   26  C15 UNL     1      23.012  -0.026  53.513  1.00  0.00     0.011 A 
HETATM   27  C16 UNL     1      22.555  -0.782  54.589  1.00  0.00     0.001 A 
HETATM   28  C17 UNL     1      21.235  -1.194  54.628  1.00  0.00     0.002 A 
HETATM   29  C18 UNL     1      20.414  -0.820  53.558  1.00  0.00     0.024 A 
HETATM   30  C19 UNL     1      20.895  -0.064  52.493  1.00  0.00     0.042 A 
HETATM   31 CL1  UNL     1      19.833   0.381  51.175  1.00  0.00    -0.084 Cl
ENDBRANCH   7  25
TORSDOF 5
ENDMDL
MODEL 2
REMARK VINA RESULT:      -8.9      1.419      2.062
REMARK  5 active torsions:
REMARK  status: ('A' for Active; 'I' for Inactive)
REMARK    1  A    between atoms: C2_2  and  C4_4 
REMARK    2  A    between atoms: C7_7  and  C8_8 
REMARK    3  A    between atoms: C9_10  and  N2_11 
REMARK    4  A    between atoms: C13_15  and  C14_16 
REMARK    5  A    between atoms: N3_23  and  N4_24 
ROOT
HETATM    1  C8  UNL     1      25.714   5.744  49.687  1.00  0.00     0.045 C 
HETATM    2  N1  UNL     1      24.880   6.409  50.370  1.00  0.00    -0.256 NA
HETATM    3  C9  UNL     1      24.075   5.826  51.410  1.00  0.00     0.362 C 
HETATM    4  C10 UNL     1      23.642   4.459  50.983  1.00  0.00     0.163 C 
HETATM    5  C11 UNL     1      24.820   3.648  50.566  1.00  0.00    -0.053 C 
HETATM    6  C12 UNL     1      24.621   2.382  50.925  1.00  0.00     0.004 C 
HETATM    7  C13 UNL     1      23.303   2.339  51.587  1.00  0.00     0.137 C 
HETATM    8  N3  UNL     1      23.215   3.672  52.154  1.00  0.00    -0.213 NA
HETATM    9  C20 UNL     1      25.969   4.306  49.861  1.00  0.00     0.095 C 
ENDROOT
BRANCH   1  10
HETATM   10  C7  UNL     1      26.455   6.486  48.665  1.00  0.00    -0.011 A 
HETATM   11  C6  UNL     1      25.866   7.439  47.861  1.00  0.00     0.014 A 
HETATM   12  C5  UNL     1      26.531   8.158  46.891  1.00  0.00     0.008 A 
HETATM   13  C4  UNL     1      27.878   7.924  46.696  1.00  0.00    -0.055 A 
HETATM   14  C22 UNL     1      28.517   6.986  47.468  1.00  0.00     0.008 A 
HETATM   15  C21 UNL     1      27.799   6.303  48.419  1.00  0.00     0.014 A 
BRANCH  13  16
HETATM   16  C2  UNL     1      28.588   8.708  45.644  1.00  0.00     0.010 C 
HETATM   17  C1  UNL     1      27.746   8.787  44.381  1.00  0.00     0.015 C 
HETATM   18  C3  UNL     1      29.922   8.103  45.317  1.00  0.00     0.015 C 
ENDBRANCH  13  16
ENDBRANCH   1  10
BRANCH   3  19
HETATM   19  N2  UNL     1      22.917   6.701  51.550  1.00  0.00     0.105 N 
HETATM   20  H11 UNL     1      22.681   6.724  52.560  1.00  0.00     0.315 HD
HETATM   21  H12 UNL     1      22.105   6.384  50.996  1.00  0.00     0.315 HD
ENDBRANCH   3  19
BRANCH   8  22
HETATM   22  N4  UNL     1      24.160   3.899  53.134  1.00  0.00    -0.362 N 
HETATM   23  H20 UNL     1      23.834   3.877  54.102  1.00  0.00     0.171 HD
HETATM   24  H21 UNL     1      25.118   3.609  52.934  1.00  0.00     0.171 HD
ENDBRANCH   8  22
BRANCH   7  25
HETATM   25  C14 UNL     1      23.131   1.257  52.558  1.00  0.00    -0.013 A 
HETATM   26  C15 UNL     1      24.195   0.491  52.914  1.00  0.00     0.011 A 
HETATM   27  C16 UNL     1      24.114  -0.554  53.829  1.00  0.00     0.001 A 
HETATM   28  C17 UNL     1      22.902  -0.854  54.425  1.00  0.00     0.002 A 
HETATM   29  C18 UNL     1      21.800  -0.071  54.066  1.00  0.00     0.024 A 
HETATM   30  C19 UNL     1      21.905   0.969  53.148  1.00  0.00     0.042 A 
HETATM   31 CL1  UNL     1      20.499   1.924  52.727  1.00  0.00    -0.084 Cl
ENDBRANCH   7  25
TORSDOF 5
ENDMDL
MODEL 3
REMARK VINA RESULT:      -8.4      4.539      8.186
REMARK  5 active torsions:
REMARK  status: ('A' for Active; 'I' for Inactive)
REMARK    1  A    between atoms: C2_2  and  C4_4 
REMARK    2  A    between atoms: C7_7  and  C8_8 
REMARK    3  A    between atoms: C9_10  and  N2_11 
REMARK    4  A    between atoms: C13_15  and  C14_16 
REMARK    5  A    between atoms: N3_23  and  N4_24 
ROOT
HETATM    1  C8  UNL     1      22.100   2.085  51.506  1.00  0.00     0.045 C 
HETATM    2  N1  UNL     1      22.766   3.133  51.257  1.00  0.00    -0.256 NA
HETATM    3  C9  UNL     1      24.200   3.192  51.354  1.00  0.00     0.362 C 
HETATM    4  C10 UNL     1      24.643   2.391  52.537  1.00  0.00     0.163 C 
HETATM    5  C11 UNL     1      24.070   1.016  52.476  1.00  0.00    -0.053 C 
HETATM    6  C12 UNL     1      24.959   0.157  52.967  1.00  0.00     0.004 C 
HETATM    7  C13 UNL     1      26.137   0.954  53.361  1.00  0.00     0.137 C 
HETATM    8  N3  UNL     1      26.074   2.056  52.418  1.00  0.00    -0.213 NA
HETATM    9  C20 UNL     1      22.692   0.805  51.922  1.00  0.00     0.095 C 
ENDROOT
BRANCH   1  10
HETATM   10  C7  UNL     1      20.647   2.190  51.360  1.00  0.00    -0.011 A 
HETATM   11  C6  UNL     1      19.950   3.343  51.652  1.00  0.00     0.014 A 
HETATM   12  C5  UNL     1      18.583   3.480  51.525  1.00  0.00     0.008 A 
HETATM   13  C4  UNL     1      17.846   2.401  51.078  1.00  0.00    -0.055 A 
HETATM   14  C22 UNL     1      18.488   1.227  50.772  1.00  0.00     0.008 A 
HETATM   15  C21 UNL     1      19.851   1.154  50.918  1.00  0.00     0.014 A 
BRANCH  13  16
HETATM   16  C2  UNL     1      16.368   2.560  50.944  1.00  0.00     0.010 C 
HETATM   17  C1  UNL     1      16.013   4.012  50.669  1.00  0.00     0.015 C 
HETATM   18  C3  UNL     1      15.654   2.097  52.180  1.00  0.00     0.015 C 
ENDBRANCH  13  16
ENDBRANCH   1  10
BRANCH   3  19
HETATM   19  N2  UNL     1      24.525   4.601  51.549  1.00  0.00     0.105 N 
HETATM   20  H11 UNL     1      24.305   4.823  52.538  1.00  0.00     0.315 HD
HETATM   21  H12 UNL     1      24.002   5.225  50.913  1.00  0.00     0.315 HD
ENDBRANCH   3  19
BRANCH   8  22
HETATM   22  N4  UNL     1      26.266   1.654  51.112  1.00  0.00    -0.362 N 
HETATM   23  H20 UNL     1      25.437   1.355  50.596  1.00  0.00     0.171 HD
HETATM   24  H21 UNL     1      27.032   2.092  50.597  1.00  0.00     0.171 HD
ENDBRANCH   8  22
BRANCH   7  25
HETATM   25  C14 UNL     1      27.407   0.227  53.356  1.00  0.00    -0.013 A 
HETATM   26  C15 UNL     1      27.420  -1.115  53.147  1.00  0.00     0.011 A 
HETATM   27  C16 UNL     1      28.585  -1.876  53.128  1.00  0.00     0.001 A 
HETATM   28  C17 UNL     1      29.810  -1.264  53.326  1.00  0.00     0.002 A 
HETATM   29  C18 UNL     1      29.809   0.118  53.542  1.00  0.00     0.024 A 
HETATM   30  C19 UNL     1      28.630   0.858  53.557  1.00  0.00     0.042 A 
HETATM   31 CL1  UNL     1      28.676   2.587  53.831  1.00  0.00    -0.084 Cl
ENDBRANCH   7  25
TORSDOF 5
ENDMDL
MODEL 4
REMARK VINA RESULT:      -8.3      3.523      9.283
REMARK  5 active torsions:
REMARK  status: ('A' for Active; 'I' for Inactive)
REMARK    1  A    between atoms: C2_2  and  C4_4 
REMARK    2  A    between atoms: C7_7  and  C8_8 
REMARK    3  A    between atoms: C9_10  and  N2_11 
REMARK    4  A    between atoms: C13_15  and  C14_16 
REMARK    5  A    between atoms: N3_23  and  N4_24 
ROOT
HETATM    1  C8  UNL     1      25.543   4.376  50.305  1.00  0.00     0.045 C 
HETATM    2  N1  UNL     1      24.770   5.269  50.763  1.00  0.00    -0.256 NA
HETATM    3  C9  UNL     1      24.683   6.591  50.204  1.00  0.00     0.362 C 
HETATM    4  C10 UNL     1      26.051   7.042  49.799  1.00  0.00     0.163 C 
HETATM    5  C11 UNL     1      26.693   6.025  48.919  1.00  0.00    -0.053 C 
HETATM    6  C12 UNL     1      27.433   6.651  48.008  1.00  0.00     0.004 C 
HETATM    7  C13 UNL     1      27.290   8.095  48.273  1.00  0.00     0.137 C 
HETATM    8  N3  UNL     1      25.956   8.159  48.841  1.00  0.00    -0.213 NA
HETATM    9  C20 UNL     1      26.443   4.566  49.158  1.00  0.00     0.095 C 
ENDROOT
BRANCH   1  10
HETATM   10  C7  UNL     1      25.513   3.080  50.987  1.00  0.00    -0.011 A 
HETATM   11  C6  UNL     1      26.652   2.346  51.242  1.00  0.00     0.014 A 
HETATM   12  C5  UNL     1      26.664   1.124  51.882  1.00  0.00     0.008 A 
HETATM   13  C4  UNL     1      25.465   0.584  52.304  1.00  0.00    -0.055 A 
HETATM   14  C22 UNL     1      24.299   1.272  52.078  1.00  0.00     0.008 A 
HETATM   15  C21 UNL     1      24.354   2.484  51.435  1.00  0.00     0.014 A 
BRANCH  13  16
HETATM   16  C2  UNL     1      25.489  -0.739  52.996  1.00  0.00     0.010 C 
HETATM   17  C1  UNL     1      25.434  -0.550  54.503  1.00  0.00     0.015 C 
HETATM   18  C3  UNL     1      26.715  -1.524  52.635  1.00  0.00     0.015 C 
ENDBRANCH  13  16
ENDBRANCH   1  10
BRANCH   3  19
HETATM   19  N2  UNL     1      24.169   7.439  51.274  1.00  0.00     0.105 N 
HETATM   20  H11 UNL     1      24.981   7.954  51.662  1.00  0.00     0.315 HD
HETATM   21  H12 UNL     1      23.692   6.902  52.017  1.00  0.00     0.315 HD
ENDBRANCH   3  19
BRANCH   8  22
HETATM   22  N4  UNL     1      24.973   7.807  47.939  1.00  0.00    -0.362 N 
HETATM   23  H20 UNL     1      24.768   8.479  47.198  1.00  0.00     0.171 HD
HETATM   24  H21 UNL     1      24.854   6.812  47.744  1.00  0.00     0.171 HD
ENDBRANCH   8  22
BRANCH   7  25
HETATM   25  C14 UNL     1      27.494   8.962  47.112  1.00  0.00    -0.013 A 
HETATM   26  C15 UNL     1      27.479   8.435  45.860  1.00  0.00     0.011 A 
HETATM   27  C16 UNL     1      27.664   9.192  44.708  1.00  0.00     0.001 A 
HETATM   28  C17 UNL     1      27.875  10.555  44.807  1.00  0.00     0.002 A 
HETATM   29  C18 UNL     1      27.892  11.110  46.091  1.00  0.00     0.024 A 
HETATM   30  C19 UNL     1      27.705  10.332  47.230  1.00  0.00     0.042 A 
HETATM   31 CL1  UNL     1      27.735  11.068  48.818  1.00  0.00    -0.084 Cl
ENDBRANCH   7  25
TORSDOF 5
ENDMDL
MODEL 5
REMARK VINA RESULT:      -8.3      1.898      2.733
REMARK  5 active torsions:
REMARK  status: ('A' for Active; 'I' for Inactive)
REMARK    1  A    between atoms: C2_2  and  C4_4 
REMARK    2  A    between atoms: C7_7  and  C8_8 
REMARK    3  A    between atoms: C9_10  and  N2_11 
REMARK    4  A    between atoms: C13_15  and  C14_16 
REMARK    5  A    between atoms: N3_23  and  N4_24 
ROOT
HETATM    1  C8  UNL     1      24.984   3.522  50.218  1.00  0.00     0.045 C 
HETATM    2  N1  UNL     1      25.490   2.935  51.220  1.00  0.00    -0.256 NA
HETATM    3  C9  UNL     1      24.770   1.974  52.011  1.00  0.00     0.362 C 
HETATM    4  C10 UNL     1      23.350   2.424  52.154  1.00  0.00     0.163 C 
HETATM    5  C11 UNL     1      22.760   2.710  50.815  1.00  0.00    -0.053 C 
HETATM    6  C12 UNL     1      21.477   2.357  50.826  1.00  0.00     0.004 C 
HETATM    7  C13 UNL     1      21.200   1.831  52.176  1.00  0.00     0.137 C 
HETATM    8  N3  UNL     1      22.495   1.292  52.553  1.00  0.00    -0.213 NA
HETATM    9  C20 UNL     1      23.613   3.305  49.734  1.00  0.00     0.095 C 
ENDROOT
BRANCH   1  10
HETATM   10  C7  UNL     1      25.850   4.473  49.518  1.00  0.00    -0.011 A 
HETATM   11  C6  UNL     1      27.153   4.181  49.174  1.00  0.00     0.014 A 
HETATM   12  C5  UNL     1      27.998   5.049  48.514  1.00  0.00     0.008 A 
HETATM   13  C4  UNL     1      27.526   6.299  48.166  1.00  0.00    -0.055 A 
HETATM   14  C22 UNL     1      26.235   6.644  48.483  1.00  0.00     0.008 A 
HETATM   15  C21 UNL     1      25.444   5.735  49.140  1.00  0.00     0.014 A 
BRANCH  13  16
HETATM   16  C2  UNL     1      28.447   7.231  47.452  1.00  0.00     0.010 C 
HETATM   17  C1  UNL     1      29.376   7.919  48.440  1.00  0.00     0.015 C 
HETATM   18  C3  UNL     1      27.687   8.267  46.677  1.00  0.00     0.015 C 
ENDBRANCH  13  16
ENDBRANCH   1  10
BRANCH   3  19
HETATM   19  N2  UNL     1      25.428   1.962  53.313  1.00  0.00     0.105 N 
HETATM   20  H11 UNL     1      26.039   2.799  53.345  1.00  0.00     0.315 HD
HETATM   21  H12 UNL     1      25.980   1.104  53.475  1.00  0.00     0.315 HD
ENDBRANCH   3  19
BRANCH   8  22
HETATM   22  N4  UNL     1      22.879   0.225  51.766  1.00  0.00    -0.362 N 
HETATM   23  H20 UNL     1      23.875   0.144  51.556  1.00  0.00     0.171 HD
HETATM   24  H21 UNL     1      22.322  -0.628  51.832  1.00  0.00     0.171 HD
ENDBRANCH   8  22
BRANCH   7  25
HETATM   25  C14 UNL     1      20.100   0.868  52.254  1.00  0.00    -0.013 A 
HETATM   26  C15 UNL     1      19.244   0.732  51.208  1.00  0.00     0.011 A 
HETATM   27  C16 UNL     1      18.176  -0.160  51.204  1.00  0.00     0.001 A 
HETATM   28  C17 UNL     1      17.947  -0.963  52.307  1.00  0.00     0.002 A 
HETATM   29  C18 UNL     1      18.822  -0.831  53.390  1.00  0.00     0.024 A 
HETATM   30  C19 UNL     1      19.884   0.068  53.370  1.00  0.00     0.042 A 
HETATM   31 CL1  UNL     1      20.955   0.200  54.749  1.00  0.00    -0.084 Cl
ENDBRANCH   7  25
TORSDOF 5
ENDMDL
MODEL 6
REMARK VINA RESULT:      -8.3      5.447      8.611
REMARK  5 active torsions:
REMARK  status: ('A' for Active; 'I' for Inactive)
REMARK    1  A    between atoms: C2_2  and  C4_4 
REMARK    2  A    between atoms: C7_7  and  C8_8 
REMARK    3  A    between atoms: C9_10  and  N2_11 
REMARK    4  A    between atoms: C13_15  and  C14_16 
REMARK    5  A    between atoms: N3_23  and  N4_24 
ROOT
HETATM    1  C8  UNL     1      21.505   1.094  52.780  1.00  0.00     0.045 C 
HETATM    2  N1  UNL     1      21.458   0.102  53.567  1.00  0.00    -0.256 NA
HETATM    3  C9  UNL     1      22.634  -0.513  54.124  1.00  0.00     0.362 C 
HETATM    4  C10 UNL     1      23.710  -0.540  53.084  1.00  0.00     0.163 C 
HETATM    5  C11 UNL     1      23.917   0.822  52.517  1.00  0.00    -0.053 C 
HETATM    6  C12 UNL     1      25.210   0.986  52.251  1.00  0.00     0.004 C 
HETATM    7  C13 UNL     1      25.878  -0.271  52.640  1.00  0.00     0.137 C 
HETATM    8  N3  UNL     1      25.025  -0.735  53.720  1.00  0.00    -0.213 NA
HETATM    9  C20 UNL     1      22.747   1.743  52.336  1.00  0.00     0.095 C 
ENDROOT
BRANCH   1  10
HETATM   10  C7  UNL     1      20.218   1.603  52.301  1.00  0.00    -0.011 A 
HETATM   11  C6  UNL     1      19.146   0.780  52.030  1.00  0.00     0.014 A 
HETATM   12  C5  UNL     1      17.919   1.221  51.579  1.00  0.00     0.008 A 
HETATM   13  C4  UNL     1      17.733   2.575  51.380  1.00  0.00    -0.055 A 
HETATM   14  C22 UNL     1      18.766   3.442  51.635  1.00  0.00     0.008 A 
HETATM   15  C21 UNL     1      19.963   2.940  52.083  1.00  0.00     0.014 A 
BRANCH  13  16
HETATM   16  C2  UNL     1      16.402   3.043  50.893  1.00  0.00     0.010 C 
HETATM   17  C1  UNL     1      15.845   4.114  51.817  1.00  0.00     0.015 C 
HETATM   18  C3  UNL     1      15.425   1.909  50.796  1.00  0.00     0.015 C 
ENDBRANCH  13  16
ENDBRANCH   1  10
BRANCH   3  19
HETATM   19  N2  UNL     1      22.239  -1.872  54.477  1.00  0.00     0.105 N 
HETATM   20  H11 UNL     1      21.337  -1.798  54.983  1.00  0.00     0.315 HD
HETATM   21  H12 UNL     1      22.942  -2.355  55.058  1.00  0.00     0.315 HD
ENDBRANCH   3  19
BRANCH   8  22
HETATM   22  N4  UNL     1      25.049   0.101  54.817  1.00  0.00    -0.362 N 
HETATM   23  H20 UNL     1      24.762   1.070  54.663  1.00  0.00     0.171 HD
HETATM   24  H21 UNL     1      24.876  -0.322  55.730  1.00  0.00     0.171 HD
ENDBRANCH   8  22
BRANCH   7  25
HETATM   25  C14 UNL     1      27.290  -0.137  53.003  1.00  0.00    -0.013 A 
HETATM   26  C15 UNL     1      27.799   1.085  53.307  1.00  0.00     0.011 A 
HETATM   27  C16 UNL     1      29.128   1.295  53.661  1.00  0.00     0.001 A 
HETATM   28  C17 UNL     1      30.003   0.225  53.715  1.00  0.00     0.002 A 
HETATM   29  C18 UNL     1      29.490  -1.039  53.403  1.00  0.00     0.024 A 
HETATM   30  C19 UNL     1      28.156  -1.224  53.052  1.00  0.00     0.042 A 
HETATM   31 CL1  UNL     1      27.557  -2.824  52.669  1.00  0.00    -0.084 Cl
ENDBRANCH   7  25
TORSDOF 5
ENDMDL
MODEL 7
REMARK VINA RESULT:      -8.2      2.541      9.148
REMARK  5 active torsions:
REMARK  status: ('A' for Active; 'I' for Inactive)
REMARK    1  A    between atoms: C2_2  and  C4_4 
REMARK    2  A    between atoms: C7_7  and  C8_8 
REMARK    3  A    between atoms: C9_10  and  N2_11 
REMARK    4  A    between atoms: C13_15  and  C14_16 
REMARK    5  A    between atoms: N3_23  and  N4_24 
ROOT
HETATM    1  C8  UNL     1      23.925   3.372  50.941  1.00  0.00     0.045 C 
HETATM    2  N1  UNL     1      23.261   4.433  51.139  1.00  0.00    -0.256 NA
HETATM    3  C9  UNL     1      23.545   5.672  50.465  1.00  0.00     0.362 C 
HETATM    4  C10 UNL     1      25.027   5.830  50.338  1.00  0.00     0.163 C 
HETATM    5  C11 UNL     1      25.627   4.619  49.711  1.00  0.00    -0.053 C 
HETATM    6  C12 UNL     1      26.643   4.992  48.938  1.00  0.00     0.004 C 
HETATM    7  C13 UNL     1      26.730   6.461  49.043  1.00  0.00     0.137 C 
HETATM    8  N3  UNL     1      25.345   6.820  49.293  1.00  0.00    -0.213 NA
HETATM    9  C20 UNL     1      25.057   3.264  50.010  1.00  0.00     0.095 C 
ENDROOT
BRANCH   1  10
HETATM   10  C7  UNL     1      23.508   2.195  51.706  1.00  0.00    -0.011 A 
HETATM   11  C6  UNL     1      24.408   1.334  52.297  1.00  0.00     0.014 A 
HETATM   12  C5  UNL     1      24.055   0.217  53.026  1.00  0.00     0.008 A 
HETATM   13  C4  UNL     1      22.714  -0.075  53.184  1.00  0.00    -0.055 A 
HETATM   14  C22 UNL     1      21.773   0.748  52.618  1.00  0.00     0.008 A 
HETATM   15  C21 UNL     1      22.190   1.845  51.904  1.00  0.00     0.014 A 
BRANCH  13  16
HETATM   16  C2  UNL     1      22.342  -1.286  53.974  1.00  0.00     0.010 C 
HETATM   17  C1  UNL     1      20.835  -1.358  54.156  1.00  0.00     0.015 C 
HETATM   18  C3  UNL     1      23.008  -1.288  55.319  1.00  0.00     0.015 C 
ENDBRANCH  13  16
ENDBRANCH   1  10
BRANCH   3  19
HETATM   19  N2  UNL     1      22.997   6.720  51.320  1.00  0.00     0.105 N 
HETATM   20  H11 UNL     1      22.625   6.250  52.166  1.00  0.00     0.315 HD
HETATM   21  H12 UNL     1      22.256   7.269  50.855  1.00  0.00     0.315 HD
ENDBRANCH   3  19
BRANCH   8  22
HETATM   22  N4  UNL     1      24.517   6.531  48.228  1.00  0.00    -0.362 N 
HETATM   23  H20 UNL     1      24.669   5.638  47.756  1.00  0.00     0.171 HD
HETATM   24  H21 UNL     1      23.573   6.917  48.253  1.00  0.00     0.171 HD
ENDBRANCH   8  22
BRANCH   7  25
HETATM   25  C14 UNL     1      27.327   7.131  47.887  1.00  0.00    -0.013 A 
HETATM   26  C15 UNL     1      26.575   7.964  47.123  1.00  0.00     0.011 A 
HETATM   27  C16 UNL     1      27.068   8.638  46.010  1.00  0.00     0.001 A 
HETATM   28  C17 UNL     1      28.390   8.473  45.636  1.00  0.00     0.002 A 
HETATM   29  C18 UNL     1      29.175   7.618  46.416  1.00  0.00     0.024 A 
HETATM   30  C19 UNL     1      28.658   6.954  47.525  1.00  0.00     0.042 A 
HETATM   31 CL1  UNL     1      29.677   5.892  48.473  1.00  0.00    -0.084 Cl
ENDBRANCH   7  25
TORSDOF 5
ENDMDL
MODEL 8
REMARK VINA RESULT:      -8.2      1.922      2.426
REMARK  5 active torsions:
REMARK  status: ('A' for Active; 'I' for Inactive)
REMARK    1  A    between atoms: C2_2  and  C4_4 
REMARK    2  A    between atoms: C7_7  and  C8_8 
REMARK    3  A    between atoms: C9_10  and  N2_11 
REMARK    4  A    between atoms: C13_15  and  C14_16 
REMARK    5  A    between atoms: N3_23  and  N4_24 
ROOT
HETATM    1  C8  UNL     1      26.073   3.705  50.263  1.00  0.00     0.045 C 
HETATM    2  N1  UNL     1      26.905   3.217  51.085  1.00  0.00    -0.256 NA
HETATM    3  C9  UNL     1      26.564   2.182  52.024  1.00  0.00     0.362 C 
HETATM    4  C10 UNL     1      25.184   2.431  52.546  1.00  0.00     0.163 C 
HETATM    5  C11 UNL     1      24.226   2.602  51.417  1.00  0.00    -0.053 C 
HETATM    6  C12 UNL     1      23.055   2.072  51.763  1.00  0.00     0.004 C 
HETATM    7  C13 UNL     1      23.224   1.542  53.129  1.00  0.00     0.137 C 
HETATM    8  N3  UNL     1      24.634   1.199  53.139  1.00  0.00    -0.213 NA
HETATM    9  C20 UNL     1      24.668   3.287  50.158  1.00  0.00     0.095 C 
ENDROOT
BRANCH   1  10
HETATM   10  C7  UNL     1      26.579   4.753  49.374  1.00  0.00    -0.011 A 
HETATM   11  C6  UNL     1      27.849   4.727  48.838  1.00  0.00     0.014 A 
HETATM   12  C5  UNL     1      28.360   5.694  47.997  1.00  0.00     0.008 A 
HETATM   13  C4  UNL     1      27.561   6.767  47.657  1.00  0.00    -0.055 A 
HETATM   14  C22 UNL     1      26.286   6.845  48.161  1.00  0.00     0.008 A 
HETATM   15  C21 UNL     1      25.836   5.850  48.993  1.00  0.00     0.014 A 
BRANCH  13  16
HETATM   16  C2  UNL     1      28.123   7.807  46.746  1.00  0.00     0.010 C 
HETATM   17  C1  UNL     1      29.465   8.298  47.265  1.00  0.00     0.015 C 
HETATM   18  C3  UNL     1      27.187   8.972  46.601  1.00  0.00     0.015 C 
ENDBRANCH  13  16
ENDBRANCH   1  10
BRANCH   3  19
HETATM   19  N2  UNL     1      27.539   2.291  53.103  1.00  0.00     0.105 N 
HETATM   20  H11 UNL     1      27.013   2.574  53.951  1.00  0.00     0.315 HD
HETATM   21  H12 UNL     1      28.289   2.970  52.899  1.00  0.00     0.315 HD
ENDBRANCH   3  19
BRANCH   8  22
HETATM   22  N4  UNL     1      24.942   0.180  52.261  1.00  0.00    -0.362 N 
HETATM   23  H20 UNL     1      25.051  -0.754  52.660  1.00  0.00     0.171 HD
HETATM   24  H21 UNL     1      24.593   0.266  51.305  1.00  0.00     0.171 HD
ENDBRANCH   8  22
BRANCH   7  25
HETATM   25  C14 UNL     1      22.331   0.436  53.480  1.00  0.00    -0.013 A 
HETATM   26  C15 UNL     1      22.847  -0.726  53.957  1.00  0.00     0.011 A 
HETATM   27  C16 UNL     1      22.067  -1.822  54.313  1.00  0.00     0.001 A 
HETATM   28  C17 UNL     1      20.691  -1.756  54.187  1.00  0.00     0.002 A 
HETATM   29  C18 UNL     1      20.148  -0.563  53.698  1.00  0.00     0.024 A 
HETATM   30  C19 UNL     1      20.949   0.519  53.348  1.00  0.00     0.042 A 
HETATM   31 CL1  UNL     1      20.227   1.993  52.739  1.00  0.00    -0.084 Cl
ENDBRANCH   7  25
TORSDOF 5
ENDMDL
MODEL 9
REMARK VINA RESULT:      -8.1      2.445      9.495
REMARK  5 active torsions:
REMARK  status: ('A' for Active; 'I' for Inactive)
REMARK    1  A    between atoms: C2_2  and  C4_4 
REMARK    2  A    between atoms: C7_7  and  C8_8 
REMARK    3  A    between atoms: C9_10  and  N2_11 
REMARK    4  A    between atoms: C13_15  and  C14_16 
REMARK    5  A    between atoms: N3_23  and  N4_24 
ROOT
HETATM    1  C8  UNL     1      21.744   1.156  52.153  1.00  0.00     0.045 C 
HETATM    2  N1  UNL     1      22.722   0.970  52.937  1.00  0.00    -0.256 NA
HETATM    3  C9  UNL     1      23.973   1.670  52.809  1.00  0.00     0.362 C 
HETATM    4  C10 UNL     1      24.305   1.816  51.358  1.00  0.00     0.163 C 
HETATM    5  C11 UNL     1      23.161   2.427  50.623  1.00  0.00    -0.053 C 
HETATM    6  C12 UNL     1      23.638   3.218  49.666  1.00  0.00     0.004 C 
HETATM    7  C13 UNL     1      25.109   3.142  49.755  1.00  0.00     0.137 C 
HETATM    8  N3  UNL     1      25.304   2.883  51.170  1.00  0.00    -0.213 NA
HETATM    9  C20 UNL     1      21.754   2.097  51.023  1.00  0.00     0.095 C 
ENDROOT
BRANCH   1  10
HETATM   10  C7  UNL     1      20.541   0.365  52.418  1.00  0.00    -0.011 A 
HETATM   11  C6  UNL     1      20.436  -0.496  53.490  1.00  0.00     0.014 A 
HETATM   12  C5  UNL     1      19.320  -1.256  53.774  1.00  0.00     0.008 A 
HETATM   13  C4  UNL     1      18.224  -1.162  52.939  1.00  0.00    -0.055 A 
HETATM   14  C22 UNL     1      18.272  -0.320  51.856  1.00  0.00     0.008 A 
HETATM   15  C21 UNL     1      19.412   0.410  51.628  1.00  0.00     0.014 A 
BRANCH  13  16
HETATM   16  C2  UNL     1      17.022  -1.988  53.254  1.00  0.00     0.010 C 
HETATM   17  C1  UNL     1      17.419  -3.437  53.487  1.00  0.00     0.015 C 
HETATM   18  C3  UNL     1      16.006  -1.920  52.151  1.00  0.00     0.015 C 
ENDBRANCH  13  16
ENDBRANCH   1  10
BRANCH   3  19
HETATM   19  N2  UNL     1      24.964   0.829  53.471  1.00  0.00     0.105 N 
HETATM   20  H11 UNL     1      24.457   0.281  54.191  1.00  0.00     0.315 HD
HETATM   21  H12 UNL     1      25.728   1.374  53.903  1.00  0.00     0.315 HD
ENDBRANCH   3  19
BRANCH   8  22
HETATM   22  N4  UNL     1      24.898   3.934  51.967  1.00  0.00    -0.362 N 
HETATM   23  H20 UNL     1      25.023   3.822  52.974  1.00  0.00     0.171 HD
HETATM   24  H21 UNL     1      24.957   4.871  51.568  1.00  0.00     0.171 HD
ENDBRANCH   8  22
BRANCH   7  25
HETATM   25  C14 UNL     1      25.823   4.316  49.252  1.00  0.00    -0.013 A 
HETATM   26  C15 UNL     1      27.161   4.252  49.030  1.00  0.00     0.011 A 
HETATM   27  C16 UNL     1      27.911   5.323  48.554  1.00  0.00     0.001 A 
HETATM   28  C17 UNL     1      27.291   6.529  48.281  1.00  0.00     0.002 A 
HETATM   29  C18 UNL     1      25.913   6.607  48.506  1.00  0.00     0.024 A 
HETATM   30  C19 UNL     1      25.184   5.522  48.984  1.00  0.00     0.042 A 
HETATM   31 CL1  UNL     1      23.460   5.664  49.251  1.00  0.00    -0.084 Cl
ENDBRANCH   7  25
TORSDOF 5
ENDMDL
