MODEL 1
REMARK VINA RESULT:      -7.8      0.000      0.000
REMARK  2 active torsions:
REMARK  status: ('A' for Active; 'I' for Inactive)
REMARK    1  A    between atoms: C4_5  and  N2_6 
REMARK    2  A    between atoms: C10_13  and  O1_14 
ROOT
HETATM    1  N1  UNL     1      31.176   9.988  44.192  1.00  0.00    -0.191 NA
HETATM    2  C1  UNL     1      30.880   9.426  45.145  1.00  0.00     0.100 C 
HETATM    3  C2  UNL     1      30.498   8.727  46.301  1.00  0.00     0.054 C 
HETATM    4  C3  UNL     1      29.524   7.758  46.456  1.00  0.00     0.025 C 
HETATM    5  C4  UNL     1      29.662   6.633  47.490  1.00  0.00     0.153 C 
HETATM    6  C10 UNL     1      30.849   6.714  48.432  1.00  0.00     0.127 C 
HETATM    7  C11 UNL     1      30.818   7.957  49.317  1.00  0.00     0.017 C 
HETATM    8  C12 UNL     1      30.954   9.291  48.936  1.00  0.00     0.013 C 
HETATM    9  C13 UNL     1      31.388   9.097  47.485  1.00  0.00    -0.001 C 
HETATM   10  C14 UNL     1      32.584   9.041  46.757  1.00  0.00     0.096 C 
HETATM   11  N3  UNL     1      33.701   8.143  47.252  1.00  0.00    -0.396 N 
HETATM   12  C15 UNL     1      33.459   7.009  48.253  1.00  0.00     0.153 C 
HETATM   13  C16 UNL     1      32.166   6.293  47.959  1.00  0.00     0.086 C 
HETATM   14  C17 UNL     1      32.485   4.842  48.413  1.00  0.00     0.045 C 
HETATM   15  C18 UNL     1      33.484   4.308  47.421  1.00  0.00     0.105 C 
HETATM   16  C19 UNL     1      33.226   5.217  46.274  1.00  0.00     0.218 C 
HETATM   17  O2  UNL     1      34.084   5.019  45.346  1.00  0.00    -0.274 OA
HETATM   18  N4  UNL     1      32.104   6.065  46.503  1.00  0.00    -0.347 N 
HETATM   19  H12 UNL     1      34.386   8.647  46.655  1.00  0.00     0.159 HD
HETATM   20  H19 UNL     1      31.648   6.213  45.547  1.00  0.00     0.163 HD
ENDROOT
BRANCH   5  21
HETATM   21  N2  UNL     1      28.415   6.530  48.159  1.00  0.00    -0.354 N 
HETATM   22  C5  UNL     1      27.539   7.582  48.528  1.00  0.00     0.087 A 
HETATM   23  C6  UNL     1      26.390   7.437  49.152  1.00  0.00    -0.004 A 
HETATM   24  C7  UNL     1      25.910   6.109  49.532  1.00  0.00     0.076 A 
HETATM   25  C8  UNL     1      26.771   4.988  49.179  1.00  0.00     0.007 A 
HETATM   26 BR1  UNL     1      26.243   3.230  49.623  1.00  0.00    -0.054 Br
HETATM   27  C9  UNL     1      27.910   5.233  48.550  1.00  0.00     0.106 A 
ENDBRANCH   5  21
BRANCH   6  28
HETATM   28  O1  UNL     1      30.423   5.725  49.378  1.00  0.00    -0.381 OA
HETATM   29  H8  UNL     1      31.049   4.970  49.415  1.00  0.00     0.211 HD
ENDBRANCH   6  28
TORSDOF 2
ENDMDL
MODEL 2
REMARK VINA RESULT:      -7.7      1.802      2.144
REMARK  2 active torsions:
REMARK  status: ('A' for Active; 'I' for Inactive)
REMARK    1  A    between atoms: C4_5  and  N2_6 
REMARK    2  A    between atoms: C10_13  and  O1_14 
ROOT
HETATM    1  N1  UNL     1      33.229   9.699  44.560  1.00  0.00    -0.191 NA
HETATM    2  C1  UNL     1      32.751   9.077  45.395  1.00  0.00     0.100 C 
HETATM    3  C2  UNL     1      32.144   8.311  46.403  1.00  0.00     0.054 C 
HETATM    4  C3  UNL     1      30.995   7.544  46.347  1.00  0.00     0.025 C 
HETATM    5  C4  UNL     1      30.828   6.278  47.198  1.00  0.00     0.153 C 
HETATM    6  C10 UNL     1      31.922   5.986  48.208  1.00  0.00     0.127 C 
HETATM    7  C11 UNL     1      32.048   7.071  49.274  1.00  0.00     0.017 C 
HETATM    8  C12 UNL     1      32.466   8.392  49.116  1.00  0.00     0.013 C 
HETATM    9  C13 UNL     1      32.980   8.324  47.680  1.00  0.00    -0.001 C 
HETATM   10  C14 UNL     1      34.203   8.135  47.023  1.00  0.00     0.096 C 
HETATM   11  N3  UNL     1      35.084   6.971  47.434  1.00  0.00    -0.396 N 
HETATM   12  C15 UNL     1      34.546   5.777  48.230  1.00  0.00     0.153 C 
HETATM   13  C16 UNL     1      33.172   5.382  47.752  1.00  0.00     0.086 C 
HETATM   14  C17 UNL     1      33.171   3.847  47.992  1.00  0.00     0.045 C 
HETATM   15  C18 UNL     1      34.135   3.272  46.988  1.00  0.00     0.105 C 
HETATM   16  C19 UNL     1      34.154   4.368  45.984  1.00  0.00     0.218 C 
HETATM   17  O2  UNL     1      35.037   4.137  45.088  1.00  0.00    -0.274 OA
HETATM   18  N4  UNL     1      33.196   5.381  46.277  1.00  0.00    -0.347 N 
HETATM   19  H12 UNL     1      35.901   7.408  46.965  1.00  0.00     0.159 HD
HETATM   20  H19 UNL     1      32.861   5.752  45.332  1.00  0.00     0.163 HD
ENDROOT
BRANCH   5  21
HETATM   21  N2  UNL     1      29.530   6.331  47.770  1.00  0.00    -0.354 N 
HETATM   22  C5  UNL     1      28.693   5.242  48.124  1.00  0.00     0.087 A 
HETATM   23  C6  UNL     1      27.492   5.342  48.652  1.00  0.00    -0.004 A 
HETATM   24  C7  UNL     1      26.903   6.652  48.923  1.00  0.00     0.076 A 
HETATM   25  C8  UNL     1      27.718   7.809  48.579  1.00  0.00     0.007 A 
HETATM   26 BR1  UNL     1      27.050   9.548  48.891  1.00  0.00    -0.054 Br
HETATM   27  C9  UNL     1      28.916   7.610  48.052  1.00  0.00     0.106 A 
ENDBRANCH   5  21
BRANCH   6  28
HETATM   28  O1  UNL     1      31.236   4.977  48.962  1.00  0.00    -0.381 OA
HETATM   29  H8  UNL     1      30.318   5.249  49.174  1.00  0.00     0.211 HD
ENDBRANCH   6  28
TORSDOF 2
ENDMDL
MODEL 3
REMARK VINA RESULT:      -7.7     10.177     12.842
REMARK  2 active torsions:
REMARK  status: ('A' for Active; 'I' for Inactive)
REMARK    1  A    between atoms: C4_5  and  N2_6 
REMARK    2  A    between atoms: C10_13  and  O1_14 
ROOT
HETATM    1  N1  UNL     1      22.113   6.046  50.596  1.00  0.00    -0.191 NA
HETATM    2  C1  UNL     1      21.919   4.941  50.829  1.00  0.00     0.100 C 
HETATM    3  C2  UNL     1      21.688   3.592  51.140  1.00  0.00     0.054 C 
HETATM    4  C3  UNL     1      21.644   2.973  52.375  1.00  0.00     0.025 C 
HETATM    5  C4  UNL     1      20.744   1.758  52.638  1.00  0.00     0.153 C 
HETATM    6  C10 UNL     1      20.012   1.180  51.441  1.00  0.00     0.127 C 
HETATM    7  C11 UNL     1      20.959   0.648  50.368  1.00  0.00     0.017 C 
HETATM    8  C12 UNL     1      21.837   1.367  49.559  1.00  0.00     0.013 C 
HETATM    9  C13 UNL     1      21.374   2.786  49.881  1.00  0.00    -0.001 C 
HETATM   10  C14 UNL     1      20.506   3.744  49.340  1.00  0.00     0.096 C 
HETATM   11  N3  UNL     1      19.096   3.327  48.967  1.00  0.00    -0.396 N 
HETATM   12  C15 UNL     1      18.448   2.049  49.509  1.00  0.00     0.153 C 
HETATM   13  C16 UNL     1      18.798   1.838  50.960  1.00  0.00     0.086 C 
HETATM   14  C17 UNL     1      17.526   1.130  51.504  1.00  0.00     0.045 C 
HETATM   15  C18 UNL     1      16.439   2.171  51.492  1.00  0.00     0.105 C 
HETATM   16  C19 UNL     1      17.260   3.410  51.489  1.00  0.00     0.218 C 
HETATM   17  O2  UNL     1      16.515   4.439  51.341  1.00  0.00    -0.274 OA
HETATM   18  N4  UNL     1      18.648   3.134  51.648  1.00  0.00    -0.347 N 
HETATM   19  H12 UNL     1      18.989   4.177  48.378  1.00  0.00     0.159 HD
HETATM   20  H19 UNL     1      19.051   3.957  52.199  1.00  0.00     0.163 HD
ENDROOT
BRANCH   5  21
HETATM   21  N2  UNL     1      21.528   0.804  53.335  1.00  0.00    -0.354 N 
HETATM   22  C5  UNL     1      21.109  -0.079  54.363  1.00  0.00     0.087 A 
HETATM   23  C6  UNL     1      21.877  -0.949  54.984  1.00  0.00    -0.004 A 
HETATM   24  C7  UNL     1      23.292  -1.072  54.641  1.00  0.00     0.076 A 
HETATM   25  C8  UNL     1      23.780  -0.188  53.591  1.00  0.00     0.007 A 
HETATM   26 BR1  UNL     1      25.594  -0.268  53.071  1.00  0.00    -0.054 Br
HETATM   27  C9  UNL     1      22.932   0.654  53.023  1.00  0.00     0.106 A 
ENDBRANCH   5  21
BRANCH   6  28
HETATM   28  O1  UNL     1      19.593  -0.055  52.038  1.00  0.00    -0.381 OA
HETATM   29  H8  UNL     1      20.280  -0.413  52.640  1.00  0.00     0.211 HD
ENDBRANCH   6  28
TORSDOF 2
ENDMDL
MODEL 4
REMARK VINA RESULT:      -7.6      6.978      9.603
REMARK  2 active torsions:
REMARK  status: ('A' for Active; 'I' for Inactive)
REMARK    1  A    between atoms: C4_5  and  N2_6 
REMARK    2  A    between atoms: C10_13  and  O1_14 
ROOT
HETATM    1  N1  UNL     1      19.949   2.835  47.439  1.00  0.00    -0.191 NA
HETATM    2  C1  UNL     1      20.645   2.908  48.346  1.00  0.00     0.100 C 
HETATM    3  C2  UNL     1      21.512   2.979  49.448  1.00  0.00     0.054 C 
HETATM    4  C3  UNL     1      22.711   2.324  49.662  1.00  0.00     0.025 C 
HETATM    5  C4  UNL     1      23.842   2.959  50.482  1.00  0.00     0.153 C 
HETATM    6  C10 UNL     1      23.531   4.277  51.167  1.00  0.00     0.127 C 
HETATM    7  C11 UNL     1      22.416   4.157  52.202  1.00  0.00     0.017 C 
HETATM    8  C12 UNL     1      21.066   3.882  51.989  1.00  0.00     0.013 C 
HETATM    9  C13 UNL     1      21.021   4.003  50.467  1.00  0.00    -0.001 C 
HETATM   10  C14 UNL     1      20.702   4.978  49.513  1.00  0.00     0.096 C 
HETATM   11  N3  UNL     1      21.315   6.360  49.643  1.00  0.00    -0.396 N 
HETATM   12  C15 UNL     1      22.551   6.630  50.508  1.00  0.00     0.153 C 
HETATM   13  C16 UNL     1      23.554   5.511  50.385  1.00  0.00     0.086 C 
HETATM   14  C17 UNL     1      24.903   6.260  50.562  1.00  0.00     0.045 C 
HETATM   15  C18 UNL     1      25.074   7.101  49.325  1.00  0.00     0.105 C 
HETATM   16  C19 UNL     1      24.173   6.378  48.389  1.00  0.00     0.218 C 
HETATM   17  O2  UNL     1      24.064   7.021  47.289  1.00  0.00    -0.274 OA
HETATM   18  N4  UNL     1      23.670   5.171  48.954  1.00  0.00    -0.347 N 
HETATM   19  H12 UNL     1      20.603   6.750  48.996  1.00  0.00     0.159 HD
HETATM   20  H19 UNL     1      23.567   4.486  48.140  1.00  0.00     0.163 HD
ENDROOT
BRANCH   5  21
HETATM   21  N2  UNL     1      24.321   1.960  51.369  1.00  0.00    -0.354 N 
HETATM   22  C5  UNL     1      25.670   1.629  51.654  1.00  0.00     0.087 A 
HETATM   23  C6  UNL     1      26.068   0.689  52.485  1.00  0.00    -0.004 A 
HETATM   24  C7  UNL     1      25.094  -0.123  53.212  1.00  0.00     0.076 A 
HETATM   25  C8  UNL     1      23.691   0.173  52.959  1.00  0.00     0.007 A 
HETATM   26 BR1  UNL     1      22.352  -0.819  53.848  1.00  0.00    -0.054 Br
HETATM   27  C9  UNL     1      23.387   1.137  52.105  1.00  0.00     0.106 A 
ENDBRANCH   5  21
BRANCH   6  28
HETATM   28  O1  UNL     1      24.671   4.326  52.035  1.00  0.00    -0.381 OA
HETATM   29  H8  UNL     1      24.446   4.027  52.941  1.00  0.00     0.211 HD
ENDBRANCH   6  28
TORSDOF 2
ENDMDL
MODEL 5
REMARK VINA RESULT:      -7.3      7.347     11.566
REMARK  2 active torsions:
REMARK  status: ('A' for Active; 'I' for Inactive)
REMARK    1  A    between atoms: C4_5  and  N2_6 
REMARK    2  A    between atoms: C10_13  and  O1_14 
ROOT
HETATM    1  N1  UNL     1      17.442   3.867  51.843  1.00  0.00    -0.191 NA
HETATM    2  C1  UNL     1      18.494   3.685  51.427  1.00  0.00     0.100 C 
HETATM    3  C2  UNL     1      19.791   3.484  50.927  1.00  0.00     0.054 C 
HETATM    4  C3  UNL     1      20.945   4.205  51.173  1.00  0.00     0.025 C 
HETATM    5  C4  UNL     1      22.328   3.541  51.168  1.00  0.00     0.153 C 
HETATM    6  C10 UNL     1      22.384   2.085  50.743  1.00  0.00     0.127 C 
HETATM    7  C11 UNL     1      21.925   1.872  49.303  1.00  0.00     0.017 C 
HETATM    8  C12 UNL     1      20.647   2.039  48.771  1.00  0.00     0.013 C 
HETATM    9  C13 UNL     1      19.857   2.226  50.064  1.00  0.00    -0.001 C 
HETATM   10  C14 UNL     1      19.102   1.438  50.943  1.00  0.00     0.096 C 
HETATM   11  N3  UNL     1      19.689   0.133  51.445  1.00  0.00    -0.396 N 
HETATM   12  C15 UNL     1      21.188  -0.175  51.370  1.00  0.00     0.153 C 
HETATM   13  C16 UNL     1      22.009   1.046  51.699  1.00  0.00     0.086 C 
HETATM   14  C17 UNL     1      23.265   0.425  52.370  1.00  0.00     0.045 C 
HETATM   15  C18 UNL     1      22.798  -0.123  53.692  1.00  0.00     0.105 C 
HETATM   16  C19 UNL     1      21.558   0.675  53.885  1.00  0.00     0.218 C 
HETATM   17  O2  UNL     1      20.916   0.262  54.911  1.00  0.00    -0.274 OA
HETATM   18  N4  UNL     1      21.408   1.681  52.887  1.00  0.00    -0.347 N 
HETATM   19  H12 UNL     1      18.747  -0.191  51.740  1.00  0.00     0.159 HD
HETATM   20  H19 UNL     1      20.923   2.503  53.369  1.00  0.00     0.163 HD
ENDROOT
BRANCH   5  21
HETATM   21  N2  UNL     1      23.189   4.383  50.419  1.00  0.00    -0.354 N 
HETATM   22  C5  UNL     1      24.527   4.745  50.722  1.00  0.00     0.087 A 
HETATM   23  C6  UNL     1      25.289   5.534  49.995  1.00  0.00    -0.004 A 
HETATM   24  C7  UNL     1      24.783   6.125  48.758  1.00  0.00     0.076 A 
HETATM   25  C8  UNL     1      23.413   5.788  48.395  1.00  0.00     0.007 A 
HETATM   26 BR1  UNL     1      22.663   6.500  46.814  1.00  0.00    -0.054 Br
HETATM   27  C9  UNL     1      22.723   4.985  49.190  1.00  0.00     0.106 A 
ENDBRANCH   5  21
BRANCH   6  28
HETATM   28  O1  UNL     1      23.803   1.981  50.568  1.00  0.00    -0.381 OA
HETATM   29  H8  UNL     1      24.109   1.053  50.652  1.00  0.00     0.211 HD
ENDBRANCH   6  28
TORSDOF 2
ENDMDL
MODEL 6
REMARK VINA RESULT:      -7.2      8.343     10.679
REMARK  2 active torsions:
REMARK  status: ('A' for Active; 'I' for Inactive)
REMARK    1  A    between atoms: C4_5  and  N2_6 
REMARK    2  A    between atoms: C10_13  and  O1_14 
ROOT
HETATM    1  N1  UNL     1      22.160   3.234  46.767  1.00  0.00    -0.191 NA
HETATM    2  C1  UNL     1      21.881   2.997  47.853  1.00  0.00     0.100 C 
HETATM    3  C2  UNL     1      21.536   2.682  49.177  1.00  0.00     0.054 C 
HETATM    4  C3  UNL     1      21.323   1.445  49.755  1.00  0.00     0.025 C 
HETATM    5  C4  UNL     1      21.642   1.178  51.231  1.00  0.00     0.153 C 
HETATM    6  C10 UNL     1      22.070   2.372  52.064  1.00  0.00     0.127 C 
HETATM    7  C11 UNL     1      20.986   3.443  52.162  1.00  0.00     0.017 C 
HETATM    8  C12 UNL     1      20.481   4.256  51.147  1.00  0.00     0.013 C 
HETATM    9  C13 UNL     1      21.488   3.938  50.044  1.00  0.00    -0.001 C 
HETATM   10  C14 UNL     1      22.673   4.482  49.531  1.00  0.00     0.096 C 
HETATM   11  N3  UNL     1      23.786   4.854  50.493  1.00  0.00    -0.396 N 
HETATM   12  C15 UNL     1      23.850   4.307  51.923  1.00  0.00     0.153 C 
HETATM   13  C16 UNL     1      23.445   2.855  51.966  1.00  0.00     0.086 C 
HETATM   14  C17 UNL     1      24.313   2.309  53.134  1.00  0.00     0.045 C 
HETATM   15  C18 UNL     1      25.733   2.324  52.634  1.00  0.00     0.105 C 
HETATM   16  C19 UNL     1      25.496   2.332  51.166  1.00  0.00     0.218 C 
HETATM   17  O2  UNL     1      26.599   2.483  50.537  1.00  0.00    -0.274 OA
HETATM   18  N4  UNL     1      24.117   2.171  50.845  1.00  0.00    -0.347 N 
HETATM   19  H12 UNL     1      24.233   5.445  49.765  1.00  0.00     0.159 HD
HETATM   20  H19 UNL     1      24.090   1.624  49.927  1.00  0.00     0.163 HD
ENDROOT
BRANCH   5  21
HETATM   21  N2  UNL     1      20.535   0.477  51.775  1.00  0.00    -0.354 N 
HETATM   22  C5  UNL     1      20.483  -0.255  52.989  1.00  0.00     0.087 A 
HETATM   23  C6  UNL     1      19.429  -0.893  53.452  1.00  0.00    -0.004 A 
HETATM   24  C7  UNL     1      18.171  -0.892  52.709  1.00  0.00     0.076 A 
HETATM   25  C8  UNL     1      18.165  -0.155  51.452  1.00  0.00     0.007 A 
HETATM   26 BR1  UNL     1      16.588  -0.091  50.415  1.00  0.00    -0.054 Br
HETATM   27  C9  UNL     1      19.274   0.456  51.067  1.00  0.00     0.106 A 
ENDBRANCH   5  21
BRANCH   6  28
HETATM   28  O1  UNL     1      21.942   1.771  53.359  1.00  0.00    -0.381 OA
HETATM   29  H8  UNL     1      21.614   0.849  53.297  1.00  0.00     0.211 HD
ENDBRANCH   6  28
TORSDOF 2
ENDMDL
MODEL 7
REMARK VINA RESULT:      -7.0      3.306      5.607
REMARK  2 active torsions:
REMARK  status: ('A' for Active; 'I' for Inactive)
REMARK    1  A    between atoms: C4_5  and  N2_6 
REMARK    2  A    between atoms: C10_13  and  O1_14 
ROOT
HETATM    1  N1  UNL     1      27.340   9.230  43.673  1.00  0.00    -0.191 NA
HETATM    2  C1  UNL     1      27.881   8.872  44.617  1.00  0.00     0.100 C 
HETATM    3  C2  UNL     1      28.565   8.427  45.760  1.00  0.00     0.054 C 
HETATM    4  C3  UNL     1      29.896   8.080  45.904  1.00  0.00     0.025 C 
HETATM    5  C4  UNL     1      30.647   8.292  47.224  1.00  0.00     0.153 C 
HETATM    6  C10 UNL     1      29.826   8.769  48.408  1.00  0.00     0.127 C 
HETATM    7  C11 UNL     1      28.742   7.773  48.815  1.00  0.00     0.017 C 
HETATM    8  C12 UNL     1      27.605   7.396  48.102  1.00  0.00     0.013 C 
HETATM    9  C13 UNL     1      27.652   8.434  46.983  1.00  0.00    -0.001 C 
HETATM   10  C14 UNL     1      27.089   9.687  46.705  1.00  0.00     0.096 C 
HETATM   11  N3  UNL     1      27.152  10.770  47.765  1.00  0.00    -0.396 N 
HETATM   12  C15 UNL     1      28.128  10.708  48.944  1.00  0.00     0.153 C 
HETATM   13  C16 UNL     1      29.472  10.183  48.508  1.00  0.00     0.086 C 
HETATM   14  C17 UNL     1      30.441  10.935  49.461  1.00  0.00     0.045 C 
HETATM   15  C18 UNL     1      30.406  12.377  49.032  1.00  0.00     0.105 C 
HETATM   16  C19 UNL     1      29.910  12.225  47.639  1.00  0.00     0.218 C 
HETATM   17  O2  UNL     1      29.673  13.370  47.122  1.00  0.00    -0.274 OA
HETATM   18  N4  UNL     1      29.826  10.858  47.246  1.00  0.00    -0.347 N 
HETATM   19  H12 UNL     1      26.406  11.305  47.278  1.00  0.00     0.159 HD
HETATM   20  H19 UNL     1      30.048  10.839  46.200  1.00  0.00     0.163 HD
ENDROOT
BRANCH   5  21
HETATM   21  N2  UNL     1      31.374   7.101  47.484  1.00  0.00    -0.354 N 
HETATM   22  C5  UNL     1      30.904   5.765  47.410  1.00  0.00     0.087 A 
HETATM   23  C6  UNL     1      31.618   4.689  47.663  1.00  0.00    -0.004 A 
HETATM   24  C7  UNL     1      33.020   4.800  48.060  1.00  0.00     0.076 A 
HETATM   25  C8  UNL     1      33.558   6.151  48.153  1.00  0.00     0.007 A 
HETATM   26 BR1  UNL     1      35.360   6.407  48.658  1.00  0.00    -0.054 Br
HETATM   27  C9  UNL     1      32.763   7.174  47.879  1.00  0.00     0.106 A 
ENDBRANCH   5  21
BRANCH   6  28
HETATM   28  O1  UNL     1      30.792   8.519  49.437  1.00  0.00    -0.381 OA
HETATM   29  H8  UNL     1      30.764   9.211  50.131  1.00  0.00     0.211 HD
ENDBRANCH   6  28
TORSDOF 2
ENDMDL
MODEL 8
REMARK VINA RESULT:      -6.9      3.331      6.319
REMARK  2 active torsions:
REMARK  status: ('A' for Active; 'I' for Inactive)
REMARK    1  A    between atoms: C4_5  and  N2_6 
REMARK    2  A    between atoms: C10_13  and  O1_14 
ROOT
HETATM    1  N1  UNL     1      34.516   3.159  46.352  1.00  0.00    -0.191 NA
HETATM    2  C1  UNL     1      34.357   4.292  46.416  1.00  0.00     0.100 C 
HETATM    3  C2  UNL     1      34.159   5.681  46.470  1.00  0.00     0.054 C 
HETATM    4  C3  UNL     1      33.715   6.541  45.483  1.00  0.00     0.025 C 
HETATM    5  C4  UNL     1      32.905   7.801  45.814  1.00  0.00     0.153 C 
HETATM    6  C10 UNL     1      32.735   8.136  47.284  1.00  0.00     0.127 C 
HETATM    7  C11 UNL     1      34.062   8.418  47.983  1.00  0.00     0.017 C 
HETATM    8  C12 UNL     1      35.106   7.531  48.245  1.00  0.00     0.013 C 
HETATM    9  C13 UNL     1      34.420   6.218  47.875  1.00  0.00    -0.001 C 
HETATM   10  C14 UNL     1      33.730   5.187  48.527  1.00  0.00     0.096 C 
HETATM   11  N3  UNL     1      32.611   5.546  49.486  1.00  0.00    -0.396 N 
HETATM   12  C15 UNL     1      31.934   6.921  49.478  1.00  0.00     0.153 C 
HETATM   13  C16 UNL     1      31.733   7.418  48.069  1.00  0.00     0.086 C 
HETATM   14  C17 UNL     1      30.425   8.247  48.198  1.00  0.00     0.045 C 
HETATM   15  C18 UNL     1      29.326   7.248  48.441  1.00  0.00     0.105 C 
HETATM   16  C19 UNL     1      29.963   6.018  47.901  1.00  0.00     0.218 C 
HETATM   17  O2  UNL     1      29.232   4.996  48.137  1.00  0.00    -0.274 OA
HETATM   18  N4  UNL     1      31.210   6.294  47.270  1.00  0.00    -0.347 N 
HETATM   19  H12 UNL     1      32.650   4.596  49.905  1.00  0.00     0.159 HD
HETATM   20  H19 UNL     1      31.295   5.592  46.467  1.00  0.00     0.163 HD
ENDROOT
BRANCH   5  21
HETATM   21  N2  UNL     1      33.459   8.862  45.053  1.00  0.00    -0.354 N 
HETATM   22  C5  UNL     1      34.828   9.205  44.912  1.00  0.00     0.087 A 
HETATM   23  C6  UNL     1      35.296  10.204  44.194  1.00  0.00    -0.004 A 
HETATM   24  C7  UNL     1      34.389  11.077  43.451  1.00  0.00     0.076 A 
HETATM   25  C8  UNL     1      32.968  10.772  43.559  1.00  0.00     0.007 A 
HETATM   26 BR1  UNL     1      31.711  11.839  42.638  1.00  0.00    -0.054 Br
HETATM   27  C9  UNL     1      32.592   9.746  44.306  1.00  0.00     0.106 A 
ENDBRANCH   5  21
BRANCH   6  28
HETATM   28  O1  UNL     1      32.246   9.475  47.130  1.00  0.00    -0.381 OA
HETATM   29  H8  UNL     1      32.980  10.114  47.010  1.00  0.00     0.211 HD
ENDBRANCH   6  28
TORSDOF 2
ENDMDL
MODEL 9
REMARK VINA RESULT:      -6.9      2.899      4.934
REMARK  2 active torsions:
REMARK  status: ('A' for Active; 'I' for Inactive)
REMARK    1  A    between atoms: C4_5  and  N2_6 
REMARK    2  A    between atoms: C10_13  and  O1_14 
ROOT
HETATM    1  N1  UNL     1      33.533   8.211  48.142  1.00  0.00    -0.191 NA
HETATM    2  C1  UNL     1      32.396   8.194  48.010  1.00  0.00     0.100 C 
HETATM    3  C2  UNL     1      30.999   8.162  47.872  1.00  0.00     0.054 C 
HETATM    4  C3  UNL     1      30.034   7.822  48.803  1.00  0.00     0.025 C 
HETATM    5  C4  UNL     1      28.640   8.462  48.791  1.00  0.00     0.153 C 
HETATM    6  C10 UNL     1      28.321   9.380  47.625  1.00  0.00     0.127 C 
HETATM    7  C11 UNL     1      28.351   8.659  46.280  1.00  0.00     0.017 C 
HETATM    8  C12 UNL     1      29.449   8.107  45.621  1.00  0.00     0.013 C 
HETATM    9  C13 UNL     1      30.573   8.662  46.494  1.00  0.00    -0.001 C 
HETATM   10  C14 UNL     1      31.450   9.754  46.487  1.00  0.00     0.096 C 
HETATM   11  N3  UNL     1      30.888  11.145  46.260  1.00  0.00    -0.396 N 
HETATM   12  C15 UNL     1      29.400  11.466  46.437  1.00  0.00     0.153 C 
HETATM   13  C16 UNL     1      28.829  10.749  47.634  1.00  0.00     0.086 C 
HETATM   14  C17 UNL     1      27.743  11.746  48.125  1.00  0.00     0.045 C 
HETATM   15  C18 UNL     1      28.489  12.932  48.675  1.00  0.00     0.105 C 
HETATM   16  C19 UNL     1      29.810  12.308  48.948  1.00  0.00     0.218 C 
HETATM   17  O2  UNL     1      30.658  13.196  49.305  1.00  0.00    -0.274 OA
HETATM   18  N4  UNL     1      29.791  10.898  48.743  1.00  0.00    -0.347 N 
HETATM   19  H12 UNL     1      31.836  11.504  46.032  1.00  0.00     0.159 HD
HETATM   20  H19 UNL     1      30.469  10.487  49.460  1.00  0.00     0.163 HD
ENDROOT
BRANCH   5  21
HETATM   21  N2  UNL     1      27.701   7.412  48.958  1.00  0.00    -0.354 N 
HETATM   22  C5  UNL     1      27.789   6.083  48.469  1.00  0.00     0.087 A 
HETATM   23  C6  UNL     1      26.887   5.142  48.648  1.00  0.00    -0.004 A 
HETATM   24  C7  UNL     1      25.666   5.413  49.403  1.00  0.00     0.076 A 
HETATM   25  C8  UNL     1      25.520   6.764  49.930  1.00  0.00     0.007 A 
HETATM   26 BR1  UNL     1      23.978   7.218  50.921  1.00  0.00    -0.054 Br
HETATM   27  C9  UNL     1      26.481   7.644  49.699  1.00  0.00     0.106 A 
ENDBRANCH   5  21
BRANCH   6  28
HETATM   28  O1  UNL     1      26.904   9.473  47.825  1.00  0.00    -0.381 OA
HETATM   29  H8  UNL     1      26.586  10.395  47.722  1.00  0.00     0.211 HD
ENDBRANCH   6  28
TORSDOF 2
ENDMDL
