MODEL 1
REMARK VINA RESULT:      -7.6      0.000      0.000
REMARK  4 active torsions:
REMARK  status: ('A' for Active; 'I' for Inactive)
REMARK    1  A    between atoms: C1_2  and  O2_3 
REMARK    2  A    between atoms: C1_2  and  C2_4 
REMARK    3  A    between atoms: C5_7  and  C6_8 
REMARK    4  A    between atoms: C6_8  and  C7_10 
ROOT
HETATM    1  C6  UNL     1      26.747  -0.753  53.738  1.00  0.00     0.174 C 
HETATM    2  O3  UNL     1      27.260  -1.653  53.055  1.00  0.00    -0.291 OA
ENDROOT
BRANCH   1   3
HETATM    3  C5  UNL     1      25.328  -0.819  54.064  1.00  0.00     0.011 A 
HETATM    4  C4  UNL     1      24.449  -0.639  52.990  1.00  0.00     0.016 A 
HETATM    5  C3  UNL     1      23.077  -0.692  53.244  1.00  0.00     0.019 A 
HETATM    6  C2  UNL     1      22.593  -0.916  54.515  1.00  0.00     0.037 A 
HETATM    7  C15 UNL     1      23.489  -1.087  55.531  1.00  0.00     0.019 A 
HETATM    8  C14 UNL     1      24.874  -1.045  55.346  1.00  0.00     0.016 A 
BRANCH   6   9
HETATM    9  C1  UNL     1      21.156  -0.955  54.684  1.00  0.00     0.176 C 
HETATM   10  O1  UNL     1      20.561  -2.053  54.544  1.00  0.00    -0.646 OA
BRANCH   9  11
HETATM   11  O2  UNL     1      20.339   0.097  54.989  1.00  0.00    -0.773 OA
HETATM   12  H1  UNL     1      20.011   0.337  55.912  1.00  0.00     0.167 HD
ENDBRANCH   9  11
ENDBRANCH   6   9
ENDBRANCH   1   3
BRANCH   1  13
HETATM   13  C7  UNL     1      27.532   0.398  54.239  1.00  0.00     0.139 C 
HETATM   14  S1  UNL     1      29.278   0.426  53.771  1.00  0.00    -0.153 SA
HETATM   15  C8  UNL     1      28.662   2.145  53.949  1.00  0.00     0.094 C 
HETATM   16  C9  UNL     1      27.354   1.658  53.425  1.00  0.00     0.025 A 
HETATM   17  C10 UNL     1      27.267   1.443  51.962  1.00  0.00    -0.009 A 
HETATM   18  C13 UNL     1      26.142   2.405  53.771  1.00  0.00     0.008 A 
HETATM   19  C11 UNL     1      26.142   1.995  51.510  1.00  0.00     0.016 A 
HETATM   20  C12 UNL     1      25.448   2.595  52.657  1.00  0.00     0.008 A 
HETATM   21 BR1  UNL     1      23.765   3.532  52.591  1.00  0.00    -0.051 Br
ENDBRANCH   1  13
TORSDOF 4
ENDMDL
MODEL 2
REMARK VINA RESULT:      -7.2      2.708      5.453
REMARK  4 active torsions:
REMARK  status: ('A' for Active; 'I' for Inactive)
REMARK    1  A    between atoms: C1_2  and  O2_3 
REMARK    2  A    between atoms: C1_2  and  C2_4 
REMARK    3  A    between atoms: C5_7  and  C6_8 
REMARK    4  A    between atoms: C6_8  and  C7_10 
ROOT
HETATM    1  C6  UNL     1      23.816  -0.595  53.925  1.00  0.00     0.174 C 
HETATM    2  O3  UNL     1      23.310  -0.768  55.045  1.00  0.00    -0.291 OA
ENDROOT
BRANCH   1   3
HETATM    3  C5  UNL     1      25.267  -0.582  53.787  1.00  0.00     0.011 A 
HETATM    4  C4  UNL     1      25.958   0.202  54.716  1.00  0.00     0.016 A 
HETATM    5  C3  UNL     1      27.351   0.252  54.632  1.00  0.00     0.019 A 
HETATM    6  C2  UNL     1      28.035  -0.449  53.662  1.00  0.00     0.037 A 
HETATM    7  C15 UNL     1      27.316  -1.202  52.777  1.00  0.00     0.019 A 
HETATM    8  C14 UNL     1      25.922  -1.295  52.805  1.00  0.00     0.016 A 
BRANCH   6   9
HETATM    9  C1  UNL     1      29.478  -0.338  53.650  1.00  0.00     0.176 C 
HETATM   10  O1  UNL     1      30.164  -1.368  53.865  1.00  0.00    -0.646 OA
BRANCH   9  11
HETATM   11  O2  UNL     1      30.209   0.794  53.426  1.00  0.00    -0.773 OA
HETATM   12  H1  UNL     1      29.833   1.721  53.303  1.00  0.00     0.167 HD
ENDBRANCH   9  11
ENDBRANCH   6   9
ENDBRANCH   1   3
BRANCH   1  13
HETATM   13  C7  UNL     1      22.991  -0.400  52.712  1.00  0.00     0.139 C 
HETATM   14  S1  UNL     1      21.228  -0.116  52.992  1.00  0.00    -0.153 SA
HETATM   15  C8  UNL     1      21.756   0.761  51.469  1.00  0.00     0.094 C 
HETATM   16  C9  UNL     1      23.065   0.997  52.141  1.00  0.00     0.025 A 
HETATM   17  C10 UNL     1      23.102   2.078  53.155  1.00  0.00    -0.009 A 
HETATM   18  C13 UNL     1      24.249   1.220  51.307  1.00  0.00     0.008 A 
HETATM   19  C11 UNL     1      24.175   2.836  52.938  1.00  0.00     0.016 A 
HETATM   20  C12 UNL     1      24.884   2.286  51.775  1.00  0.00     0.008 A 
HETATM   21 BR1  UNL     1      26.509   2.985  51.010  1.00  0.00    -0.051 Br
ENDBRANCH   1  13
TORSDOF 4
ENDMDL
MODEL 3
REMARK VINA RESULT:      -7.1      3.486      5.941
REMARK  4 active torsions:
REMARK  status: ('A' for Active; 'I' for Inactive)
REMARK    1  A    between atoms: C1_2  and  O2_3 
REMARK    2  A    between atoms: C1_2  and  C2_4 
REMARK    3  A    between atoms: C5_7  and  C6_8 
REMARK    4  A    between atoms: C6_8  and  C7_10 
ROOT
HETATM    1  C6  UNL     1      23.070   1.032  52.476  1.00  0.00     0.174 C 
HETATM    2  O3  UNL     1      22.274   0.975  53.427  1.00  0.00    -0.291 OA
ENDROOT
BRANCH   1   3
HETATM    3  C5  UNL     1      24.488   1.243  52.738  1.00  0.00     0.011 A 
HETATM    4  C4  UNL     1      24.804   2.385  53.482  1.00  0.00     0.016 A 
HETATM    5  C3  UNL     1      26.148   2.638  53.763  1.00  0.00     0.019 A 
HETATM    6  C2  UNL     1      27.143   1.791  53.324  1.00  0.00     0.037 A 
HETATM    7  C15 UNL     1      26.785   0.687  52.603  1.00  0.00     0.019 A 
HETATM    8  C14 UNL     1      25.460   0.376  52.286  1.00  0.00     0.016 A 
BRANCH   6   9
HETATM    9  C1  UNL     1      28.508   2.132  53.664  1.00  0.00     0.176 C 
HETATM   10  O1  UNL     1      29.034   1.590  54.668  1.00  0.00    -0.646 OA
BRANCH   9  11
HETATM   11  O2  UNL     1      29.322   3.004  52.998  1.00  0.00    -0.773 OA
HETATM   12  H1  UNL     1      29.323   3.163  52.003  1.00  0.00     0.167 HD
ENDBRANCH   9  11
ENDBRANCH   6   9
ENDBRANCH   1   3
BRANCH   1  13
HETATM   13  C7  UNL     1      22.626   0.891  51.071  1.00  0.00     0.139 C 
HETATM   14  S1  UNL     1      20.850   0.659  50.822  1.00  0.00    -0.153 SA
HETATM   15  C8  UNL     1      21.562   1.546  49.382  1.00  0.00     0.094 C 
HETATM   16  C9  UNL     1      22.498   2.205  50.337  1.00  0.00     0.025 A 
HETATM   17  C10 UNL     1      21.944   3.315  51.147  1.00  0.00    -0.009 A 
HETATM   18  C13 UNL     1      23.776   2.709  49.826  1.00  0.00     0.008 A 
HETATM   19  C11 UNL     1      22.794   4.340  51.113  1.00  0.00     0.016 A 
HETATM   20  C12 UNL     1      23.937   3.945  50.280  1.00  0.00     0.008 A 
HETATM   21 BR1  UNL     1      25.473   5.039  49.882  1.00  0.00    -0.051 Br
ENDBRANCH   1  13
TORSDOF 4
ENDMDL
MODEL 4
REMARK VINA RESULT:      -7.1      3.453      5.669
REMARK  4 active torsions:
REMARK  status: ('A' for Active; 'I' for Inactive)
REMARK    1  A    between atoms: C1_2  and  O2_3 
REMARK    2  A    between atoms: C1_2  and  C2_4 
REMARK    3  A    between atoms: C5_7  and  C6_8 
REMARK    4  A    between atoms: C6_8  and  C7_10 
ROOT
HETATM    1  C6  UNL     1      24.616   2.001  52.476  1.00  0.00     0.174 C 
HETATM    2  O3  UNL     1      24.273   2.828  53.335  1.00  0.00    -0.291 OA
ENDROOT
BRANCH   1   3
HETATM    3  C5  UNL     1      25.797   1.177  52.705  1.00  0.00     0.011 A 
HETATM    4  C4  UNL     1      25.579  -0.205  52.721  1.00  0.00     0.016 A 
HETATM    5  C3  UNL     1      26.674  -1.044  52.936  1.00  0.00     0.019 A 
HETATM    6  C2  UNL     1      27.940  -0.532  53.128  1.00  0.00     0.037 A 
HETATM    7  C15 UNL     1      28.103   0.824  53.102  1.00  0.00     0.019 A 
HETATM    8  C14 UNL     1      27.051   1.718  52.893  1.00  0.00     0.016 A 
BRANCH   6   9
HETATM    9  C1  UNL     1      29.015  -1.477  53.343  1.00  0.00     0.176 C 
HETATM   10  O1  UNL     1      30.145  -1.040  53.678  1.00  0.00    -0.646 OA
BRANCH   9  11
HETATM   11  O2  UNL     1      28.946  -2.836  53.223  1.00  0.00    -0.773 OA
HETATM   12  H1  UNL     1      29.725  -3.449  53.035  1.00  0.00     0.167 HD
ENDBRANCH   9  11
ENDBRANCH   6   9
ENDBRANCH   1   3
BRANCH   1  13
HETATM   13  C7  UNL     1      23.862   1.817  51.216  1.00  0.00     0.139 C 
HETATM   14  S1  UNL     1      22.075   2.069  51.321  1.00  0.00    -0.153 SA
HETATM   15  C8  UNL     1      22.663   2.532  49.646  1.00  0.00     0.094 C 
HETATM   16  C9  UNL     1      23.917   3.011  50.292  1.00  0.00     0.025 A 
HETATM   17  C10 UNL     1      23.848   4.325  50.975  1.00  0.00    -0.009 A 
HETATM   18  C13 UNL     1      25.141   3.066  49.489  1.00  0.00     0.008 A 
HETATM   19  C11 UNL     1      24.902   5.055  50.614  1.00  0.00     0.016 A 
HETATM   20  C12 UNL     1      25.703   4.251  49.681  1.00  0.00     0.008 A 
HETATM   21 BR1  UNL     1      27.344   4.807  48.837  1.00  0.00    -0.051 Br
ENDBRANCH   1  13
TORSDOF 4
ENDMDL
MODEL 5
REMARK VINA RESULT:      -7.1      5.163      7.993
REMARK  4 active torsions:
REMARK  status: ('A' for Active; 'I' for Inactive)
REMARK    1  A    between atoms: C1_2  and  O2_3 
REMARK    2  A    between atoms: C1_2  and  C2_4 
REMARK    3  A    between atoms: C5_7  and  C6_8 
REMARK    4  A    between atoms: C6_8  and  C7_10 
ROOT
HETATM    1  C6  UNL     1      23.362   3.768  49.476  1.00  0.00     0.174 C 
HETATM    2  O3  UNL     1      22.839   2.974  48.678  1.00  0.00    -0.291 OA
ENDROOT
BRANCH   1   3
HETATM    3  C5  UNL     1      24.724   4.230  49.241  1.00  0.00     0.011 A 
HETATM    4  C4  UNL     1      24.849   5.553  48.806  1.00  0.00     0.016 A 
HETATM    5  C3  UNL     1      26.132   6.050  48.563  1.00  0.00     0.019 A 
HETATM    6  C2  UNL     1      27.250   5.264  48.745  1.00  0.00     0.037 A 
HETATM    7  C15 UNL     1      27.077   3.978  49.173  1.00  0.00     0.019 A 
HETATM    8  C14 UNL     1      25.823   3.419  49.432  1.00  0.00     0.016 A 
BRANCH   6   9
HETATM    9  C1  UNL     1      28.538   5.863  48.470  1.00  0.00     0.176 C 
HETATM   10  O1  UNL     1      28.635   6.677  47.517  1.00  0.00    -0.646 OA
BRANCH   9  11
HETATM   11  O2  UNL     1      29.704   5.643  49.147  1.00  0.00    -0.773 OA
HETATM   12  H1  UNL     1      29.881   4.876  49.777  1.00  0.00     0.167 HD
ENDBRANCH   9  11
ENDBRANCH   6   9
ENDBRANCH   1   3
BRANCH   1  13
HETATM   13  C7  UNL     1      22.645   4.270  50.670  1.00  0.00     0.139 C 
HETATM   14  S1  UNL     1      20.855   4.009  50.684  1.00  0.00    -0.153 SA
HETATM   15  C8  UNL     1      21.494   3.983  52.404  1.00  0.00     0.094 C 
HETATM   16  C9  UNL     1      22.729   3.348  51.864  1.00  0.00     0.025 A 
HETATM   17  C10 UNL     1      22.642   1.905  51.539  1.00  0.00    -0.009 A 
HETATM   18  C13 UNL     1      23.976   3.493  52.620  1.00  0.00     0.008 A 
HETATM   19  C11 UNL     1      23.708   1.284  52.043  1.00  0.00     0.016 A 
HETATM   20  C12 UNL     1      24.535   2.294  52.718  1.00  0.00     0.008 A 
HETATM   21 BR1  UNL     1      26.201   1.961  53.628  1.00  0.00    -0.051 Br
ENDBRANCH   1  13
TORSDOF 4
ENDMDL
MODEL 6
REMARK VINA RESULT:      -7.0      3.689      5.958
REMARK  4 active torsions:
REMARK  status: ('A' for Active; 'I' for Inactive)
REMARK    1  A    between atoms: C1_2  and  O2_3 
REMARK    2  A    between atoms: C1_2  and  C2_4 
REMARK    3  A    between atoms: C5_7  and  C6_8 
REMARK    4  A    between atoms: C6_8  and  C7_10 
ROOT
HETATM    1  C6  UNL     1      23.806   2.659  51.311  1.00  0.00     0.174 C 
HETATM    2  O3  UNL     1      23.932   2.668  50.076  1.00  0.00    -0.291 OA
ENDROOT
BRANCH   1   3
HETATM    3  C5  UNL     1      24.866   2.098  52.138  1.00  0.00     0.011 A 
HETATM    4  C4  UNL     1      25.568   1.025  51.578  1.00  0.00     0.016 A 
HETATM    5  C3  UNL     1      26.596   0.447  52.326  1.00  0.00     0.019 A 
HETATM    6  C2  UNL     1      26.917   0.914  53.582  1.00  0.00     0.037 A 
HETATM    7  C15 UNL     1      26.204   1.965  54.086  1.00  0.00     0.019 A 
HETATM    8  C14 UNL     1      25.164   2.588  53.391  1.00  0.00     0.016 A 
BRANCH   6   9
HETATM    9  C1  UNL     1      27.997   0.254  54.284  1.00  0.00     0.176 C 
HETATM   10  O1  UNL     1      28.606   0.884  55.185  1.00  0.00    -0.646 OA
BRANCH   9  11
HETATM   11  O2  UNL     1      28.450  -1.018  54.077  1.00  0.00    -0.773 OA
HETATM   12  H1  UNL     1      29.246  -1.439  54.530  1.00  0.00     0.167 HD
ENDBRANCH   9  11
ENDBRANCH   6   9
ENDBRANCH   1   3
BRANCH   1  13
HETATM   13  C7  UNL     1      22.604   3.205  51.981  1.00  0.00     0.139 C 
HETATM   14  S1  UNL     1      21.482   4.162  50.935  1.00  0.00    -0.153 SA
HETATM   15  C8  UNL     1      20.525   3.329  52.260  1.00  0.00     0.094 C 
HETATM   16  C9  UNL     1      21.491   2.198  52.152  1.00  0.00     0.025 A 
HETATM   17  C10 UNL     1      21.306   1.279  51.006  1.00  0.00    -0.009 A 
HETATM   18  C13 UNL     1      21.675   1.324  53.314  1.00  0.00     0.008 A 
HETATM   19  C11 UNL     1      21.375   0.023  51.444  1.00  0.00     0.016 A 
HETATM   20  C12 UNL     1      21.606   0.068  52.894  1.00  0.00     0.008 A 
HETATM   21 BR1  UNL     1      21.788  -1.460  54.054  1.00  0.00    -0.051 Br
ENDBRANCH   1  13
TORSDOF 4
ENDMDL
MODEL 7
REMARK VINA RESULT:      -7.0      3.711      5.783
REMARK  4 active torsions:
REMARK  status: ('A' for Active; 'I' for Inactive)
REMARK    1  A    between atoms: C1_2  and  O2_3 
REMARK    2  A    between atoms: C1_2  and  C2_4 
REMARK    3  A    between atoms: C5_7  and  C6_8 
REMARK    4  A    between atoms: C6_8  and  C7_10 
ROOT
HETATM    1  C6  UNL     1      22.387   1.774  51.933  1.00  0.00     0.174 C 
HETATM    2  O3  UNL     1      21.432   2.259  52.560  1.00  0.00    -0.291 OA
ENDROOT
BRANCH   1   3
HETATM    3  C5  UNL     1      23.661   1.570  52.611  1.00  0.00     0.011 A 
HETATM    4  C4  UNL     1      24.024   0.238  52.833  1.00  0.00     0.016 A 
HETATM    5  C3  UNL     1      25.235  -0.018  53.479  1.00  0.00     0.019 A 
HETATM    6  C2  UNL     1      26.058   1.010  53.890  1.00  0.00     0.037 A 
HETATM    7  C15 UNL     1      25.661   2.295  53.650  1.00  0.00     0.019 A 
HETATM    8  C14 UNL     1      24.462   2.619  53.010  1.00  0.00     0.016 A 
BRANCH   6   9
HETATM    9  C1  UNL     1      27.294   0.651  54.551  1.00  0.00     0.176 C 
HETATM   10  O1  UNL     1      27.402  -0.499  55.046  1.00  0.00    -0.646 OA
BRANCH   9  11
HETATM   11  O2  UNL     1      28.398   1.441  54.706  1.00  0.00    -0.773 OA
HETATM   12  H1  UNL     1      28.510   2.372  54.336  1.00  0.00     0.167 HD
ENDBRANCH   9  11
ENDBRANCH   6   9
ENDBRANCH   1   3
BRANCH   1  13
HETATM   13  C7  UNL     1      22.278   1.389  50.508  1.00  0.00     0.139 C 
HETATM   14  S1  UNL     1      20.600   1.297  49.841  1.00  0.00    -0.153 SA
HETATM   15  C8  UNL     1      21.764   1.785  48.509  1.00  0.00     0.094 C 
HETATM   16  C9  UNL     1      22.533   2.527  49.548  1.00  0.00     0.025 A 
HETATM   17  C10 UNL     1      21.979   3.833  49.974  1.00  0.00    -0.009 A 
HETATM   18  C13 UNL     1      23.958   2.779  49.315  1.00  0.00     0.008 A 
HETATM   19  C11 UNL     1      22.958   4.735  49.989  1.00  0.00     0.016 A 
HETATM   20  C12 UNL     1      24.194   4.059  49.572  1.00  0.00     0.008 A 
HETATM   21 BR1  UNL     1      25.930   4.880  49.411  1.00  0.00    -0.051 Br
ENDBRANCH   1  13
TORSDOF 4
ENDMDL
MODEL 8
REMARK VINA RESULT:      -6.5      3.022      6.107
REMARK  4 active torsions:
REMARK  status: ('A' for Active; 'I' for Inactive)
REMARK    1  A    between atoms: C1_2  and  O2_3 
REMARK    2  A    between atoms: C1_2  and  C2_4 
REMARK    3  A    between atoms: C5_7  and  C6_8 
REMARK    4  A    between atoms: C6_8  and  C7_10 
ROOT
HETATM    1  C6  UNL     1      23.630   0.405  52.370  1.00  0.00     0.174 C 
HETATM    2  O3  UNL     1      23.167   1.204  51.541  1.00  0.00    -0.291 OA
ENDROOT
BRANCH   1   3
HETATM    3  C5  UNL     1      25.027   0.516  52.772  1.00  0.00     0.011 A 
HETATM    4  C4  UNL     1      25.402   1.744  53.326  1.00  0.00     0.016 A 
HETATM    5  C3  UNL     1      26.729   1.908  53.729  1.00  0.00     0.019 A 
HETATM    6  C2  UNL     1      27.650   0.892  53.589  1.00  0.00     0.037 A 
HETATM    7  C15 UNL     1      27.236  -0.290  53.044  1.00  0.00     0.019 A 
HETATM    8  C14 UNL     1      25.925  -0.519  52.619  1.00  0.00     0.016 A 
BRANCH   6   9
HETATM    9  C1  UNL     1      29.003   1.151  54.035  1.00  0.00     0.176 C 
HETATM   10  O1  UNL     1      29.179   1.917  55.016  1.00  0.00    -0.646 OA
BRANCH   9  11
HETATM   11  O2  UNL     1      30.152   0.644  53.499  1.00  0.00    -0.773 OA
HETATM   12  H1  UNL     1      30.475   0.792  52.556  1.00  0.00     0.167 HD
ENDBRANCH   9  11
ENDBRANCH   6   9
ENDBRANCH   1   3
BRANCH   1  13
HETATM   13  C7  UNL     1      22.807  -0.667  52.972  1.00  0.00     0.139 C 
HETATM   14  S1  UNL     1      23.000  -0.906  54.754  1.00  0.00    -0.153 SA
HETATM   15  C8  UNL     1      21.289  -1.347  54.257  1.00  0.00     0.094 C 
HETATM   16  C9  UNL     1      21.377  -0.260  53.241  1.00  0.00     0.025 A 
HETATM   17  C10 UNL     1      21.212   1.126  53.740  1.00  0.00    -0.009 A 
HETATM   18  C13 UNL     1      20.519  -0.341  52.056  1.00  0.00     0.008 A 
HETATM   19  C11 UNL     1      20.363   1.773  52.943  1.00  0.00     0.016 A 
HETATM   20  C12 UNL     1      19.937   0.839  51.892  1.00  0.00     0.008 A 
HETATM   21 BR1  UNL     1      18.708   1.236  50.462  1.00  0.00    -0.051 Br
ENDBRANCH   1  13
TORSDOF 4
ENDMDL
MODEL 9
REMARK VINA RESULT:      -6.3      4.208      5.616
REMARK  4 active torsions:
REMARK  status: ('A' for Active; 'I' for Inactive)
REMARK    1  A    between atoms: C1_2  and  O2_3 
REMARK    2  A    between atoms: C1_2  and  C2_4 
REMARK    3  A    between atoms: C5_7  and  C6_8 
REMARK    4  A    between atoms: C6_8  and  C7_10 
ROOT
HETATM    1  C6  UNL     1      21.346   3.086  51.578  1.00  0.00     0.174 C 
HETATM    2  O3  UNL     1      21.152   4.202  52.087  1.00  0.00    -0.291 OA
ENDROOT
BRANCH   1   3
HETATM    3  C5  UNL     1      21.672   1.954  52.435  1.00  0.00     0.011 A 
HETATM    4  C4  UNL     1      20.590   1.359  53.093  1.00  0.00     0.016 A 
HETATM    5  C3  UNL     1      20.842   0.269  53.928  1.00  0.00     0.019 A 
HETATM    6  C2  UNL     1      22.121  -0.215  54.105  1.00  0.00     0.037 A 
HETATM    7  C15 UNL     1      23.145   0.397  53.441  1.00  0.00     0.019 A 
HETATM    8  C14 UNL     1      22.962   1.491  52.592  1.00  0.00     0.016 A 
BRANCH   6   9
HETATM    9  C1  UNL     1      22.288  -1.349  54.989  1.00  0.00     0.176 C 
HETATM   10  O1  UNL     1      21.397  -2.235  55.010  1.00  0.00    -0.646 OA
BRANCH   9  11
HETATM   11  O2  UNL     1      23.336  -1.580  55.834  1.00  0.00    -0.773 OA
HETATM   12  H1  UNL     1      23.584  -1.014  56.630  1.00  0.00     0.167 HD
ENDBRANCH   9  11
ENDBRANCH   6   9
ENDBRANCH   1   3
BRANCH   1  13
HETATM   13  C7  UNL     1      21.257   2.863  50.118  1.00  0.00     0.139 C 
HETATM   14  S1  UNL     1      20.025   3.853  49.240  1.00  0.00    -0.153 SA
HETATM   15  C8  UNL     1      21.439   3.501  48.124  1.00  0.00     0.094 C 
HETATM   16  C9  UNL     1      22.319   3.587  49.324  1.00  0.00     0.025 A 
HETATM   17  C10 UNL     1      22.638   4.948  49.814  1.00  0.00    -0.009 A 
HETATM   18  C13 UNL     1      23.604   2.883  49.299  1.00  0.00     0.008 A 
HETATM   19  C11 UNL     1      23.946   5.028  50.047  1.00  0.00     0.016 A 
HETATM   20  C12 UNL     1      24.539   3.725  49.718  1.00  0.00     0.008 A 
HETATM   21 BR1  UNL     1      26.405   3.266  49.863  1.00  0.00    -0.051 Br
ENDBRANCH   1  13
TORSDOF 4
ENDMDL
