MODEL 1
REMARK VINA RESULT:      -7.2      0.000      0.000
REMARK  6 active torsions:
REMARK  status: ('A' for Active; 'I' for Inactive)
REMARK    1  A    between atoms: C2_4  and  O1_5 
REMARK    2  A    between atoms: O1_5  and  C3_6 
REMARK    3  A    between atoms: C4_7  and  N1_8 
REMARK    4  A    between atoms: N1_8  and  C5_9 
REMARK    5  A    between atoms: C7_11  and  O2_12 
REMARK    6  A    between atoms: O2_12  and  C8_13 
ROOT
HETATM    1  C5  UNL     1      27.437   2.237  52.694  1.00  0.00     0.133 A 
HETATM    2  C6  UNL     1      26.691   1.207  53.238  1.00  0.00     0.108 A 
HETATM    3  C7  UNL     1      27.181   0.441  54.299  1.00  0.00     0.174 A 
HETATM    4  N2  UNL     1      28.421   0.790  54.736  1.00  0.00    -0.217 NA
HETATM    5  C14 UNL     1      29.150   1.776  54.224  1.00  0.00     0.238 A 
HETATM    6  N3  UNL     1      28.662   2.507  53.198  1.00  0.00    -0.224 NA
ENDROOT
BRANCH   1   7
HETATM    7  N1  UNL     1      26.838   2.915  51.613  1.00  0.00    -0.349 N 
HETATM    8  H4  UNL     1      27.660   3.468  51.229  1.00  0.00     0.167 HD
BRANCH   7   9
HETATM    9  C4  UNL     1      25.629   3.116  50.917  1.00  0.00     0.114 C 
HETATM   10  C3  UNL     1      24.577   3.580  51.566  1.00  0.00     0.158 C 
BRANCH  10  11
HETATM   11  O1  UNL     1      23.393   3.786  50.922  1.00  0.00    -0.331 OA
BRANCH  11  12
HETATM   12  C2  UNL     1      22.186   3.552  51.511  1.00  0.00     0.172 C 
HETATM   13  C1  UNL     1      21.597   2.417  51.215  1.00  0.00     0.097 A 
HETATM   14 CL1  UNL     1      22.191   1.174  50.151  1.00  0.00    -0.103 Cl
HETATM   15  I1  UNL     1      19.854   1.324  51.640  1.00  0.00    -0.000 I 
ENDBRANCH  11  12
ENDBRANCH  10  11
ENDBRANCH   7   9
ENDBRANCH   1   7
BRANCH   3  16
HETATM   16  O2  UNL     1      26.383  -0.566  54.789  1.00  0.00    -0.292 OA
BRANCH  16  17
HETATM   17  C8  UNL     1      25.046  -0.729  54.546  1.00  0.00     0.077 A 
HETATM   18  C9  UNL     1      24.401  -0.451  53.335  1.00  0.00     0.037 A 
HETATM   19  C10 UNL     1      23.036  -0.654  53.189  1.00  0.00     0.003 A 
HETATM   20  C11 UNL     1      22.331  -1.137  54.270  1.00  0.00     0.000 A 
HETATM   21  C12 UNL     1      22.944  -1.415  55.467  1.00  0.00     0.003 A 
HETATM   22  C13 UNL     1      24.311  -1.206  55.596  1.00  0.00     0.037 A 
ENDBRANCH  16  17
ENDBRANCH   3  16
TORSDOF 6
ENDMDL
MODEL 2
REMARK VINA RESULT:      -7.2      4.231      5.663
REMARK  6 active torsions:
REMARK  status: ('A' for Active; 'I' for Inactive)
REMARK    1  A    between atoms: C2_4  and  O1_5 
REMARK    2  A    between atoms: O1_5  and  C3_6 
REMARK    3  A    between atoms: C4_7  and  N1_8 
REMARK    4  A    between atoms: N1_8  and  C5_9 
REMARK    5  A    between atoms: C7_11  and  O2_12 
REMARK    6  A    between atoms: O2_12  and  C8_13 
ROOT
HETATM    1  C5  UNL     1      24.131   2.597  51.662  1.00  0.00     0.133 A 
HETATM    2  C6  UNL     1      24.809   1.826  52.588  1.00  0.00     0.108 A 
HETATM    3  C7  UNL     1      24.271   0.627  53.063  1.00  0.00     0.174 A 
HETATM    4  N2  UNL     1      23.057   0.296  52.546  1.00  0.00    -0.217 NA
HETATM    5  C14 UNL     1      22.394   1.026  51.656  1.00  0.00     0.238 A 
HETATM    6  N3  UNL     1      22.927   2.184  51.206  1.00  0.00    -0.224 NA
ENDROOT
BRANCH   1   7
HETATM    7  N1  UNL     1      24.772   3.795  51.284  1.00  0.00    -0.349 N 
HETATM    8  H4  UNL     1      24.412   4.469  52.022  1.00  0.00     0.167 HD
BRANCH   7   9
HETATM    9  C4  UNL     1      25.644   4.378  50.342  1.00  0.00     0.114 C 
HETATM   10  C3  UNL     1      26.627   3.657  49.837  1.00  0.00     0.158 C 
BRANCH  10  11
HETATM   11  O1  UNL     1      27.488   4.191  48.924  1.00  0.00    -0.331 OA
BRANCH  11  12
HETATM   12  C2  UNL     1      27.429   5.496  48.535  1.00  0.00     0.172 C 
HETATM   13  C1  UNL     1      28.544   6.029  48.092  1.00  0.00     0.097 A 
HETATM   14 CL1  UNL     1      30.093   5.249  47.947  1.00  0.00    -0.103 Cl
HETATM   15  I1  UNL     1      29.301   7.839  47.339  1.00  0.00    -0.000 I 
ENDBRANCH  11  12
ENDBRANCH  10  11
ENDBRANCH   7   9
ENDBRANCH   1   7
BRANCH   3  16
HETATM   16  O2  UNL     1      25.001  -0.088  53.984  1.00  0.00    -0.292 OA
BRANCH  16  17
HETATM   17  C8  UNL     1      26.357  -0.276  53.969  1.00  0.00     0.077 A 
HETATM   18  C9  UNL     1      27.272   0.335  54.833  1.00  0.00     0.037 A 
HETATM   19  C10 UNL     1      28.631   0.073  54.738  1.00  0.00     0.003 A 
HETATM   20  C11 UNL     1      29.057  -0.807  53.767  1.00  0.00     0.000 A 
HETATM   21  C12 UNL     1      28.176  -1.417  52.908  1.00  0.00     0.003 A 
HETATM   22  C13 UNL     1      26.819  -1.143  53.017  1.00  0.00     0.037 A 
ENDBRANCH  16  17
ENDBRANCH   3  16
TORSDOF 6
ENDMDL
MODEL 3
REMARK VINA RESULT:      -7.2      3.423      3.981
REMARK  6 active torsions:
REMARK  status: ('A' for Active; 'I' for Inactive)
REMARK    1  A    between atoms: C2_4  and  O1_5 
REMARK    2  A    between atoms: O1_5  and  C3_6 
REMARK    3  A    between atoms: C4_7  and  N1_8 
REMARK    4  A    between atoms: N1_8  and  C5_9 
REMARK    5  A    between atoms: C7_11  and  O2_12 
REMARK    6  A    between atoms: O2_12  and  C8_13 
ROOT
HETATM    1  C5  UNL     1      26.601   1.485  53.098  1.00  0.00     0.133 A 
HETATM    2  C6  UNL     1      25.477   0.736  52.804  1.00  0.00     0.108 A 
HETATM    3  C7  UNL     1      25.059  -0.302  53.641  1.00  0.00     0.174 A 
HETATM    4  N2  UNL     1      25.835  -0.502  54.740  1.00  0.00    -0.217 NA
HETATM    5  C14 UNL     1      26.918   0.208  55.037  1.00  0.00     0.238 A 
HETATM    6  N3  UNL     1      27.309   1.209  54.216  1.00  0.00    -0.224 NA
ENDROOT
BRANCH   1   7
HETATM    7  N1  UNL     1      26.928   2.485  52.160  1.00  0.00    -0.349 N 
HETATM    8  H4  UNL     1      27.579   3.103  52.728  1.00  0.00     0.167 HD
BRANCH   7   9
HETATM    9  C4  UNL     1      26.708   2.931  50.841  1.00  0.00     0.114 C 
HETATM   10  C3  UNL     1      25.701   3.748  50.592  1.00  0.00     0.158 C 
BRANCH  10  11
HETATM   11  O1  UNL     1      25.463   4.197  49.327  1.00  0.00    -0.331 OA
BRANCH  11  12
HETATM   12  C2  UNL     1      25.546   5.515  48.988  1.00  0.00     0.172 C 
HETATM   13  C1  UNL     1      26.722   5.949  48.598  1.00  0.00     0.097 A 
HETATM   14 CL1  UNL     1      28.189   5.024  48.465  1.00  0.00    -0.103 Cl
HETATM   15  I1  UNL     1      27.677   7.700  47.937  1.00  0.00    -0.000 I 
ENDBRANCH  11  12
ENDBRANCH  10  11
ENDBRANCH   7   9
ENDBRANCH   1   7
BRANCH   3  16
HETATM   16  O2  UNL     1      23.931  -1.004  53.285  1.00  0.00    -0.292 OA
BRANCH  16  17
HETATM   17  C8  UNL     1      22.660  -0.503  53.205  1.00  0.00     0.077 A 
HETATM   18  C9  UNL     1      22.026  -0.081  52.031  1.00  0.00     0.037 A 
HETATM   19  C10 UNL     1      20.728   0.410  52.055  1.00  0.00     0.003 A 
HETATM   20  C11 UNL     1      20.079   0.471  53.270  1.00  0.00     0.000 A 
HETATM   21  C12 UNL     1      20.683   0.063  54.433  1.00  0.00     0.003 A 
HETATM   22  C13 UNL     1      21.983  -0.425  54.391  1.00  0.00     0.037 A 
ENDBRANCH  16  17
ENDBRANCH   3  16
TORSDOF 6
ENDMDL
MODEL 4
REMARK VINA RESULT:      -7.1      3.232      5.026
REMARK  6 active torsions:
REMARK  status: ('A' for Active; 'I' for Inactive)
REMARK    1  A    between atoms: C2_4  and  O1_5 
REMARK    2  A    between atoms: O1_5  and  C3_6 
REMARK    3  A    between atoms: C4_7  and  N1_8 
REMARK    4  A    between atoms: N1_8  and  C5_9 
REMARK    5  A    between atoms: C7_11  and  O2_12 
REMARK    6  A    between atoms: O2_12  and  C8_13 
ROOT
HETATM    1  C5  UNL     1      22.490  -0.599  54.072  1.00  0.00     0.133 A 
HETATM    2  C6  UNL     1      23.598  -0.316  53.293  1.00  0.00     0.108 A 
HETATM    3  C7  UNL     1      24.890  -0.589  53.749  1.00  0.00     0.174 A 
HETATM    4  N2  UNL     1      24.958  -1.142  54.990  1.00  0.00    -0.217 NA
HETATM    5  C14 UNL     1      23.903  -1.419  55.749  1.00  0.00     0.238 A 
HETATM    6  N3  UNL     1      22.660  -1.148  55.295  1.00  0.00    -0.224 NA
ENDROOT
BRANCH   1   7
HETATM    7  N1  UNL     1      21.246  -0.253  53.506  1.00  0.00    -0.349 N 
HETATM    8  H4  UNL     1      20.970  -1.161  53.030  1.00  0.00     0.167 HD
BRANCH   7   9
HETATM    9  C4  UNL     1      20.312   0.792  53.347  1.00  0.00     0.114 C 
HETATM   10  C3  UNL     1      20.718   1.961  52.888  1.00  0.00     0.158 C 
BRANCH  10  11
HETATM   11  O1  UNL     1      19.839   2.990  52.723  1.00  0.00    -0.331 OA
BRANCH  11  12
HETATM   12  C2  UNL     1      19.182   3.216  51.551  1.00  0.00     0.172 C 
HETATM   13  C1  UNL     1      19.644   4.184  50.794  1.00  0.00     0.097 A 
HETATM   14 CL1  UNL     1      21.007   5.214  51.126  1.00  0.00    -0.103 Cl
HETATM   15  I1  UNL     1      19.273   5.140  48.960  1.00  0.00    -0.000 I 
ENDBRANCH  11  12
ENDBRANCH  10  11
ENDBRANCH   7   9
ENDBRANCH   1   7
BRANCH   3  16
HETATM   16  O2  UNL     1      25.944  -0.282  52.920  1.00  0.00    -0.292 OA
BRANCH  16  17
HETATM   17  C8  UNL     1      27.262  -0.570  53.149  1.00  0.00     0.077 A 
HETATM   18  C9  UNL     1      27.863  -1.821  52.970  1.00  0.00     0.037 A 
HETATM   19  C10 UNL     1      29.214  -2.009  53.228  1.00  0.00     0.003 A 
HETATM   20  C11 UNL     1      29.949  -0.928  53.667  1.00  0.00     0.000 A 
HETATM   21  C12 UNL     1      29.378   0.307  53.851  1.00  0.00     0.003 A 
HETATM   22  C13 UNL     1      28.025   0.478  53.588  1.00  0.00     0.037 A 
ENDBRANCH  16  17
ENDBRANCH   3  16
TORSDOF 6
ENDMDL
MODEL 5
REMARK VINA RESULT:      -6.8      2.782      2.978
REMARK  6 active torsions:
REMARK  status: ('A' for Active; 'I' for Inactive)
REMARK    1  A    between atoms: C2_4  and  O1_5 
REMARK    2  A    between atoms: O1_5  and  C3_6 
REMARK    3  A    between atoms: C4_7  and  N1_8 
REMARK    4  A    between atoms: N1_8  and  C5_9 
REMARK    5  A    between atoms: C7_11  and  O2_12 
REMARK    6  A    between atoms: O2_12  and  C8_13 
ROOT
HETATM    1  C5  UNL     1      26.962   2.223  51.946  1.00  0.00     0.133 A 
HETATM    2  C6  UNL     1      25.929   1.309  52.048  1.00  0.00     0.108 A 
HETATM    3  C7  UNL     1      26.006   0.228  52.930  1.00  0.00     0.174 A 
HETATM    4  N2  UNL     1      27.153   0.159  53.658  1.00  0.00    -0.217 NA
HETATM    5  C14 UNL     1      28.153   1.029  53.571  1.00  0.00     0.238 A 
HETATM    6  N3  UNL     1      28.064   2.069  52.712  1.00  0.00    -0.224 NA
ENDROOT
BRANCH   1   7
HETATM    7  N1  UNL     1      26.770   3.252  51.001  1.00  0.00    -0.349 N 
HETATM    8  H4  UNL     1      27.738   3.687  50.963  1.00  0.00     0.167 HD
BRANCH   7   9
HETATM    9  C4  UNL     1      25.822   3.872  50.161  1.00  0.00     0.114 C 
HETATM   10  C3  UNL     1      26.143   4.987  49.533  1.00  0.00     0.158 C 
BRANCH  10  11
HETATM   11  O1  UNL     1      25.249   5.610  48.713  1.00  0.00    -0.331 OA
BRANCH  11  12
HETATM   12  C2  UNL     1      23.904   5.574  48.930  1.00  0.00     0.172 C 
HETATM   13  C1  UNL     1      23.386   6.588  49.582  1.00  0.00     0.097 A 
HETATM   14 CL1  UNL     1      24.231   7.979  50.201  1.00  0.00    -0.103 Cl
HETATM   15  I1  UNL     1      21.541   7.299  50.294  1.00  0.00    -0.000 I 
ENDBRANCH  11  12
ENDBRANCH  10  11
ENDBRANCH   7   9
ENDBRANCH   1   7
BRANCH   3  16
HETATM   16  O2  UNL     1      24.941  -0.641  52.978  1.00  0.00    -0.292 OA
BRANCH  16  17
HETATM   17  C8  UNL     1      23.663  -0.333  53.361  1.00  0.00     0.077 A 
HETATM   18  C9  UNL     1      22.818   0.575  52.714  1.00  0.00     0.037 A 
HETATM   19  C10 UNL     1      21.533   0.815  53.182  1.00  0.00     0.003 A 
HETATM   20  C11 UNL     1      21.112   0.133  54.304  1.00  0.00     0.000 A 
HETATM   21  C12 UNL     1      21.926  -0.761  54.954  1.00  0.00     0.003 A 
HETATM   22  C13 UNL     1      23.208  -0.989  54.473  1.00  0.00     0.037 A 
ENDBRANCH  16  17
ENDBRANCH   3  16
TORSDOF 6
ENDMDL
MODEL 6
REMARK VINA RESULT:      -6.8      5.453      7.055
REMARK  6 active torsions:
REMARK  status: ('A' for Active; 'I' for Inactive)
REMARK    1  A    between atoms: C2_4  and  O1_5 
REMARK    2  A    between atoms: O1_5  and  C3_6 
REMARK    3  A    between atoms: C4_7  and  N1_8 
REMARK    4  A    between atoms: N1_8  and  C5_9 
REMARK    5  A    between atoms: C7_11  and  O2_12 
REMARK    6  A    between atoms: O2_12  and  C8_13 
ROOT
HETATM    1  C5  UNL     1      25.703   5.403  49.854  1.00  0.00     0.133 A 
HETATM    2  C6  UNL     1      25.159   4.135  49.750  1.00  0.00     0.108 A 
HETATM    3  C7  UNL     1      23.899   3.843  50.278  1.00  0.00     0.174 A 
HETATM    4  N2  UNL     1      23.273   4.888  50.884  1.00  0.00    -0.217 NA
HETATM    5  C14 UNL     1      23.781   6.111  50.990  1.00  0.00     0.238 A 
HETATM    6  N3  UNL     1      25.002   6.377  50.475  1.00  0.00    -0.224 NA
ENDROOT
BRANCH   1   7
HETATM    7  N1  UNL     1      26.991   5.558  49.302  1.00  0.00    -0.349 N 
HETATM    8  H4  UNL     1      27.208   6.567  49.552  1.00  0.00     0.167 HD
BRANCH   7   9
HETATM    9  C4  UNL     1      28.013   4.906  48.582  1.00  0.00     0.114 C 
HETATM   10  C3  UNL     1      29.158   5.529  48.374  1.00  0.00     0.158 C 
BRANCH  10  11
HETATM   11  O1  UNL     1      30.166   4.926  47.682  1.00  0.00    -0.331 OA
BRANCH  11  12
HETATM   12  C2  UNL     1      31.480   5.093  48.003  1.00  0.00     0.172 C 
HETATM   13  C1  UNL     1      32.324   4.217  47.509  1.00  0.00     0.097 A 
HETATM   14 CL1  UNL     1      31.946   2.862  46.484  1.00  0.00    -0.103 Cl
HETATM   15  I1  UNL     1      34.373   3.756  47.489  1.00  0.00    -0.000 I 
ENDBRANCH  11  12
ENDBRANCH  10  11
ENDBRANCH   7   9
ENDBRANCH   1   7
BRANCH   3  16
HETATM   16  O2  UNL     1      23.422   2.561  50.138  1.00  0.00    -0.292 OA
BRANCH  16  17
HETATM   17  C8  UNL     1      23.299   1.632  51.135  1.00  0.00     0.077 A 
HETATM   18  C9  UNL     1      24.306   1.269  52.037  1.00  0.00     0.037 A 
HETATM   19  C10 UNL     1      24.078   0.314  53.018  1.00  0.00     0.003 A 
HETATM   20  C11 UNL     1      22.830  -0.267  53.082  1.00  0.00     0.000 A 
HETATM   21  C12 UNL     1      21.828   0.074  52.207  1.00  0.00     0.003 A 
HETATM   22  C13 UNL     1      22.074   1.031  51.230  1.00  0.00     0.037 A 
ENDBRANCH  16  17
ENDBRANCH   3  16
TORSDOF 6
ENDMDL
MODEL 7
REMARK VINA RESULT:      -6.8      5.346      6.556
REMARK  6 active torsions:
REMARK  status: ('A' for Active; 'I' for Inactive)
REMARK    1  A    between atoms: C2_4  and  O1_5 
REMARK    2  A    between atoms: O1_5  and  C3_6 
REMARK    3  A    between atoms: C4_7  and  N1_8 
REMARK    4  A    between atoms: N1_8  and  C5_9 
REMARK    5  A    between atoms: C7_11  and  O2_12 
REMARK    6  A    between atoms: O2_12  and  C8_13 
ROOT
HETATM    1  C5  UNL     1      26.217   3.299  50.131  1.00  0.00     0.133 A 
HETATM    2  C6  UNL     1      26.725   2.608  51.217  1.00  0.00     0.108 A 
HETATM    3  C7  UNL     1      25.891   1.868  52.058  1.00  0.00     0.174 A 
HETATM    4  N2  UNL     1      24.572   1.887  51.723  1.00  0.00    -0.217 NA
HETATM    5  C14 UNL     1      24.069   2.546  50.684  1.00  0.00     0.238 A 
HETATM    6  N3  UNL     1      24.890   3.258  49.880  1.00  0.00    -0.224 NA
ENDROOT
BRANCH   1   7
HETATM    7  N1  UNL     1      27.161   4.026  49.378  1.00  0.00    -0.349 N 
HETATM    8  H4  UNL     1      27.990   3.362  49.381  1.00  0.00     0.167 HD
BRANCH   7   9
HETATM    9  C4  UNL     1      27.387   5.232  48.684  1.00  0.00     0.114 C 
HETATM   10  C3  UNL     1      28.615   5.550  48.318  1.00  0.00     0.158 C 
BRANCH  10  11
HETATM   11  O1  UNL     1      28.866   6.709  47.645  1.00  0.00    -0.331 OA
BRANCH  11  12
HETATM   12  C2  UNL     1      28.734   7.937  48.221  1.00  0.00     0.172 C 
HETATM   13  C1  UNL     1      29.789   8.718  48.191  1.00  0.00     0.097 A 
HETATM   14 CL1  UNL     1      31.341   8.355  47.492  1.00  0.00    -0.103 Cl
HETATM   15  I1  UNL     1      30.422  10.629  48.791  1.00  0.00    -0.000 I 
ENDBRANCH  11  12
ENDBRANCH  10  11
ENDBRANCH   7   9
ENDBRANCH   1   7
BRANCH   3  16
HETATM   16  O2  UNL     1      26.466   1.207  53.117  1.00  0.00    -0.292 OA
BRANCH  16  17
HETATM   17  C8  UNL     1      27.148   0.022  53.055  1.00  0.00     0.077 A 
HETATM   18  C9  UNL     1      26.618  -1.199  52.624  1.00  0.00     0.037 A 
HETATM   19  C10 UNL     1      27.397  -2.348  52.595  1.00  0.00     0.003 A 
HETATM   20  C11 UNL     1      28.710  -2.252  53.003  1.00  0.00     0.000 A 
HETATM   21  C12 UNL     1      29.250  -1.064  53.431  1.00  0.00     0.003 A 
HETATM   22  C13 UNL     1      28.456   0.075  53.454  1.00  0.00     0.037 A 
ENDBRANCH  16  17
ENDBRANCH   3  16
TORSDOF 6
ENDMDL
MODEL 8
REMARK VINA RESULT:      -6.7      4.213      4.770
REMARK  6 active torsions:
REMARK  status: ('A' for Active; 'I' for Inactive)
REMARK    1  A    between atoms: C2_4  and  O1_5 
REMARK    2  A    between atoms: O1_5  and  C3_6 
REMARK    3  A    between atoms: C4_7  and  N1_8 
REMARK    4  A    between atoms: N1_8  and  C5_9 
REMARK    5  A    between atoms: C7_11  and  O2_12 
REMARK    6  A    between atoms: O2_12  and  C8_13 
ROOT
HETATM    1  C5  UNL     1      26.576   2.219  51.461  1.00  0.00     0.133 A 
HETATM    2  C6  UNL     1      25.661   1.226  51.760  1.00  0.00     0.108 A 
HETATM    3  C7  UNL     1      25.828   0.400  52.874  1.00  0.00     0.174 A 
HETATM    4  N2  UNL     1      26.939   0.654  53.618  1.00  0.00    -0.217 NA
HETATM    5  C14 UNL     1      27.826   1.604  53.344  1.00  0.00     0.238 A 
HETATM    6  N3  UNL     1      27.651   2.395  52.262  1.00  0.00    -0.224 NA
ENDROOT
BRANCH   1   7
HETATM    7  N1  UNL     1      26.305   2.966  50.297  1.00  0.00    -0.349 N 
HETATM    8  H4  UNL     1      25.337   2.611  50.039  1.00  0.00     0.167 HD
BRANCH   7   9
HETATM    9  C4  UNL     1      26.822   3.934  49.412  1.00  0.00     0.114 C 
HETATM   10  C3  UNL     1      26.151   5.053  49.210  1.00  0.00     0.158 C 
BRANCH  10  11
HETATM   11  O1  UNL     1      26.625   6.009  48.361  1.00  0.00    -0.331 OA
BRANCH  11  12
HETATM   12  C2  UNL     1      27.105   7.207  48.798  1.00  0.00     0.172 C 
HETATM   13  C1  UNL     1      28.369   7.460  48.550  1.00  0.00     0.097 A 
HETATM   14 CL1  UNL     1      29.501   6.430  47.721  1.00  0.00    -0.103 Cl
HETATM   15  I1  UNL     1      29.821   8.951  48.838  1.00  0.00    -0.000 I 
ENDBRANCH  11  12
ENDBRANCH  10  11
ENDBRANCH   7   9
ENDBRANCH   1   7
BRANCH   3  16
HETATM   16  O2  UNL     1      24.877  -0.566  53.108  1.00  0.00    -0.292 OA
BRANCH  16  17
HETATM   17  C8  UNL     1      23.594  -0.350  53.534  1.00  0.00     0.077 A 
HETATM   18  C9  UNL     1      22.963  -1.025  54.584  1.00  0.00     0.037 A 
HETATM   19  C10 UNL     1      21.655  -0.729  54.941  1.00  0.00     0.003 A 
HETATM   20  C11 UNL     1      20.994   0.251  54.232  1.00  0.00     0.000 A 
HETATM   21  C12 UNL     1      21.595   0.925  53.198  1.00  0.00     0.003 A 
HETATM   22  C13 UNL     1      22.904   0.615  52.853  1.00  0.00     0.037 A 
ENDBRANCH  16  17
ENDBRANCH   3  16
TORSDOF 6
ENDMDL
MODEL 9
REMARK VINA RESULT:      -6.6      5.789      7.394
REMARK  6 active torsions:
REMARK  status: ('A' for Active; 'I' for Inactive)
REMARK    1  A    between atoms: C2_4  and  O1_5 
REMARK    2  A    between atoms: O1_5  and  C3_6 
REMARK    3  A    between atoms: C4_7  and  N1_8 
REMARK    4  A    between atoms: N1_8  and  C5_9 
REMARK    5  A    between atoms: C7_11  and  O2_12 
REMARK    6  A    between atoms: O2_12  and  C8_13 
ROOT
HETATM    1  C5  UNL     1      26.536   5.087  49.331  1.00  0.00     0.133 A 
HETATM    2  C6  UNL     1      26.595   3.767  49.738  1.00  0.00     0.108 A 
HETATM    3  C7  UNL     1      25.635   3.234  50.602  1.00  0.00     0.174 A 
HETATM    4  N2  UNL     1      24.666   4.105  50.994  1.00  0.00    -0.217 NA
HETATM    5  C14 UNL     1      24.597   5.375  50.611  1.00  0.00     0.238 A 
HETATM    6  N3  UNL     1      25.533   5.876  49.775  1.00  0.00    -0.224 NA
ENDROOT
BRANCH   1   7
HETATM    7  N1  UNL     1      27.579   5.506  48.478  1.00  0.00    -0.349 N 
HETATM    8  H4  UNL     1      27.043   6.054  47.743  1.00  0.00     0.167 HD
BRANCH   7   9
HETATM    9  C4  UNL     1      28.971   5.453  48.263  1.00  0.00     0.114 C 
HETATM   10  C3  UNL     1      29.568   6.450  47.636  1.00  0.00     0.158 C 
BRANCH  10  11
HETATM   11  O1  UNL     1      30.913   6.429  47.412  1.00  0.00    -0.331 OA
BRANCH  11  12
HETATM   12  C2  UNL     1      31.723   5.446  47.896  1.00  0.00     0.172 C 
HETATM   13  C1  UNL     1      32.549   4.889  47.041  1.00  0.00     0.097 A 
HETATM   14 CL1  UNL     1      32.723   5.272  45.352  1.00  0.00    -0.103 Cl
HETATM   15  I1  UNL     1      34.041   3.414  46.937  1.00  0.00    -0.000 I 
ENDBRANCH  11  12
ENDBRANCH  10  11
ENDBRANCH   7   9
ENDBRANCH   1   7
BRANCH   3  16
HETATM   16  O2  UNL     1      25.756   1.912  50.965  1.00  0.00    -0.292 OA
BRANCH  16  17
HETATM   17  C8  UNL     1      26.638   1.404  51.880  1.00  0.00     0.077 A 
HETATM   18  C9  UNL     1      27.506   2.158  52.678  1.00  0.00     0.037 A 
HETATM   19  C10 UNL     1      28.363   1.544  53.581  1.00  0.00     0.003 A 
HETATM   20  C11 UNL     1      28.336   0.169  53.671  1.00  0.00     0.000 A 
HETATM   21  C12 UNL     1      27.493  -0.589  52.896  1.00  0.00     0.003 A 
HETATM   22  C13 UNL     1      26.643   0.041  51.998  1.00  0.00     0.037 A 
ENDBRANCH  16  17
ENDBRANCH   3  16
TORSDOF 6
ENDMDL
