MODEL 1
REMARK VINA RESULT:      -8.0      0.000      0.000
REMARK  4 active torsions:
REMARK  status: ('A' for Active; 'I' for Inactive)
REMARK    1  A    between atoms: O1_2  and  C2_3 
REMARK    2  A    between atoms: C5_6  and  C6_7 
REMARK    3  A    between atoms: C8_11  and  C9_12 
REMARK    4  A    between atoms: C10_14  and  C11_15 
ROOT
HETATM    1  C6  UNL     1      22.857   0.298  53.445  1.00  0.00     0.118 A 
HETATM    2  O2  UNL     1      21.623  -0.019  53.704  1.00  0.00    -0.301 OA
HETATM    3  C7  UNL     1      21.487  -0.988  54.535  1.00  0.00     0.259 A 
HETATM    4  N1  UNL     1      22.715  -1.344  54.854  1.00  0.00    -0.231 NA
HETATM    5  C8  UNL     1      23.592  -0.575  54.203  1.00  0.00     0.125 A 
ENDROOT
BRANCH   5   6
HETATM    6  C9  UNL     1      25.008  -0.658  54.291  1.00  0.00     0.104 A 
HETATM    7  O3  UNL     1      26.203  -0.736  54.525  1.00  0.00    -0.342 OA
HETATM    8  C10 UNL     1      25.783  -0.629  53.010  1.00  0.00     0.248 A 
BRANCH   8   9
HETATM    9  C11 UNL     1      27.230  -0.692  53.192  1.00  0.00    -0.028 A 
HETATM   10  C12 UNL     1      27.934   0.478  53.474  1.00  0.00     0.029 A 
HETATM   11  C13 UNL     1      29.308   0.513  53.662  1.00  0.00     0.117 A 
HETATM   12  N2  UNL     1      30.008  -0.632  53.570  1.00  0.00    -0.273 NA
HETATM   13  C14 UNL     1      29.379  -1.787  53.300  1.00  0.00     0.117 A 
HETATM   14  C15 UNL     1      28.005  -1.826  53.112  1.00  0.00     0.029 A 
ENDBRANCH   8   9
ENDBRANCH   5   6
BRANCH   1  15
HETATM   15  C5  UNL     1      23.220   1.361  52.536  1.00  0.00     0.000 A 
HETATM   16  C4  UNL     1      23.038   1.379  51.178  1.00  0.00     0.017 A 
HETATM   17  C3  UNL     1      23.401   2.417  50.349  1.00  0.00     0.037 A 
HETATM   18  C2  UNL     1      23.995   3.546  50.869  1.00  0.00     0.068 A 
HETATM   19  C17 UNL     1      24.196   3.569  52.216  1.00  0.00     0.037 A 
HETATM   20  C16 UNL     1      23.818   2.511  53.010  1.00  0.00     0.017 A 
BRANCH  18  21
HETATM   21  O1  UNL     1      24.359   4.579  50.056  1.00  0.00    -0.356 OA
HETATM   22  C1  UNL     1      25.607   4.822  49.486  1.00  0.00     0.210 C 
ENDBRANCH  18  21
ENDBRANCH   1  15
TORSDOF 4
ENDMDL
MODEL 2
REMARK VINA RESULT:      -7.9      2.460      6.063
REMARK  4 active torsions:
REMARK  status: ('A' for Active; 'I' for Inactive)
REMARK    1  A    between atoms: O1_2  and  C2_3 
REMARK    2  A    between atoms: C5_6  and  C6_7 
REMARK    3  A    between atoms: C8_11  and  C9_12 
REMARK    4  A    between atoms: C10_14  and  C11_15 
ROOT
HETATM    1  C6  UNL     1      26.723  -0.009  54.230  1.00  0.00     0.118 A 
HETATM    2  O2  UNL     1      27.736  -0.613  54.778  1.00  0.00    -0.301 OA
HETATM    3  C7  UNL     1      28.877  -0.103  54.488  1.00  0.00     0.259 A 
HETATM    4  N1  UNL     1      28.610   0.913  53.692  1.00  0.00    -0.231 NA
HETATM    5  C8  UNL     1      27.290   1.005  53.506  1.00  0.00     0.125 A 
ENDROOT
BRANCH   5   6
HETATM    6  C9  UNL     1      26.621   1.975  52.712  1.00  0.00     0.104 A 
HETATM    7  O3  UNL     1      26.009   2.880  52.167  1.00  0.00    -0.342 OA
HETATM    8  C10 UNL     1      26.640   1.785  51.226  1.00  0.00     0.248 A 
BRANCH   8   9
HETATM    9  C11 UNL     1      25.909   2.810  50.488  1.00  0.00    -0.028 A 
HETATM   10  C12 UNL     1      26.617   3.838  49.867  1.00  0.00     0.029 A 
HETATM   11  C13 UNL     1      26.006   4.854  49.146  1.00  0.00     0.117 A 
HETATM   12  N2  UNL     1      24.666   4.860  49.033  1.00  0.00    -0.273 NA
HETATM   13  C14 UNL     1      23.937   3.893  49.613  1.00  0.00     0.117 A 
HETATM   14  C15 UNL     1      24.543   2.875  50.334  1.00  0.00     0.029 A 
ENDBRANCH   8   9
ENDBRANCH   5   6
BRANCH   1  15
HETATM   15  C5  UNL     1      25.355  -0.430  54.432  1.00  0.00     0.000 A 
HETATM   16  C4  UNL     1      24.839  -1.043  55.543  1.00  0.00     0.017 A 
HETATM   17  C3  UNL     1      23.525  -1.427  55.692  1.00  0.00     0.037 A 
HETATM   18  C2  UNL     1      22.618  -1.205  54.679  1.00  0.00     0.068 A 
HETATM   19  C17 UNL     1      23.089  -0.598  53.555  1.00  0.00     0.037 A 
HETATM   20  C16 UNL     1      24.410  -0.228  53.446  1.00  0.00     0.017 A 
BRANCH  18  21
HETATM   21  O1  UNL     1      21.314  -1.583  54.816  1.00  0.00    -0.356 OA
HETATM   22  C1  UNL     1      20.245  -1.293  53.972  1.00  0.00     0.210 C 
ENDBRANCH  18  21
ENDBRANCH   1  15
TORSDOF 4
ENDMDL
MODEL 3
REMARK VINA RESULT:      -7.8      2.252      6.413
REMARK  4 active torsions:
REMARK  status: ('A' for Active; 'I' for Inactive)
REMARK    1  A    between atoms: O1_2  and  C2_3 
REMARK    2  A    between atoms: C5_6  and  C6_7 
REMARK    3  A    between atoms: C8_11  and  C9_12 
REMARK    4  A    between atoms: C10_14  and  C11_15 
ROOT
HETATM    1  C6  UNL     1      25.713   2.499  51.231  1.00  0.00     0.118 A 
HETATM    2  O2  UNL     1      26.119   3.536  50.559  1.00  0.00    -0.301 OA
HETATM    3  C7  UNL     1      25.194   4.140  49.905  1.00  0.00     0.259 A 
HETATM    4  N1  UNL     1      24.094   3.461  50.157  1.00  0.00    -0.231 NA
HETATM    5  C8  UNL     1      24.370   2.439  50.972  1.00  0.00     0.125 A 
ENDROOT
BRANCH   5   6
HETATM    6  C9  UNL     1      23.440   1.485  51.466  1.00  0.00     0.104 A 
HETATM    7  O3  UNL     1      22.631   0.612  51.739  1.00  0.00    -0.342 OA
HETATM    8  C10 UNL     1      23.122   1.521  52.929  1.00  0.00     0.248 A 
BRANCH   8   9
HETATM    9  C11 UNL     1      22.140   0.525  53.347  1.00  0.00    -0.028 A 
HETATM   10  C12 UNL     1      22.579  -0.653  53.950  1.00  0.00     0.029 A 
HETATM   11  C13 UNL     1      21.719  -1.654  54.378  1.00  0.00     0.117 A 
HETATM   12  N2  UNL     1      20.395  -1.494  54.208  1.00  0.00    -0.273 NA
HETATM   13  C14 UNL     1      19.920  -0.377  53.633  1.00  0.00     0.117 A 
HETATM   14  C15 UNL     1      20.775   0.626  53.204  1.00  0.00     0.029 A 
ENDBRANCH   8   9
ENDBRANCH   5   6
BRANCH   1  15
HETATM   15  C5  UNL     1      26.600   1.686  52.031  1.00  0.00     0.000 A 
HETATM   16  C4  UNL     1      27.572   2.129  52.888  1.00  0.00     0.017 A 
HETATM   17  C3  UNL     1      28.397   1.314  53.632  1.00  0.00     0.037 A 
HETATM   18  C2  UNL     1      28.279  -0.057  53.547  1.00  0.00     0.068 A 
HETATM   19  C17 UNL     1      27.325  -0.540  52.705  1.00  0.00     0.037 A 
HETATM   20  C16 UNL     1      26.520   0.309  51.979  1.00  0.00     0.017 A 
BRANCH  18  21
HETATM   21  O1  UNL     1      29.092  -0.872  54.279  1.00  0.00    -0.356 OA
HETATM   22  C1  UNL     1      30.171  -1.631  53.832  1.00  0.00     0.210 C 
ENDBRANCH  18  21
ENDBRANCH   1  15
TORSDOF 4
ENDMDL
MODEL 4
REMARK VINA RESULT:      -7.7      2.540      5.946
REMARK  4 active torsions:
REMARK  status: ('A' for Active; 'I' for Inactive)
REMARK    1  A    between atoms: O1_2  and  C2_3 
REMARK    2  A    between atoms: C5_6  and  C6_7 
REMARK    3  A    between atoms: C8_11  and  C9_12 
REMARK    4  A    between atoms: C10_14  and  C11_15 
ROOT
HETATM    1  C6  UNL     1      23.735   1.365  52.876  1.00  0.00     0.118 A 
HETATM    2  O2  UNL     1      22.621   0.801  53.237  1.00  0.00    -0.301 OA
HETATM    3  C7  UNL     1      21.564   1.391  52.808  1.00  0.00     0.259 A 
HETATM    4  N1  UNL     1      22.002   2.419  52.111  1.00  0.00    -0.231 NA
HETATM    5  C8  UNL     1      23.337   2.441  52.128  1.00  0.00     0.125 A 
ENDROOT
BRANCH   5   6
HETATM    6  C9  UNL     1      24.169   3.399  51.488  1.00  0.00     0.104 A 
HETATM    7  O3  UNL     1      24.880   4.301  51.077  1.00  0.00    -0.342 OA
HETATM    8  C10 UNL     1      24.546   3.144  50.061  1.00  0.00     0.248 A 
BRANCH   8   9
HETATM    9  C11 UNL     1      25.380   4.189  49.473  1.00  0.00    -0.028 A 
HETATM   10  C12 UNL     1      26.739   3.947  49.278  1.00  0.00     0.029 A 
HETATM   11  C13 UNL     1      27.606   4.880  48.728  1.00  0.00     0.117 A 
HETATM   12  N2  UNL     1      27.125   6.081  48.361  1.00  0.00    -0.273 NA
HETATM   13  C14 UNL     1      25.824   6.364  48.527  1.00  0.00     0.117 A 
HETATM   14  C15 UNL     1      24.953   5.435  49.076  1.00  0.00     0.029 A 
ENDBRANCH   8   9
ENDBRANCH   5   6
BRANCH   1  15
HETATM   15  C5  UNL     1      25.032   0.855  53.256  1.00  0.00     0.000 A 
HETATM   16  C4  UNL     1      25.990   1.507  53.987  1.00  0.00     0.017 A 
HETATM   17  C3  UNL     1      27.216   0.979  54.328  1.00  0.00     0.037 A 
HETATM   18  C2  UNL     1      27.558  -0.295  53.930  1.00  0.00     0.068 A 
HETATM   19  C17 UNL     1      26.635  -0.978  53.199  1.00  0.00     0.037 A 
HETATM   20  C16 UNL     1      25.420  -0.416  52.881  1.00  0.00     0.017 A 
BRANCH  18  21
HETATM   21  O1  UNL     1      28.771  -0.826  54.260  1.00  0.00    -0.356 OA
HETATM   22  C1  UNL     1      29.941  -0.826  53.505  1.00  0.00     0.210 C 
ENDBRANCH  18  21
ENDBRANCH   1  15
TORSDOF 4
ENDMDL
MODEL 5
REMARK VINA RESULT:      -7.6      2.690      3.991
REMARK  4 active torsions:
REMARK  status: ('A' for Active; 'I' for Inactive)
REMARK    1  A    between atoms: O1_2  and  C2_3 
REMARK    2  A    between atoms: C5_6  and  C6_7 
REMARK    3  A    between atoms: C8_11  and  C9_12 
REMARK    4  A    between atoms: C10_14  and  C11_15 
ROOT
HETATM    1  C6  UNL     1      24.143   3.015  49.907  1.00  0.00     0.118 A 
HETATM    2  O2  UNL     1      23.050   2.777  49.243  1.00  0.00    -0.301 OA
HETATM    3  C7  UNL     1      22.293   1.884  49.769  1.00  0.00     0.259 A 
HETATM    4  N1  UNL     1      22.922   1.498  50.861  1.00  0.00    -0.231 NA
HETATM    5  C8  UNL     1      24.069   2.172  50.983  1.00  0.00     0.125 A 
ENDROOT
BRANCH   5   6
HETATM    6  C9  UNL     1      25.017   2.030  52.033  1.00  0.00     0.104 A 
HETATM    7  O3  UNL     1      25.728   1.994  53.023  1.00  0.00    -0.342 OA
HETATM    8  C10 UNL     1      26.273   1.273  51.733  1.00  0.00     0.248 A 
BRANCH   8   9
HETATM    9  C11 UNL     1      27.202   1.197  52.857  1.00  0.00    -0.028 A 
HETATM   10  C12 UNL     1      28.120   2.228  53.052  1.00  0.00     0.029 A 
HETATM   11  C13 UNL     1      29.040   2.240  54.091  1.00  0.00     0.117 A 
HETATM   12  N2  UNL     1      29.057   1.214  54.960  1.00  0.00    -0.273 NA
HETATM   13  C14 UNL     1      28.193   0.196  54.817  1.00  0.00     0.117 A 
HETATM   14  C15 UNL     1      27.272   0.179  53.780  1.00  0.00     0.029 A 
ENDBRANCH   8   9
ENDBRANCH   5   6
BRANCH   1  15
HETATM   15  C5  UNL     1      25.125   3.984  49.480  1.00  0.00     0.000 A 
HETATM   16  C4  UNL     1      26.471   3.779  49.330  1.00  0.00     0.017 A 
HETATM   17  C3  UNL     1      27.373   4.735  48.919  1.00  0.00     0.037 A 
HETATM   18  C2  UNL     1      26.945   6.012  48.623  1.00  0.00     0.068 A 
HETATM   19  C17 UNL     1      25.613   6.259  48.760  1.00  0.00     0.037 A 
HETATM   20  C16 UNL     1      24.745   5.275  49.173  1.00  0.00     0.017 A 
BRANCH  18  21
HETATM   21  O1  UNL     1      27.830   6.967  48.216  1.00  0.00    -0.356 OA
HETATM   22  C1  UNL     1      27.762   7.770  47.080  1.00  0.00     0.210 C 
ENDBRANCH  18  21
ENDBRANCH   1  15
TORSDOF 4
ENDMDL
MODEL 6
REMARK VINA RESULT:      -7.6      2.703      6.005
REMARK  4 active torsions:
REMARK  status: ('A' for Active; 'I' for Inactive)
REMARK    1  A    between atoms: O1_2  and  C2_3 
REMARK    2  A    between atoms: C5_6  and  C6_7 
REMARK    3  A    between atoms: C8_11  and  C9_12 
REMARK    4  A    between atoms: C10_14  and  C11_15 
ROOT
HETATM    1  C6  UNL     1      23.411   1.845  52.290  1.00  0.00     0.118 A 
HETATM    2  O2  UNL     1      22.194   1.520  52.615  1.00  0.00    -0.301 OA
HETATM    3  C7  UNL     1      21.308   2.389  52.287  1.00  0.00     0.259 A 
HETATM    4  N1  UNL     1      21.977   3.361  51.702  1.00  0.00    -0.231 NA
HETATM    5  C8  UNL     1      23.280   3.065  51.683  1.00  0.00     0.125 A 
ENDROOT
BRANCH   5   6
HETATM    6  C9  UNL     1      24.315   3.870  51.135  1.00  0.00     0.104 A 
HETATM    7  O3  UNL     1      25.221   4.621  50.812  1.00  0.00    -0.342 OA
HETATM    8  C10 UNL     1      24.617   3.710  49.677  1.00  0.00     0.248 A 
BRANCH   8   9
HETATM    9  C11 UNL     1      25.675   4.591  49.191  1.00  0.00    -0.028 A 
HETATM   10  C12 UNL     1      25.353   5.889  48.796  1.00  0.00     0.029 A 
HETATM   11  C13 UNL     1      26.291   6.794  48.321  1.00  0.00     0.117 A 
HETATM   12  N2  UNL     1      27.578   6.414  48.233  1.00  0.00    -0.273 NA
HETATM   13  C14 UNL     1      27.941   5.175  48.601  1.00  0.00     0.117 A 
HETATM   14  C15 UNL     1      27.007   4.267  49.076  1.00  0.00     0.029 A 
ENDBRANCH   8   9
ENDBRANCH   5   6
BRANCH   1  15
HETATM   15  C5  UNL     1      24.550   1.001  52.572  1.00  0.00     0.000 A 
HETATM   16  C4  UNL     1      25.762   1.018  51.935  1.00  0.00     0.017 A 
HETATM   17  C3  UNL     1      26.823   0.193  52.239  1.00  0.00     0.037 A 
HETATM   18  C2  UNL     1      26.711  -0.738  53.249  1.00  0.00     0.068 A 
HETATM   19  C17 UNL     1      25.521  -0.789  53.908  1.00  0.00     0.037 A 
HETATM   20  C16 UNL     1      24.486   0.055  53.574  1.00  0.00     0.017 A 
BRANCH  18  21
HETATM   21  O1  UNL     1      27.755  -1.560  53.557  1.00  0.00    -0.356 OA
HETATM   22  C1  UNL     1      29.115  -1.325  53.370  1.00  0.00     0.210 C 
ENDBRANCH  18  21
ENDBRANCH   1  15
TORSDOF 4
ENDMDL
MODEL 7
REMARK VINA RESULT:      -7.6      3.245      5.475
REMARK  4 active torsions:
REMARK  status: ('A' for Active; 'I' for Inactive)
REMARK    1  A    between atoms: O1_2  and  C2_3 
REMARK    2  A    between atoms: C5_6  and  C6_7 
REMARK    3  A    between atoms: C8_11  and  C9_12 
REMARK    4  A    between atoms: C10_14  and  C11_15 
ROOT
HETATM    1  C6  UNL     1      25.492   4.533  49.348  1.00  0.00     0.118 A 
HETATM    2  O2  UNL     1      24.280   4.735  48.921  1.00  0.00    -0.301 OA
HETATM    3  C7  UNL     1      23.407   3.924  49.399  1.00  0.00     0.259 A 
HETATM    4  N1  UNL     1      24.081   3.125  50.201  1.00  0.00    -0.231 NA
HETATM    5  C8  UNL     1      25.372   3.467  50.199  1.00  0.00     0.125 A 
ENDROOT
BRANCH   5   6
HETATM    6  C9  UNL     1      26.408   2.837  50.941  1.00  0.00     0.104 A 
HETATM    7  O3  UNL     1      27.395   2.340  51.459  1.00  0.00    -0.342 OA
HETATM    8  C10 UNL     1      26.035   2.196  52.242  1.00  0.00     0.248 A 
BRANCH   8   9
HETATM    9  C11 UNL     1      27.152   1.551  52.926  1.00  0.00    -0.028 A 
HETATM   10  C12 UNL     1      27.296   0.166  52.840  1.00  0.00     0.029 A 
HETATM   11  C13 UNL     1      28.324  -0.531  53.457  1.00  0.00     0.117 A 
HETATM   12  N2  UNL     1      29.234   0.149  54.176  1.00  0.00    -0.273 NA
HETATM   13  C14 UNL     1      29.142   1.484  54.290  1.00  0.00     0.117 A 
HETATM   14  C15 UNL     1      28.115   2.185  53.675  1.00  0.00     0.029 A 
ENDBRANCH   8   9
ENDBRANCH   5   6
BRANCH   1  15
HETATM   15  C5  UNL     1      26.616   5.338  48.929  1.00  0.00     0.000 A 
HETATM   16  C4  UNL     1      27.860   4.889  48.570  1.00  0.00     0.017 A 
HETATM   17  C3  UNL     1      28.904   5.696  48.176  1.00  0.00     0.037 A 
HETATM   18  C2  UNL     1      28.743   7.063  48.120  1.00  0.00     0.068 A 
HETATM   19  C17 UNL     1      27.522   7.552  48.470  1.00  0.00     0.037 A 
HETATM   20  C16 UNL     1      26.503   6.711  48.858  1.00  0.00     0.017 A 
BRANCH  18  21
HETATM   21  O1  UNL     1      29.772   7.871  47.732  1.00  0.00    -0.356 OA
HETATM   22  C1  UNL     1      30.149   9.098  48.272  1.00  0.00     0.210 C 
ENDBRANCH  18  21
ENDBRANCH   1  15
TORSDOF 4
ENDMDL
MODEL 8
REMARK VINA RESULT:      -7.4      2.679      4.793
REMARK  4 active torsions:
REMARK  status: ('A' for Active; 'I' for Inactive)
REMARK    1  A    between atoms: O1_2  and  C2_3 
REMARK    2  A    between atoms: C5_6  and  C6_7 
REMARK    3  A    between atoms: C8_11  and  C9_12 
REMARK    4  A    between atoms: C10_14  and  C11_15 
ROOT
HETATM    1  C6  UNL     1      23.838   4.887  50.467  1.00  0.00     0.118 A 
HETATM    2  O2  UNL     1      22.811   5.608  50.126  1.00  0.00    -0.301 OA
HETATM    3  C7  UNL     1      21.744   5.361  50.795  1.00  0.00     0.259 A 
HETATM    4  N1  UNL     1      22.081   4.410  51.643  1.00  0.00    -0.231 NA
HETATM    5  C8  UNL     1      23.366   4.088  51.473  1.00  0.00     0.125 A 
ENDROOT
BRANCH   5   6
HETATM    6  C9  UNL     1      24.089   3.106  52.203  1.00  0.00     0.104 A 
HETATM    7  O3  UNL     1      24.745   2.381  52.933  1.00  0.00    -0.342 OA
HETATM    8  C10 UNL     1      24.104   1.711  51.659  1.00  0.00     0.248 A 
BRANCH   8   9
HETATM    9  C11 UNL     1      24.889   0.773  52.456  1.00  0.00    -0.028 A 
HETATM   10  C12 UNL     1      26.209   0.507  52.091  1.00  0.00     0.029 A 
HETATM   11  C13 UNL     1      27.028  -0.370  52.788  1.00  0.00     0.117 A 
HETATM   12  N2  UNL     1      26.538  -1.000  53.870  1.00  0.00    -0.273 NA
HETATM   13  C14 UNL     1      25.274  -0.779  54.263  1.00  0.00     0.117 A 
HETATM   14  C15 UNL     1      24.451   0.096  53.570  1.00  0.00     0.029 A 
ENDBRANCH   8   9
ENDBRANCH   5   6
BRANCH   1  15
HETATM   15  C5  UNL     1      25.130   5.014  49.832  1.00  0.00     0.000 A 
HETATM   16  C4  UNL     1      26.030   4.009  49.592  1.00  0.00     0.017 A 
HETATM   17  C3  UNL     1      27.253   4.176  48.982  1.00  0.00     0.037 A 
HETATM   18  C2  UNL     1      27.655   5.426  48.563  1.00  0.00     0.068 A 
HETATM   19  C17 UNL     1      26.790   6.455  48.784  1.00  0.00     0.037 A 
HETATM   20  C16 UNL     1      25.576   6.245  49.395  1.00  0.00     0.017 A 
BRANCH  18  21
HETATM   21  O1  UNL     1      28.865   5.603  47.959  1.00  0.00    -0.356 OA
HETATM   22  C1  UNL     1      29.739   6.680  48.089  1.00  0.00     0.210 C 
ENDBRANCH  18  21
ENDBRANCH   1  15
TORSDOF 4
ENDMDL
MODEL 9
REMARK VINA RESULT:      -7.3      2.377      5.701
REMARK  4 active torsions:
REMARK  status: ('A' for Active; 'I' for Inactive)
REMARK    1  A    between atoms: O1_2  and  C2_3 
REMARK    2  A    between atoms: C5_6  and  C6_7 
REMARK    3  A    between atoms: C8_11  and  C9_12 
REMARK    4  A    between atoms: C10_14  and  C11_15 
ROOT
HETATM    1  C6  UNL     1      23.592  -0.548  53.866  1.00  0.00     0.118 A 
HETATM    2  O2  UNL     1      23.001  -1.274  54.769  1.00  0.00    -0.301 OA
HETATM    3  C7  UNL     1      21.720  -1.263  54.703  1.00  0.00     0.259 A 
HETATM    4  N1  UNL     1      21.432  -0.478  53.685  1.00  0.00    -0.231 NA
HETATM    5  C8  UNL     1      22.561  -0.014  53.140  1.00  0.00     0.125 A 
ENDROOT
BRANCH   5   6
HETATM    6  C9  UNL     1      22.655   0.860  52.024  1.00  0.00     0.104 A 
HETATM    7  O3  UNL     1      22.683   1.488  50.978  1.00  0.00    -0.342 OA
HETATM    8  C10 UNL     1      23.148   2.252  52.275  1.00  0.00     0.248 A 
BRANCH   8   9
HETATM    9  C11 UNL     1      23.239   3.074  51.073  1.00  0.00    -0.028 A 
HETATM   10  C12 UNL     1      24.450   3.145  50.385  1.00  0.00     0.029 A 
HETATM   11  C13 UNL     1      24.629   3.900  49.235  1.00  0.00     0.117 A 
HETATM   12  N2  UNL     1      23.591   4.604  48.749  1.00  0.00    -0.273 NA
HETATM   13  C14 UNL     1      22.403   4.571  49.373  1.00  0.00     0.117 A 
HETATM   14  C15 UNL     1      22.220   3.817  50.523  1.00  0.00     0.029 A 
ENDBRANCH   8   9
ENDBRANCH   5   6
BRANCH   1  15
HETATM   15  C5  UNL     1      25.029  -0.427  53.772  1.00  0.00     0.000 A 
HETATM   16  C4  UNL     1      25.809  -0.725  52.686  1.00  0.00     0.017 A 
HETATM   17  C3  UNL     1      27.180  -0.594  52.642  1.00  0.00     0.037 A 
HETATM   18  C2  UNL     1      27.869  -0.134  53.743  1.00  0.00     0.068 A 
HETATM   19  C17 UNL     1      27.131   0.173  54.845  1.00  0.00     0.037 A 
HETATM   20  C16 UNL     1      25.762   0.030  54.848  1.00  0.00     0.017 A 
BRANCH  18  21
HETATM   21  O1  UNL     1      29.226  -0.002  53.710  1.00  0.00    -0.356 OA
HETATM   22  C1  UNL     1      30.186  -1.011  53.725  1.00  0.00     0.210 C 
ENDBRANCH  18  21
ENDBRANCH   1  15
TORSDOF 4
ENDMDL
