MODEL 1
REMARK VINA RESULT:     -10.3      0.000      0.000
REMARK  4 active torsions:
REMARK  status: ('A' for Active; 'I' for Inactive)
REMARK    1  A    between atoms: C6_6  and  N1_7 
REMARK    2  A    between atoms: C13_14  and  C14_15 
REMARK    3  A    between atoms: C14_15  and  C15_16 
REMARK    4  A    between atoms: C15_16  and  C16_17 
ROOT
HETATM    1  N1  UNL     1      23.961   4.958  50.825  1.00  0.00    -0.287 N 
HETATM    2  C7  UNL     1      23.922   4.223  52.082  1.00  0.00     0.191 C 
HETATM    3  C8  UNL     1      22.781   3.344  52.266  1.00  0.00    -0.001 A 
HETATM    4  C9  UNL     1      21.486   3.639  51.914  1.00  0.00     0.069 A 
HETATM    5  C10 UNL     1      20.444   2.747  52.091  1.00  0.00     0.071 A 
HETATM    6  C11 UNL     1      20.786   1.533  52.644  1.00  0.00     0.099 A 
HETATM    7  C12 UNL     1      22.101   1.258  52.991  1.00  0.00     0.075 A 
HETATM    8  C13 UNL     1      23.176   2.149  52.822  1.00  0.00    -0.018 A 
HETATM    9  N2  UNL     1      22.213  -0.037  53.564  1.00  0.00    -0.322 N 
HETATM   10  C22 UNL     1      21.181  -0.971  53.781  1.00  0.00     0.246 C 
HETATM   11  O1  UNL     1      21.349  -2.180  54.071  1.00  0.00    -0.271 OA
HETATM   12  C23 UNL     1      19.786  -0.471  53.654  1.00  0.00     0.278 C 
HETATM   13  O2  UNL     1      19.720   0.658  52.807  1.00  0.00    -0.340 OA
HETATM   14  N3  UNL     1      20.962   4.823  51.345  1.00  0.00    -0.242 NA
HETATM   15  C24 UNL     1      21.581   5.717  50.617  1.00  0.00     0.224 C 
HETATM   16  N4  UNL     1      22.942   5.702  50.229  1.00  0.00    -0.291 N 
HETATM   17  H25 UNL     1      23.113  -0.433  53.904  1.00  0.00     0.169 HD
HETATM   18  H29 UNL     1      23.086   6.330  49.432  1.00  0.00     0.188 HD
ENDROOT
BRANCH   8  19
HETATM   19  C14 UNL     1      24.427   1.608  53.331  1.00  0.00     0.042 C 
BRANCH  19  20
HETATM   20  C15 UNL     1      25.108   0.558  52.557  1.00  0.00     0.009 C 
BRANCH  20  21
HETATM   21  C16 UNL     1      26.557   0.678  52.212  1.00  0.00    -0.014 C 
HETATM   22  C17 UNL     1      27.357  -0.534  52.502  1.00  0.00     0.004 C 
HETATM   23  C18 UNL     1      28.345  -0.458  53.622  1.00  0.00     0.000 C 
HETATM   24  C19 UNL     1      28.157   0.738  54.501  1.00  0.00     0.000 C 
HETATM   25  C20 UNL     1      28.311   1.933  53.556  1.00  0.00     0.000 C 
HETATM   26  C21 UNL     1      27.041   1.978  52.767  1.00  0.00     0.004 C 
ENDBRANCH  20  21
ENDBRANCH  19  20
ENDBRANCH   8  19
BRANCH   1  27
HETATM   27  C6  UNL     1      25.168   4.982  50.074  1.00  0.00     0.051 A 
HETATM   28  C5  UNL     1      25.989   3.891  49.886  1.00  0.00     0.031 A 
HETATM   29  C4  UNL     1      27.154   3.902  49.147  1.00  0.00     0.003 A 
HETATM   30  C3  UNL     1      27.564   5.052  48.543  1.00  0.00     0.007 A 
HETATM   31  C2  UNL     1      26.789   6.194  48.688  1.00  0.00    -0.060 A 
HETATM   32  C1  UNL     1      27.263   7.422  48.021  1.00  0.00     0.048 C 
HETATM   33  C25 UNL     1      25.637   6.110  49.440  1.00  0.00     0.038 A 
ENDBRANCH   1  27
TORSDOF 4
ENDMDL
MODEL 2
REMARK VINA RESULT:      -9.7      3.078      7.111
REMARK  4 active torsions:
REMARK  status: ('A' for Active; 'I' for Inactive)
REMARK    1  A    between atoms: C6_6  and  N1_7 
REMARK    2  A    between atoms: C13_14  and  C14_15 
REMARK    3  A    between atoms: C14_15  and  C15_16 
REMARK    4  A    between atoms: C15_16  and  C16_17 
ROOT
HETATM    1  N1  UNL     1      20.028   0.358  52.883  1.00  0.00    -0.287 N 
HETATM    2  C7  UNL     1      20.992   1.351  53.337  1.00  0.00     0.191 C 
HETATM    3  C8  UNL     1      22.362   0.890  53.472  1.00  0.00    -0.001 A 
HETATM    4  C9  UNL     1      22.743  -0.327  53.985  1.00  0.00     0.069 A 
HETATM    5  C10 UNL     1      24.066  -0.720  54.063  1.00  0.00     0.071 A 
HETATM    6  C11 UNL     1      24.987   0.188  53.590  1.00  0.00     0.099 A 
HETATM    7  C12 UNL     1      24.577   1.410  53.077  1.00  0.00     0.075 A 
HETATM    8  C13 UNL     1      23.239   1.833  52.989  1.00  0.00    -0.018 A 
HETATM    9  N2  UNL     1      25.695   2.190  52.674  1.00  0.00    -0.322 N 
HETATM   10  C22 UNL     1      27.057   1.841  52.752  1.00  0.00     0.246 C 
HETATM   11  O1  UNL     1      27.993   2.449  52.179  1.00  0.00    -0.271 OA
HETATM   12  C23 UNL     1      27.400   0.654  53.580  1.00  0.00     0.278 C 
HETATM   13  O2  UNL     1      26.307  -0.236  53.680  1.00  0.00    -0.340 OA
HETATM   14  N3  UNL     1      21.942  -1.366  54.512  1.00  0.00    -0.242 NA
HETATM   15  C24 UNL     1      20.689  -1.638  54.249  1.00  0.00     0.224 C 
HETATM   16  N4  UNL     1      19.836  -0.940  53.361  1.00  0.00    -0.291 N 
HETATM   17  H25 UNL     1      25.606   3.145  52.273  1.00  0.00     0.169 HD
HETATM   18  H29 UNL     1      19.033  -1.526  53.113  1.00  0.00     0.188 HD
ENDROOT
BRANCH   8  19
HETATM   19  C14 UNL     1      23.120   3.183  52.461  1.00  0.00     0.042 C 
BRANCH  19  20
HETATM   20  C15 UNL     1      22.500   3.373  51.141  1.00  0.00     0.009 C 
BRANCH  20  21
HETATM   21  C16 UNL     1      22.963   2.587  49.957  1.00  0.00    -0.014 C 
HETATM   22  C17 UNL     1      23.171   3.393  48.731  1.00  0.00     0.004 C 
HETATM   23  C18 UNL     1      22.213   3.191  47.601  1.00  0.00     0.000 C 
HETATM   24  C19 UNL     1      20.986   2.430  47.990  1.00  0.00     0.000 C 
HETATM   25  C20 UNL     1      21.517   1.087  48.503  1.00  0.00     0.000 C 
HETATM   26  C21 UNL     1      22.090   1.380  49.853  1.00  0.00     0.004 C 
ENDBRANCH  20  21
ENDBRANCH  19  20
ENDBRANCH   8  19
BRANCH   1  27
HETATM   27  C6  UNL     1      19.124   0.695  51.839  1.00  0.00     0.051 A 
HETATM   28  C5  UNL     1      18.297  -0.206  51.205  1.00  0.00     0.031 A 
HETATM   29  C4  UNL     1      17.407   0.116  50.200  1.00  0.00     0.003 A 
HETATM   30  C3  UNL     1      17.304   1.405  49.771  1.00  0.00     0.007 A 
HETATM   31  C2  UNL     1      18.106   2.370  50.364  1.00  0.00    -0.060 A 
HETATM   32  C1  UNL     1      17.969   3.755  49.874  1.00  0.00     0.048 C 
HETATM   33  C25 UNL     1      18.972   1.977  51.361  1.00  0.00     0.038 A 
ENDBRANCH   1  27
TORSDOF 4
ENDMDL
MODEL 3
REMARK VINA RESULT:      -9.6      2.854      6.202
REMARK  4 active torsions:
REMARK  status: ('A' for Active; 'I' for Inactive)
REMARK    1  A    between atoms: C6_6  and  N1_7 
REMARK    2  A    between atoms: C13_14  and  C14_15 
REMARK    3  A    between atoms: C14_15  and  C15_16 
REMARK    4  A    between atoms: C15_16  and  C16_17 
ROOT
HETATM    1  N1  UNL     1      20.916   1.522  52.082  1.00  0.00    -0.287 N 
HETATM    2  C7  UNL     1      21.852   1.966  51.058  1.00  0.00     0.191 C 
HETATM    3  C8  UNL     1      22.051   3.401  50.961  1.00  0.00    -0.001 A 
HETATM    4  C9  UNL     1      21.061   4.349  51.060  1.00  0.00     0.069 A 
HETATM    5  C10 UNL     1      21.318   5.705  50.986  1.00  0.00     0.071 A 
HETATM    6  C11 UNL     1      22.639   6.052  50.806  1.00  0.00     0.099 A 
HETATM    7  C12 UNL     1      23.621   5.076  50.709  1.00  0.00     0.075 A 
HETATM    8  C13 UNL     1      23.383   3.692  50.780  1.00  0.00    -0.018 A 
HETATM    9  N2  UNL     1      24.898   5.663  50.502  1.00  0.00    -0.322 N 
HETATM   10  C22 UNL     1      25.206   7.034  50.400  1.00  0.00     0.246 C 
HETATM   11  O1  UNL     1      26.361   7.521  50.450  1.00  0.00    -0.271 OA
HETATM   12  C23 UNL     1      24.062   7.967  50.220  1.00  0.00     0.278 C 
HETATM   13  O2  UNL     1      22.866   7.420  50.737  1.00  0.00    -0.340 OA
HETATM   14  N3  UNL     1      19.670   4.172  51.239  1.00  0.00    -0.242 NA
HETATM   15  C24 UNL     1      19.043   3.163  51.789  1.00  0.00     0.224 C 
HETATM   16  N4  UNL     1      19.628   1.997  52.337  1.00  0.00    -0.291 N 
HETATM   17  H25 UNL     1      25.769   5.105  50.390  1.00  0.00     0.169 HD
HETATM   18  H29 UNL     1      18.961   1.530  52.960  1.00  0.00     0.188 HD
ENDROOT
BRANCH   8  19
HETATM   19  C14 UNL     1      24.596   2.913  50.587  1.00  0.00     0.042 C 
BRANCH  19  20
HETATM   20  C15 UNL     1      25.243   2.311  51.764  1.00  0.00     0.009 C 
BRANCH  20  21
HETATM   21  C16 UNL     1      26.585   1.663  51.653  1.00  0.00    -0.014 C 
HETATM   22  C17 UNL     1      26.578   0.199  51.879  1.00  0.00     0.004 C 
HETATM   23  C18 UNL     1      27.221  -0.310  53.129  1.00  0.00     0.000 C 
HETATM   24  C19 UNL     1      27.501   0.763  54.133  1.00  0.00     0.000 C 
HETATM   25  C20 UNL     1      28.427   1.738  53.401  1.00  0.00     0.000 C 
HETATM   26  C21 UNL     1      27.544   2.484  52.451  1.00  0.00     0.004 C 
ENDBRANCH  20  21
ENDBRANCH  19  20
ENDBRANCH   8  19
BRANCH   1  27
HETATM   27  C6  UNL     1      21.289   0.459  52.948  1.00  0.00     0.051 A 
HETATM   28  C5  UNL     1      20.427  -0.522  53.392  1.00  0.00     0.031 A 
HETATM   29  C4  UNL     1      20.784  -1.565  54.222  1.00  0.00     0.003 A 
HETATM   30  C3  UNL     1      22.069  -1.675  54.661  1.00  0.00     0.007 A 
HETATM   31  C2  UNL     1      22.994  -0.723  54.256  1.00  0.00    -0.060 A 
HETATM   32  C1  UNL     1      24.376  -0.872  54.752  1.00  0.00     0.048 C 
HETATM   33  C25 UNL     1      22.568   0.291  53.427  1.00  0.00     0.038 A 
ENDBRANCH   1  27
TORSDOF 4
ENDMDL
MODEL 4
REMARK VINA RESULT:      -9.5      1.817      5.894
REMARK  4 active torsions:
REMARK  status: ('A' for Active; 'I' for Inactive)
REMARK    1  A    between atoms: C6_6  and  N1_7 
REMARK    2  A    between atoms: C13_14  and  C14_15 
REMARK    3  A    between atoms: C14_15  and  C15_16 
REMARK    4  A    between atoms: C15_16  and  C16_17 
ROOT
HETATM    1  N1  UNL     1      24.990   0.172  53.180  1.00  0.00    -0.287 N 
HETATM    2  C7  UNL     1      24.294   0.493  51.941  1.00  0.00     0.191 C 
HETATM    3  C8  UNL     1      22.981   1.093  52.089  1.00  0.00    -0.001 A 
HETATM    4  C9  UNL     1      22.035   0.717  53.013  1.00  0.00     0.069 A 
HETATM    5  C10 UNL     1      20.810   1.346  53.123  1.00  0.00     0.071 A 
HETATM    6  C11 UNL     1      20.591   2.383  52.243  1.00  0.00     0.099 A 
HETATM    7  C12 UNL     1      21.561   2.744  51.319  1.00  0.00     0.075 A 
HETATM    8  C13 UNL     1      22.814   2.118  51.188  1.00  0.00    -0.018 A 
HETATM    9  N2  UNL     1      21.108   3.816  50.503  1.00  0.00    -0.322 N 
HETATM   10  C22 UNL     1      19.865   4.475  50.564  1.00  0.00     0.246 C 
HETATM   11  O1  UNL     1      19.591   5.557  49.992  1.00  0.00    -0.271 OA
HETATM   12  C23 UNL     1      18.801   3.825  51.375  1.00  0.00     0.278 C 
HETATM   13  O2  UNL     1      19.352   2.997  52.378  1.00  0.00    -0.340 OA
HETATM   14  N3  UNL     1      22.090  -0.315  53.979  1.00  0.00    -0.242 NA
HETATM   15  C24 UNL     1      23.146  -0.850  54.537  1.00  0.00     0.224 C 
HETATM   16  N4  UNL     1      24.499  -0.512  54.293  1.00  0.00    -0.291 N 
HETATM   17  H25 UNL     1      21.680   4.229  49.739  1.00  0.00     0.169 HD
HETATM   18  H29 UNL     1      25.088  -0.850  55.061  1.00  0.00     0.188 HD
ENDROOT
BRANCH   8  19
HETATM   19  C14 UNL     1      23.597   2.673  50.095  1.00  0.00     0.042 C 
BRANCH  19  20
HETATM   20  C15 UNL     1      24.986   3.079  50.357  1.00  0.00     0.009 C 
BRANCH  20  21
HETATM   21  C16 UNL     1      25.353   4.522  50.480  1.00  0.00    -0.014 C 
HETATM   22  C17 UNL     1      24.235   5.405  50.887  1.00  0.00     0.004 C 
HETATM   23  C18 UNL     1      23.699   6.357  49.866  1.00  0.00     0.000 C 
HETATM   24  C19 UNL     1      24.162   6.060  48.475  1.00  0.00     0.000 C 
HETATM   25  C20 UNL     1      25.689   6.145  48.554  1.00  0.00     0.000 C 
HETATM   26  C21 UNL     1      26.119   4.894  49.253  1.00  0.00     0.004 C 
ENDBRANCH  20  21
ENDBRANCH  19  20
ENDBRANCH   8  19
BRANCH   1  27
HETATM   27  C6  UNL     1      26.351   0.555  53.330  1.00  0.00     0.051 A 
HETATM   28  C5  UNL     1      26.785   1.860  53.432  1.00  0.00     0.031 A 
HETATM   29  C4  UNL     1      28.102   2.240  53.591  1.00  0.00     0.003 A 
HETATM   30  C3  UNL     1      29.079   1.293  53.657  1.00  0.00     0.007 A 
HETATM   31  C2  UNL     1      28.718  -0.044  53.561  1.00  0.00    -0.060 A 
HETATM   32  C1  UNL     1      29.802  -1.043  53.635  1.00  0.00     0.048 C 
HETATM   33  C25 UNL     1      27.384  -0.351  53.404  1.00  0.00     0.038 A 
ENDBRANCH   1  27
TORSDOF 4
ENDMDL
MODEL 5
REMARK VINA RESULT:      -9.5      2.954      6.763
REMARK  4 active torsions:
REMARK  status: ('A' for Active; 'I' for Inactive)
REMARK    1  A    between atoms: C6_6  and  N1_7 
REMARK    2  A    between atoms: C13_14  and  C14_15 
REMARK    3  A    between atoms: C14_15  and  C15_16 
REMARK    4  A    between atoms: C15_16  and  C16_17 
ROOT
HETATM    1  N1  UNL     1      20.978   0.180  52.959  1.00  0.00    -0.287 N 
HETATM    2  C7  UNL     1      21.965   1.150  53.415  1.00  0.00     0.191 C 
HETATM    3  C8  UNL     1      23.265   0.610  53.772  1.00  0.00    -0.001 A 
HETATM    4  C9  UNL     1      23.477  -0.558  54.464  1.00  0.00     0.069 A 
HETATM    5  C10 UNL     1      24.743  -1.034  54.751  1.00  0.00     0.071 A 
HETATM    6  C11 UNL     1      25.788  -0.260  54.297  1.00  0.00     0.099 A 
HETATM    7  C12 UNL     1      25.548   0.916  53.601  1.00  0.00     0.075 A 
HETATM    8  C13 UNL     1      24.270   1.420  53.298  1.00  0.00    -0.018 A 
HETATM    9  N2  UNL     1      26.769   1.557  53.256  1.00  0.00    -0.322 N 
HETATM   10  C22 UNL     1      28.077   1.122  53.542  1.00  0.00     0.246 C 
HETATM   11  O1  UNL     1      29.122   1.585  53.026  1.00  0.00    -0.271 OA
HETATM   12  C23 UNL     1      28.217   0.024  54.536  1.00  0.00     0.278 C 
HETATM   13  O2  UNL     1      27.046  -0.765  54.599  1.00  0.00    -0.340 OA
HETATM   14  N3  UNL     1      22.533  -1.463  55.001  1.00  0.00    -0.242 NA
HETATM   15  C24 UNL     1      21.300  -1.674  54.615  1.00  0.00     0.224 C 
HETATM   16  N4  UNL     1      20.620  -1.031  53.554  1.00  0.00    -0.291 N 
HETATM   17  H25 UNL     1      26.810   2.459  52.741  1.00  0.00     0.169 HD
HETATM   18  H29 UNL     1      19.803  -1.584  53.275  1.00  0.00     0.188 HD
ENDROOT
BRANCH   8  19
HETATM   19  C14 UNL     1      24.331   2.700  52.611  1.00  0.00     0.042 C 
BRANCH  19  20
HETATM   20  C15 UNL     1      24.147   2.727  51.151  1.00  0.00     0.009 C 
BRANCH  20  21
HETATM   21  C16 UNL     1      23.400   3.842  50.494  1.00  0.00    -0.014 C 
HETATM   22  C17 UNL     1      23.832   4.133  49.107  1.00  0.00     0.004 C 
HETATM   23  C18 UNL     1      24.555   5.419  48.864  1.00  0.00     0.000 C 
HETATM   24  C19 UNL     1      25.022   6.085  50.119  1.00  0.00     0.000 C 
HETATM   25  C20 UNL     1      23.741   6.323  50.924  1.00  0.00     0.000 C 
HETATM   26  C21 UNL     1      23.356   4.980  51.460  1.00  0.00     0.004 C 
ENDBRANCH  20  21
ENDBRANCH  19  20
ENDBRANCH   8  19
BRANCH   1  27
HETATM   27  C6  UNL     1      20.233   0.452  51.780  1.00  0.00     0.051 A 
HETATM   28  C5  UNL     1      18.906   0.123  51.604  1.00  0.00     0.031 A 
HETATM   29  C4  UNL     1      18.173   0.395  50.468  1.00  0.00     0.003 A 
HETATM   30  C3  UNL     1      18.760   1.032  49.416  1.00  0.00     0.007 A 
HETATM   31  C2  UNL     1      20.095   1.394  49.519  1.00  0.00    -0.060 A 
HETATM   32  C1  UNL     1      20.699   2.082  48.361  1.00  0.00     0.048 C 
HETATM   33  C25 UNL     1      20.767   1.092  50.684  1.00  0.00     0.038 A 
ENDBRANCH   1  27
TORSDOF 4
ENDMDL
MODEL 6
REMARK VINA RESULT:      -9.4      2.303      5.443
REMARK  4 active torsions:
REMARK  status: ('A' for Active; 'I' for Inactive)
REMARK    1  A    between atoms: C6_6  and  N1_7 
REMARK    2  A    between atoms: C13_14  and  C14_15 
REMARK    3  A    between atoms: C14_15  and  C15_16 
REMARK    4  A    between atoms: C15_16  and  C16_17 
ROOT
HETATM    1  N1  UNL     1      26.201   3.188  51.293  1.00  0.00    -0.287 N 
HETATM    2  C7  UNL     1      24.852   3.567  51.693  1.00  0.00     0.191 C 
HETATM    3  C8  UNL     1      23.890   3.716  50.615  1.00  0.00    -0.001 A 
HETATM    4  C9  UNL     1      24.145   4.302  49.398  1.00  0.00     0.069 A 
HETATM    5  C10 UNL     1      23.193   4.390  48.400  1.00  0.00     0.071 A 
HETATM    6  C11 UNL     1      21.962   3.849  48.701  1.00  0.00     0.099 A 
HETATM    7  C12 UNL     1      21.729   3.263  49.937  1.00  0.00     0.075 A 
HETATM    8  C13 UNL     1      22.681   3.163  50.967  1.00  0.00    -0.018 A 
HETATM    9  N2  UNL     1      20.389   2.799  50.031  1.00  0.00    -0.322 N 
HETATM   10  C22 UNL     1      19.381   2.884  49.052  1.00  0.00     0.246 C 
HETATM   11  O1  UNL     1      18.291   2.263  49.081  1.00  0.00    -0.271 OA
HETATM   12  C23 UNL     1      19.642   3.783  47.896  1.00  0.00     0.278 C 
HETATM   13  O2  UNL     1      21.028   3.952  47.679  1.00  0.00    -0.340 OA
HETATM   14  N3  UNL     1      25.335   4.903  48.928  1.00  0.00    -0.242 NA
HETATM   15  C24 UNL     1      26.567   4.672  49.306  1.00  0.00     0.224 C 
HETATM   16  N4  UNL     1      26.994   3.751  50.292  1.00  0.00    -0.291 N 
HETATM   17  H25 UNL     1      20.006   2.339  50.882  1.00  0.00     0.169 HD
HETATM   18  H29 UNL     1      27.992   3.549  50.174  1.00  0.00     0.188 HD
ENDROOT
BRANCH   8  19
HETATM   19  C14 UNL     1      22.133   2.552  52.168  1.00  0.00     0.042 C 
BRANCH  19  20
HETATM   20  C15 UNL     1      22.965   1.598  52.917  1.00  0.00     0.009 C 
BRANCH  20  21
HETATM   21  C16 UNL     1      22.736   0.126  52.802  1.00  0.00    -0.014 C 
HETATM   22  C17 UNL     1      21.342  -0.252  52.474  1.00  0.00     0.004 C 
HETATM   23  C18 UNL     1      20.540  -0.927  53.540  1.00  0.00     0.000 C 
HETATM   24  C19 UNL     1      21.160  -0.837  54.898  1.00  0.00     0.000 C 
HETATM   25  C20 UNL     1      22.528  -1.508  54.737  1.00  0.00     0.000 C 
HETATM   26  C21 UNL     1      23.368  -0.518  53.993  1.00  0.00     0.004 C 
ENDBRANCH  20  21
ENDBRANCH  19  20
ENDBRANCH   8  19
BRANCH   1  27
HETATM   27  C6  UNL     1      26.858   2.135  51.985  1.00  0.00     0.051 A 
HETATM   28  C5  UNL     1      27.927   2.313  52.838  1.00  0.00     0.031 A 
HETATM   29  C4  UNL     1      28.562   1.298  53.524  1.00  0.00     0.003 A 
HETATM   30  C3  UNL     1      28.139   0.011  53.380  1.00  0.00     0.007 A 
HETATM   31  C2  UNL     1      27.068  -0.246  52.536  1.00  0.00    -0.060 A 
HETATM   32  C1  UNL     1      26.637  -1.651  52.402  1.00  0.00     0.048 C 
HETATM   33  C25 UNL     1      26.481   0.815  51.883  1.00  0.00     0.038 A 
ENDBRANCH   1  27
TORSDOF 4
ENDMDL
MODEL 7
REMARK VINA RESULT:      -9.3      2.345      4.935
REMARK  4 active torsions:
REMARK  status: ('A' for Active; 'I' for Inactive)
REMARK    1  A    between atoms: C6_6  and  N1_7 
REMARK    2  A    between atoms: C13_14  and  C14_15 
REMARK    3  A    between atoms: C14_15  and  C15_16 
REMARK    4  A    between atoms: C15_16  and  C16_17 
ROOT
HETATM    1  N1  UNL     1      25.338   3.404  50.833  1.00  0.00    -0.287 N 
HETATM    2  C7  UNL     1      24.373   2.374  50.472  1.00  0.00     0.191 C 
HETATM    3  C8  UNL     1      24.005   1.452  51.531  1.00  0.00    -0.001 A 
HETATM    4  C9  UNL     1      24.872   0.907  52.447  1.00  0.00     0.069 A 
HETATM    5  C10 UNL     1      24.455   0.054  53.451  1.00  0.00     0.071 A 
HETATM    6  C11 UNL     1      23.106  -0.220  53.479  1.00  0.00     0.099 A 
HETATM    7  C12 UNL     1      22.250   0.342  52.542  1.00  0.00     0.075 A 
HETATM    8  C13 UNL     1      22.651   1.211  51.512  1.00  0.00    -0.018 A 
HETATM    9  N2  UNL     1      20.915  -0.100  52.749  1.00  0.00    -0.322 N 
HETATM   10  C22 UNL     1      20.447  -0.981  53.742  1.00  0.00     0.246 C 
HETATM   11  O1  UNL     1      19.241  -1.164  54.036  1.00  0.00    -0.271 OA
HETATM   12  C23 UNL     1      21.473  -1.749  54.496  1.00  0.00     0.278 C 
HETATM   13  O2  UNL     1      22.717  -1.079  54.499  1.00  0.00    -0.340 OA
HETATM   14  N3  UNL     1      26.272   1.075  52.562  1.00  0.00    -0.242 NA
HETATM   15  C24 UNL     1      27.005   2.081  52.158  1.00  0.00     0.224 C 
HETATM   16  N4  UNL     1      26.555   3.249  51.499  1.00  0.00    -0.291 N 
HETATM   17  H25 UNL     1      20.120   0.195  52.146  1.00  0.00     0.169 HD
HETATM   18  H29 UNL     1      27.263   3.987  51.573  1.00  0.00     0.188 HD
ENDROOT
BRANCH   8  19
HETATM   19  C14 UNL     1      21.543   1.593  50.650  1.00  0.00     0.042 C 
BRANCH  19  20
HETATM   20  C15 UNL     1      21.471   1.020  49.297  1.00  0.00     0.009 C 
BRANCH  20  21
HETATM   21  C16 UNL     1      21.189   1.886  48.112  1.00  0.00    -0.014 C 
HETATM   22  C17 UNL     1      22.389   2.521  47.519  1.00  0.00     0.004 C 
HETATM   23  C18 UNL     1      22.537   4.001  47.676  1.00  0.00     0.000 C 
HETATM   24  C19 UNL     1      21.606   4.587  48.690  1.00  0.00     0.000 C 
HETATM   25  C20 UNL     1      20.208   4.229  48.177  1.00  0.00     0.000 C 
HETATM   26  C21 UNL     1      20.041   2.772  48.471  1.00  0.00     0.004 C 
ENDBRANCH  20  21
ENDBRANCH  19  20
ENDBRANCH   8  19
BRANCH   1  27
HETATM   27  C6  UNL     1      25.081   4.754  50.469  1.00  0.00     0.051 A 
HETATM   28  C5  UNL     1      24.201   5.584  51.131  1.00  0.00     0.031 A 
HETATM   29  C4  UNL     1      23.956   6.898  50.793  1.00  0.00     0.003 A 
HETATM   30  C3  UNL     1      24.605   7.461  49.736  1.00  0.00     0.007 A 
HETATM   31  C2  UNL     1      25.507   6.686  49.020  1.00  0.00    -0.060 A 
HETATM   32  C1  UNL     1      26.191   7.327  47.881  1.00  0.00     0.048 C 
HETATM   33  C25 UNL     1      25.703   5.381  49.413  1.00  0.00     0.038 A 
ENDBRANCH   1  27
TORSDOF 4
ENDMDL
MODEL 8
REMARK VINA RESULT:      -9.3      1.483      1.932
REMARK  4 active torsions:
REMARK  status: ('A' for Active; 'I' for Inactive)
REMARK    1  A    between atoms: C6_6  and  N1_7 
REMARK    2  A    between atoms: C13_14  and  C14_15 
REMARK    3  A    between atoms: C14_15  and  C15_16 
REMARK    4  A    between atoms: C15_16  and  C16_17 
ROOT
HETATM    1  N1  UNL     1      24.036   5.848  50.167  1.00  0.00    -0.287 N 
HETATM    2  C7  UNL     1      23.588   5.117  51.345  1.00  0.00     0.191 C 
HETATM    3  C8  UNL     1      22.250   4.557  51.271  1.00  0.00    -0.001 A 
HETATM    4  C9  UNL     1      21.155   5.184  50.728  1.00  0.00     0.069 A 
HETATM    5  C10 UNL     1      19.910   4.587  50.662  1.00  0.00     0.071 A 
HETATM    6  C11 UNL     1      19.833   3.312  51.179  1.00  0.00     0.099 A 
HETATM    7  C12 UNL     1      20.953   2.700  51.723  1.00  0.00     0.075 A 
HETATM    8  C13 UNL     1      22.228   3.288  51.801  1.00  0.00    -0.018 A 
HETATM    9  N2  UNL     1      20.633   1.406  52.215  1.00  0.00    -0.322 N 
HETATM   10  C22 UNL     1      19.379   0.764  52.189  1.00  0.00     0.246 C 
HETATM   11  O1  UNL     1      19.186  -0.454  52.417  1.00  0.00    -0.271 OA
HETATM   12  C23 UNL     1      18.200   1.609  51.863  1.00  0.00     0.278 C 
HETATM   13  O2  UNL     1      18.571   2.738  51.098  1.00  0.00    -0.340 OA
HETATM   14  N3  UNL     1      21.055   6.477  50.163  1.00  0.00    -0.242 NA
HETATM   15  C24 UNL     1      21.998   7.199  49.614  1.00  0.00     0.224 C 
HETATM   16  N4  UNL     1      23.359   6.843  49.460  1.00  0.00    -0.291 N 
HETATM   17  H25 UNL     1      21.329   0.784  52.673  1.00  0.00     0.169 HD
HETATM   18  H29 UNL     1      23.797   7.433  48.745  1.00  0.00     0.188 HD
ENDROOT
BRANCH   8  19
HETATM   19  C14 UNL     1      23.191   2.430  52.474  1.00  0.00     0.042 C 
BRANCH  19  20
HETATM   20  C15 UNL     1      24.215   1.749  51.667  1.00  0.00     0.009 C 
BRANCH  20  21
HETATM   21  C16 UNL     1      25.631   1.663  52.138  1.00  0.00    -0.014 C 
HETATM   22  C17 UNL     1      26.397   0.531  51.569  1.00  0.00     0.004 C 
HETATM   23  C18 UNL     1      26.767  -0.587  52.491  1.00  0.00     0.000 C 
HETATM   24  C19 UNL     1      26.031  -0.551  53.794  1.00  0.00     0.000 C 
HETATM   25  C20 UNL     1      26.400   0.805  54.403  1.00  0.00     0.000 C 
HETATM   26  C21 UNL     1      25.616   1.814  53.624  1.00  0.00     0.004 C 
ENDBRANCH  20  21
ENDBRANCH  19  20
ENDBRANCH   8  19
BRANCH   1  27
HETATM   27  C6  UNL     1      25.326   5.579  49.634  1.00  0.00     0.051 A 
HETATM   28  C5  UNL     1      25.937   4.343  49.660  1.00  0.00     0.031 A 
HETATM   29  C4  UNL     1      27.182   4.071  49.134  1.00  0.00     0.003 A 
HETATM   30  C3  UNL     1      27.899   5.063  48.535  1.00  0.00     0.007 A 
HETATM   31  C2  UNL     1      27.349   6.335  48.471  1.00  0.00    -0.060 A 
HETATM   32  C1  UNL     1      28.153   7.386  47.817  1.00  0.00     0.048 C 
HETATM   33  C25 UNL     1      26.100   6.536  49.018  1.00  0.00     0.038 A 
ENDBRANCH   1  27
TORSDOF 4
ENDMDL
MODEL 9
REMARK VINA RESULT:      -9.2      2.872      7.745
REMARK  4 active torsions:
REMARK  status: ('A' for Active; 'I' for Inactive)
REMARK    1  A    between atoms: C6_6  and  N1_7 
REMARK    2  A    between atoms: C13_14  and  C14_15 
REMARK    3  A    between atoms: C14_15  and  C15_16 
REMARK    4  A    between atoms: C15_16  and  C16_17 
ROOT
HETATM    1  N1  UNL     1      24.135   0.748  53.082  1.00  0.00    -0.287 N 
HETATM    2  C7  UNL     1      24.216   2.201  53.161  1.00  0.00     0.191 C 
HETATM    3  C8  UNL     1      24.884   2.859  52.053  1.00  0.00    -0.001 A 
HETATM    4  C9  UNL     1      26.025   2.410  51.433  1.00  0.00     0.069 A 
HETATM    5  C10 UNL     1      26.600   3.069  50.362  1.00  0.00     0.071 A 
HETATM    6  C11 UNL     1      25.952   4.212  49.949  1.00  0.00     0.099 A 
HETATM    7  C12 UNL     1      24.801   4.645  50.591  1.00  0.00     0.075 A 
HETATM    8  C13 UNL     1      24.199   3.993  51.682  1.00  0.00    -0.018 A 
HETATM    9  N2  UNL     1      24.324   5.853  50.013  1.00  0.00    -0.322 N 
HETATM   10  C22 UNL     1      24.884   6.569  48.937  1.00  0.00     0.246 C 
HETATM   11  O1  UNL     1      24.314   7.493  48.309  1.00  0.00    -0.271 OA
HETATM   12  C23 UNL     1      26.260   6.189  48.522  1.00  0.00     0.278 C 
HETATM   13  O2  UNL     1      26.551   4.850  48.870  1.00  0.00    -0.340 OA
HETATM   14  N3  UNL     1      26.812   1.272  51.725  1.00  0.00    -0.242 NA
HETATM   15  C24 UNL     1      26.447   0.161  52.312  1.00  0.00     0.224 C 
HETATM   16  N4  UNL     1      25.157  -0.159  52.798  1.00  0.00    -0.291 N 
HETATM   17  H25 UNL     1      23.478   6.351  50.355  1.00  0.00     0.169 HD
HETATM   18  H29 UNL     1      25.071  -1.173  52.922  1.00  0.00     0.188 HD
ENDROOT
BRANCH   8  19
HETATM   19  C14 UNL     1      23.038   4.711  52.182  1.00  0.00     0.042 C 
BRANCH  19  20
HETATM   20  C15 UNL     1      21.751   4.002  52.265  1.00  0.00     0.009 C 
BRANCH  20  21
HETATM   21  C16 UNL     1      20.657   4.283  51.286  1.00  0.00    -0.014 C 
HETATM   22  C17 UNL     1      20.293   3.132  50.428  1.00  0.00     0.004 C 
HETATM   23  C18 UNL     1      20.648   3.212  48.978  1.00  0.00     0.000 C 
HETATM   24  C19 UNL     1      21.609   4.313  48.660  1.00  0.00     0.000 C 
HETATM   25  C20 UNL     1      20.893   5.588  49.119  1.00  0.00     0.000 C 
HETATM   26  C21 UNL     1      20.984   5.576  50.612  1.00  0.00     0.004 C 
ENDBRANCH  20  21
ENDBRANCH  19  20
ENDBRANCH   8  19
BRANCH   1  27
HETATM   27  C6  UNL     1      22.891   0.109  53.339  1.00  0.00     0.051 A 
HETATM   28  C5  UNL     1      22.694  -0.844  54.315  1.00  0.00     0.031 A 
HETATM   29  C4  UNL     1      21.488  -1.459  54.580  1.00  0.00     0.003 A 
HETATM   30  C3  UNL     1      20.384  -1.135  53.850  1.00  0.00     0.007 A 
HETATM   31  C2  UNL     1      20.506  -0.183  52.847  1.00  0.00    -0.060 A 
HETATM   32  C1  UNL     1      19.291   0.143  52.076  1.00  0.00     0.048 C 
HETATM   33  C25 UNL     1      21.741   0.391  52.638  1.00  0.00     0.038 A 
ENDBRANCH   1  27
TORSDOF 4
ENDMDL
