MODEL 1
REMARK VINA RESULT:      -8.9      0.000      0.000
REMARK  4 active torsions:
REMARK  status: ('A' for Active; 'I' for Inactive)
REMARK    1  A    between atoms: C3_3  and  C4_4 
REMARK    2  A    between atoms: C5_5  and  N1_6 
REMARK    3  A    between atoms: N1_6  and  C6_7 
REMARK    4  A    between atoms: C10_14  and  N5_15 
ROOT
HETATM    1  C6  UNL     1      21.116  -1.076  54.505  1.00  0.00     0.127 C 
HETATM    2  N2  UNL     1      21.915  -1.958  55.086  1.00  0.00    -0.164 NA
HETATM    3  N3  UNL     1      23.173  -1.627  55.589  1.00  0.00    -0.283 N 
HETATM    4  C7  UNL     1      24.287  -1.252  54.834  1.00  0.00     0.431 C 
HETATM    5  N4  UNL     1      25.299  -0.557  55.052  1.00  0.00    -0.394 NA
HETATM    6  C8  UNL     1      26.423  -0.184  54.280  1.00  0.00     0.311 C 
HETATM    7  C9  UNL     1      27.634   0.164  55.161  1.00  0.00     0.091 C 
HETATM    8  C10 UNL     1      28.848   0.045  54.260  1.00  0.00     0.223 C 
HETATM    9  C11 UNL     1      28.710   0.769  52.962  1.00  0.00     0.066 C 
HETATM   10  C12 UNL     1      27.356   0.565  52.296  1.00  0.00     0.277 C 
HETATM   11  N6  UNL     1      26.258   0.758  53.229  1.00  0.00     0.110 N 
HETATM   12  C13 UNL     1      25.051   0.802  52.520  1.00  0.00     0.279 C 
HETATM   13  C14 UNL     1      23.916   1.586  53.102  1.00  0.00     0.057 C 
HETATM   14  C15 UNL     1      22.655   1.435  52.328  1.00  0.00    -0.028 C 
HETATM   15  C16 UNL     1      21.612   0.860  52.975  1.00  0.00    -0.023 C 
HETATM   16  C17 UNL     1      21.445   0.341  54.303  1.00  0.00     0.107 C 
HETATM   17  H9  UNL     1      22.607  -1.851  56.437  1.00  0.00     0.185 HD
ENDROOT
BRANCH   1  18
HETATM   18  N1  UNL     1      19.874  -1.640  54.065  1.00  0.00    -0.353 N 
HETATM   19  H8  UNL     1      19.706  -2.670  54.272  1.00  0.00     0.166 HD
BRANCH  18  20
HETATM   20  C5  UNL     1      18.858  -0.890  53.366  1.00  0.00     0.089 C 
HETATM   21  C4  UNL     1      17.731  -1.585  53.164  1.00  0.00     0.017 C 
BRANCH  21  22
HETATM   22  C3  UNL     1      17.654  -2.972  53.653  1.00  0.00    -0.003 C 
HETATM   23  C2  UNL     1      16.715  -3.860  53.397  1.00  0.00    -0.031 C 
HETATM   24  C1  UNL     1      16.633  -5.258  53.888  1.00  0.00     0.036 C 
ENDBRANCH  21  22
ENDBRANCH  18  20
ENDBRANCH   1  18
BRANCH   8  25
HETATM   25  N5  UNL     1      29.213  -1.365  54.087  1.00  0.00     0.083 N 
HETATM   26  H15 UNL     1      28.658  -1.971  54.746  1.00  0.00     0.313 HD
HETATM   27  H16 UNL     1      30.216  -1.483  54.311  1.00  0.00     0.313 HD
ENDBRANCH   8  25
TORSDOF 4
ENDMDL
MODEL 2
REMARK VINA RESULT:      -8.2      1.684      2.119
REMARK  4 active torsions:
REMARK  status: ('A' for Active; 'I' for Inactive)
REMARK    1  A    between atoms: C3_3  and  C4_4 
REMARK    2  A    between atoms: C5_5  and  N1_6 
REMARK    3  A    between atoms: N1_6  and  C6_7 
REMARK    4  A    between atoms: C10_14  and  N5_15 
ROOT
HETATM    1  C6  UNL     1      21.123   0.496  52.176  1.00  0.00     0.127 C 
HETATM    2  N2  UNL     1      21.671  -0.678  52.448  1.00  0.00    -0.164 NA
HETATM    3  N3  UNL     1      22.704  -0.837  53.373  1.00  0.00    -0.283 N 
HETATM    4  C7  UNL     1      24.010  -0.361  53.236  1.00  0.00     0.431 C 
HETATM    5  N4  UNL     1      24.909  -0.030  54.034  1.00  0.00    -0.394 NA
HETATM    6  C8  UNL     1      26.231   0.451  53.885  1.00  0.00     0.311 C 
HETATM    7  C9  UNL     1      27.095   0.142  55.118  1.00  0.00     0.091 C 
HETATM    8  C10 UNL     1      28.534   0.236  54.647  1.00  0.00     0.223 C 
HETATM    9  C11 UNL     1      28.841   1.482  53.885  1.00  0.00     0.066 C 
HETATM   10  C12 UNL     1      27.773   1.843  52.860  1.00  0.00     0.277 C 
HETATM   11  N6  UNL     1      26.435   1.780  53.425  1.00  0.00     0.110 N 
HETATM   12  C13 UNL     1      25.526   2.351  52.526  1.00  0.00     0.279 C 
HETATM   13  C14 UNL     1      24.280   2.969  53.077  1.00  0.00     0.057 C 
HETATM   14  C15 UNL     1      23.337   3.409  52.014  1.00  0.00    -0.028 C 
HETATM   15  C16 UNL     1      22.128   2.796  51.985  1.00  0.00    -0.023 C 
HETATM   16  C17 UNL     1      21.529   1.769  52.787  1.00  0.00     0.107 C 
HETATM   17  H9  UNL     1      21.888  -1.318  53.811  1.00  0.00     0.185 HD
ENDROOT
BRANCH   1  18
HETATM   18  N1  UNL     1      20.081   0.420  51.194  1.00  0.00    -0.353 N 
HETATM   19  H8  UNL     1      20.198  -0.293  50.414  1.00  0.00     0.166 HD
BRANCH  18  20
HETATM   20  C5  UNL     1      18.902   1.252  51.214  1.00  0.00     0.089 C 
HETATM   21  C4  UNL     1      17.814   0.619  51.676  1.00  0.00     0.017 C 
BRANCH  21  22
HETATM   22  C3  UNL     1      17.935  -0.788  52.093  1.00  0.00    -0.003 C 
HETATM   23  C2  UNL     1      17.694  -1.293  53.285  1.00  0.00    -0.031 C 
HETATM   24  C1  UNL     1      17.814  -2.710  53.710  1.00  0.00     0.036 C 
ENDBRANCH  21  22
ENDBRANCH  18  20
ENDBRANCH   1  18
BRANCH   8  25
HETATM   25  N5  UNL     1      28.908  -0.982  53.919  1.00  0.00     0.083 N 
HETATM   26  H15 UNL     1      28.640  -1.836  54.473  1.00  0.00     0.313 HD
HETATM   27  H16 UNL     1      29.933  -0.994  53.787  1.00  0.00     0.313 HD
ENDBRANCH   8  25
TORSDOF 4
ENDMDL
MODEL 3
REMARK VINA RESULT:      -8.0      8.168     10.964
REMARK  4 active torsions:
REMARK  status: ('A' for Active; 'I' for Inactive)
REMARK    1  A    between atoms: C3_3  and  C4_4 
REMARK    2  A    between atoms: C5_5  and  N1_6 
REMARK    3  A    between atoms: N1_6  and  C6_7 
REMARK    4  A    between atoms: C10_14  and  N5_15 
ROOT
HETATM    1  C6  UNL     1      25.644   5.965  50.037  1.00  0.00     0.127 C 
HETATM    2  N2  UNL     1      25.429   7.149  50.590  1.00  0.00    -0.164 NA
HETATM    3  N3  UNL     1      25.786   8.350  49.977  1.00  0.00    -0.283 N 
HETATM    4  C7  UNL     1      27.089   8.797  49.744  1.00  0.00     0.431 C 
HETATM    5  N4  UNL     1      27.618   9.556  48.908  1.00  0.00    -0.394 NA
HETATM    6  C8  UNL     1      28.940  10.004  48.681  1.00  0.00     0.311 C 
HETATM    7  C9  UNL     1      28.969  11.349  47.936  1.00  0.00     0.091 C 
HETATM    8  C10 UNL     1      30.341  11.938  48.204  1.00  0.00     0.223 C 
HETATM    9  C11 UNL     1      31.465  10.989  47.957  1.00  0.00     0.066 C 
HETATM   10  C12 UNL     1      31.213   9.594  48.514  1.00  0.00     0.277 C 
HETATM   11  N6  UNL     1      29.896   9.096  48.153  1.00  0.00     0.110 N 
HETATM   12  C13 UNL     1      29.812   7.736  48.474  1.00  0.00     0.279 C 
HETATM   13  C14 UNL     1      28.883   6.876  47.676  1.00  0.00     0.057 C 
HETATM   14  C15 UNL     1      28.781   5.490  48.208  1.00  0.00    -0.028 C 
HETATM   15  C16 UNL     1      27.562   5.101  48.655  1.00  0.00    -0.023 C 
HETATM   16  C17 UNL     1      26.289   5.759  48.733  1.00  0.00     0.107 C 
HETATM   17  H9  UNL     1      24.743   8.361  49.976  1.00  0.00     0.185 HD
ENDROOT
BRANCH   1  18
HETATM   18  N1  UNL     1      25.195   4.871  50.847  1.00  0.00    -0.353 N 
HETATM   19  H8  UNL     1      25.289   4.975  51.901  1.00  0.00     0.166 HD
BRANCH  18  20
HETATM   20  C5  UNL     1      24.632   3.656  50.309  1.00  0.00     0.089 C 
HETATM   21  C4  UNL     1      25.357   2.565  50.593  1.00  0.00     0.017 C 
BRANCH  21  22
HETATM   22  C3  UNL     1      26.589   2.717  51.385  1.00  0.00    -0.003 C 
HETATM   23  C2  UNL     1      26.914   2.077  52.489  1.00  0.00    -0.031 C 
HETATM   24  C1  UNL     1      28.154   2.227  53.290  1.00  0.00     0.036 C 
ENDBRANCH  21  22
ENDBRANCH  18  20
ENDBRANCH   1  18
BRANCH   8  25
HETATM   25  N5  UNL     1      30.383  12.532  49.544  1.00  0.00     0.083 N 
HETATM   26  H15 UNL     1      31.120  12.062  50.131  1.00  0.00     0.313 HD
HETATM   27  H16 UNL     1      29.468  12.390  50.005  1.00  0.00     0.313 HD
ENDBRANCH   8  25
TORSDOF 4
ENDMDL
MODEL 4
REMARK VINA RESULT:      -7.9      4.617      8.732
REMARK  4 active torsions:
REMARK  status: ('A' for Active; 'I' for Inactive)
REMARK    1  A    between atoms: C3_3  and  C4_4 
REMARK    2  A    between atoms: C5_5  and  N1_6 
REMARK    3  A    between atoms: N1_6  and  C6_7 
REMARK    4  A    between atoms: C10_14  and  N5_15 
ROOT
HETATM    1  C6  UNL     1      26.772   2.369  52.192  1.00  0.00     0.127 C 
HETATM    2  N2  UNL     1      27.083   3.022  51.083  1.00  0.00    -0.164 NA
HETATM    3  N3  UNL     1      26.181   3.844  50.407  1.00  0.00    -0.283 N 
HETATM    4  C7  UNL     1      25.036   3.422  49.729  1.00  0.00     0.431 C 
HETATM    5  N4  UNL     1      23.943   3.951  49.442  1.00  0.00    -0.394 NA
HETATM    6  C8  UNL     1      22.788   3.515  48.753  1.00  0.00     0.311 C 
HETATM    7  C9  UNL     1      21.992   4.692  48.165  1.00  0.00     0.091 C 
HETATM    8  C10 UNL     1      21.122   4.098  47.074  1.00  0.00     0.223 C 
HETATM    9  C11 UNL     1      20.353   2.893  47.504  1.00  0.00     0.066 C 
HETATM   10  C12 UNL     1      21.180   1.905  48.316  1.00  0.00     0.277 C 
HETATM   11  N6  UNL     1      21.931   2.565  49.371  1.00  0.00     0.110 N 
HETATM   12  C13 UNL     1      22.470   1.599  50.229  1.00  0.00     0.279 C 
HETATM   13  C14 UNL     1      22.716   1.976  51.656  1.00  0.00     0.057 C 
HETATM   14  C15 UNL     1      23.420   0.912  52.421  1.00  0.00    -0.028 C 
HETATM   15  C16 UNL     1      24.646   1.225  52.905  1.00  0.00    -0.023 C 
HETATM   16  C17 UNL     1      25.455   2.408  52.841  1.00  0.00     0.107 C 
HETATM   17  H9  UNL     1      26.899   4.502  50.782  1.00  0.00     0.185 HD
ENDROOT
BRANCH   1  18
HETATM   18  N1  UNL     1      27.855   1.586  52.711  1.00  0.00    -0.353 N 
HETATM   19  H8  UNL     1      27.994   0.615  52.301  1.00  0.00     0.166 HD
BRANCH  18  20
HETATM   20  C5  UNL     1      28.748   2.045  53.747  1.00  0.00     0.089 C 
HETATM   21  C4  UNL     1      29.238   1.053  54.504  1.00  0.00     0.017 C 
BRANCH  21  22
HETATM   22  C3  UNL     1      28.830  -0.331  54.210  1.00  0.00    -0.003 C 
HETATM   23  C2  UNL     1      29.494  -1.230  53.513  1.00  0.00    -0.031 C 
HETATM   24  C1  UNL     1      29.087  -2.626  53.214  1.00  0.00     0.036 C 
ENDBRANCH  21  22
ENDBRANCH  18  20
ENDBRANCH   1  18
BRANCH   8  25
HETATM   25  N5  UNL     1      21.918   3.863  45.865  1.00  0.00     0.083 N 
HETATM   26  H15 UNL     1      21.331   3.398  45.124  1.00  0.00     0.313 HD
HETATM   27  H16 UNL     1      22.703   3.231  46.095  1.00  0.00     0.313 HD
ENDBRANCH   8  25
TORSDOF 4
ENDMDL
MODEL 5
REMARK VINA RESULT:      -7.9      2.888      3.976
REMARK  4 active torsions:
REMARK  status: ('A' for Active; 'I' for Inactive)
REMARK    1  A    between atoms: C3_3  and  C4_4 
REMARK    2  A    between atoms: C5_5  and  N1_6 
REMARK    3  A    between atoms: N1_6  and  C6_7 
REMARK    4  A    between atoms: C10_14  and  N5_15 
ROOT
HETATM    1  C6  UNL     1      21.201   0.441  52.221  1.00  0.00     0.127 C 
HETATM    2  N2  UNL     1      21.762  -0.727  52.492  1.00  0.00    -0.164 NA
HETATM    3  N3  UNL     1      22.796  -0.877  53.417  1.00  0.00    -0.283 N 
HETATM    4  C7  UNL     1      24.097  -0.388  53.279  1.00  0.00     0.431 C 
HETATM    5  N4  UNL     1      24.994  -0.049  54.077  1.00  0.00    -0.394 NA
HETATM    6  C8  UNL     1      26.310   0.445  53.928  1.00  0.00     0.311 C 
HETATM    7  C9  UNL     1      27.178   0.145  55.160  1.00  0.00     0.091 C 
HETATM    8  C10 UNL     1      28.616   0.253  54.688  1.00  0.00     0.223 C 
HETATM    9  C11 UNL     1      28.909   1.503  53.928  1.00  0.00     0.066 C 
HETATM   10  C12 UNL     1      27.838   1.854  52.904  1.00  0.00     0.277 C 
HETATM   11  N6  UNL     1      26.501   1.777  53.470  1.00  0.00     0.110 N 
HETATM   12  C13 UNL     1      25.585   2.340  52.572  1.00  0.00     0.279 C 
HETATM   13  C14 UNL     1      24.333   2.945  53.124  1.00  0.00     0.057 C 
HETATM   14  C15 UNL     1      23.385   3.377  52.063  1.00  0.00    -0.028 C 
HETATM   15  C16 UNL     1      22.183   2.751  52.033  1.00  0.00    -0.023 C 
HETATM   16  C17 UNL     1      21.594   1.717  52.834  1.00  0.00     0.107 C 
HETATM   17  H9  UNL     1      21.986  -1.367  53.855  1.00  0.00     0.185 HD
ENDROOT
BRANCH   1  18
HETATM   18  N1  UNL     1      20.159   0.356  51.240  1.00  0.00    -0.353 N 
HETATM   19  H8  UNL     1      20.125  -0.522  50.642  1.00  0.00     0.166 HD
BRANCH  18  20
HETATM   20  C5  UNL     1      19.173   1.388  51.030  1.00  0.00     0.089 C 
HETATM   21  C4  UNL     1      19.333   2.048  49.875  1.00  0.00     0.017 C 
BRANCH  21  22
HETATM   22  C3  UNL     1      20.446   1.668  48.989  1.00  0.00    -0.003 C 
HETATM   23  C2  UNL     1      21.384   2.453  48.501  1.00  0.00    -0.031 C 
HETATM   24  C1  UNL     1      22.508   2.075  47.608  1.00  0.00     0.036 C 
ENDBRANCH  21  22
ENDBRANCH  18  20
ENDBRANCH   1  18
BRANCH   8  25
HETATM   25  N5  UNL     1      29.001  -0.960  53.959  1.00  0.00     0.083 N 
HETATM   26  H15 UNL     1      30.047  -1.003  53.846  1.00  0.00     0.313 HD
HETATM   27  H16 UNL     1      28.578  -0.935  53.016  1.00  0.00     0.313 HD
ENDBRANCH   8  25
TORSDOF 4
ENDMDL
MODEL 6
REMARK VINA RESULT:      -7.9      8.025     10.404
REMARK  4 active torsions:
REMARK  status: ('A' for Active; 'I' for Inactive)
REMARK    1  A    between atoms: C3_3  and  C4_4 
REMARK    2  A    between atoms: C5_5  and  N1_6 
REMARK    3  A    between atoms: N1_6  and  C6_7 
REMARK    4  A    between atoms: C10_14  and  N5_15 
ROOT
HETATM    1  C6  UNL     1      25.304   6.079  50.246  1.00  0.00     0.127 C 
HETATM    2  N2  UNL     1      25.178   7.272  50.805  1.00  0.00    -0.164 NA
HETATM    3  N3  UNL     1      25.590   8.451  50.182  1.00  0.00    -0.283 N 
HETATM    4  C7  UNL     1      26.910   8.818  49.912  1.00  0.00     0.431 C 
HETATM    5  N4  UNL     1      27.460   9.546  49.061  1.00  0.00    -0.394 NA
HETATM    6  C8  UNL     1      28.800   9.913  48.795  1.00  0.00     0.311 C 
HETATM    7  C9  UNL     1      28.890  11.254  48.050  1.00  0.00     0.091 C 
HETATM    8  C10 UNL     1      30.302  11.758  48.278  1.00  0.00     0.223 C 
HETATM    9  C11 UNL     1      31.359  10.743  47.998  1.00  0.00     0.066 C 
HETATM   10  C12 UNL     1      31.038   9.365  48.561  1.00  0.00     0.277 C 
HETATM   11  N6  UNL     1      29.683   8.948  48.239  1.00  0.00     0.110 N 
HETATM   12  C13 UNL     1      29.526   7.595  48.563  1.00  0.00     0.279 C 
HETATM   13  C14 UNL     1      28.523   6.795  47.792  1.00  0.00     0.057 C 
HETATM   14  C15 UNL     1      28.352   5.417  48.326  1.00  0.00    -0.028 C 
HETATM   15  C16 UNL     1      27.125   5.102  48.808  1.00  0.00    -0.023 C 
HETATM   16  C17 UNL     1      25.898   5.836  48.924  1.00  0.00     0.107 C 
HETATM   17  H9  UNL     1      24.550   8.525  50.212  1.00  0.00     0.185 HD
ENDROOT
BRANCH   1  18
HETATM   18  N1  UNL     1      24.813   5.013  51.068  1.00  0.00    -0.353 N 
HETATM   19  H8  UNL     1      25.483   4.215  51.283  1.00  0.00     0.166 HD
BRANCH  18  20
HETATM   20  C5  UNL     1      23.476   4.971  51.609  1.00  0.00     0.089 C 
HETATM   21  C4  UNL     1      23.234   3.874  52.340  1.00  0.00     0.017 C 
BRANCH  21  22
HETATM   22  C3  UNL     1      24.306   2.879  52.504  1.00  0.00    -0.003 C 
HETATM   23  C2  UNL     1      24.172   1.581  52.682  1.00  0.00    -0.031 C 
HETATM   24  C1  UNL     1      25.249   0.573  52.848  1.00  0.00     0.036 C 
ENDBRANCH  21  22
ENDBRANCH  18  20
ENDBRANCH   1  18
BRANCH   8  25
HETATM   25  N5  UNL     1      30.419  12.346  49.616  1.00  0.00     0.083 N 
HETATM   26  H15 UNL     1      29.544  12.879  49.861  1.00  0.00     0.313 HD
HETATM   27  H16 UNL     1      31.211  13.010  49.625  1.00  0.00     0.313 HD
ENDBRANCH   8  25
TORSDOF 4
ENDMDL
MODEL 7
REMARK VINA RESULT:      -7.6      4.225      8.729
REMARK  4 active torsions:
REMARK  status: ('A' for Active; 'I' for Inactive)
REMARK    1  A    between atoms: C3_3  and  C4_4 
REMARK    2  A    between atoms: C5_5  and  N1_6 
REMARK    3  A    between atoms: N1_6  and  C6_7 
REMARK    4  A    between atoms: C10_14  and  N5_15 
ROOT
HETATM    1  C6  UNL     1      26.381   3.638  50.053  1.00  0.00     0.127 C 
HETATM    2  N2  UNL     1      26.865   2.872  51.018  1.00  0.00    -0.164 NA
HETATM    3  N3  UNL     1      26.277   1.664  51.396  1.00  0.00    -0.283 N 
HETATM    4  C7  UNL     1      25.038   1.514  52.023  1.00  0.00     0.431 C 
HETATM    5  N4  UNL     1      24.183   0.607  52.066  1.00  0.00    -0.394 NA
HETATM    6  C8  UNL     1      22.930   0.464  52.705  1.00  0.00     0.311 C 
HETATM    7  C9  UNL     1      22.566  -1.012  52.930  1.00  0.00     0.091 C 
HETATM    8  C10 UNL     1      21.516  -1.016  54.024  1.00  0.00     0.223 C 
HETATM    9  C11 UNL     1      20.395  -0.059  53.789  1.00  0.00     0.066 C 
HETATM   10  C12 UNL     1      20.859   1.309  53.308  1.00  0.00     0.277 C 
HETATM   11  N6  UNL     1      21.818   1.206  52.221  1.00  0.00     0.110 N 
HETATM   12  C13 UNL     1      22.020   2.472  51.660  1.00  0.00     0.279 C 
HETATM   13  C14 UNL     1      22.419   2.554  50.220  1.00  0.00     0.057 C 
HETATM   14  C15 UNL     1      22.740   3.941  49.789  1.00  0.00    -0.028 C 
HETATM   15  C16 UNL     1      24.013   4.170  49.383  1.00  0.00    -0.023 C 
HETATM   16  C17 UNL     1      25.174   3.334  49.273  1.00  0.00     0.107 C 
HETATM   17  H9  UNL     1      27.186   1.386  50.965  1.00  0.00     0.185 HD
ENDROOT
BRANCH   1  18
HETATM   18  N1  UNL     1      27.146   4.831  49.839  1.00  0.00    -0.353 N 
HETATM   19  H8  UNL     1      27.132   5.564  50.609  1.00  0.00     0.166 HD
BRANCH  18  20
HETATM   20  C5  UNL     1      27.922   5.080  48.647  1.00  0.00     0.089 C 
HETATM   21  C4  UNL     1      27.640   6.254  48.067  1.00  0.00     0.017 C 
BRANCH  21  22
HETATM   22  C3  UNL     1      26.619   7.121  48.678  1.00  0.00    -0.003 C 
HETATM   23  C2  UNL     1      25.453   7.464  48.171  1.00  0.00    -0.031 C 
HETATM   24  C1  UNL     1      24.421   8.338  48.782  1.00  0.00     0.036 C 
ENDBRANCH  21  22
ENDBRANCH  18  20
ENDBRANCH   1  18
BRANCH   8  25
HETATM   25  N5  UNL     1      22.150  -0.838  55.335  1.00  0.00     0.083 N 
HETATM   26  H15 UNL     1      21.853  -1.604  55.993  1.00  0.00     0.313 HD
HETATM   27  H16 UNL     1      21.847   0.066  55.736  1.00  0.00     0.313 HD
ENDBRANCH   8  25
TORSDOF 4
ENDMDL
MODEL 8
REMARK VINA RESULT:      -7.4      4.480      7.685
REMARK  4 active torsions:
REMARK  status: ('A' for Active; 'I' for Inactive)
REMARK    1  A    between atoms: C3_3  and  C4_4 
REMARK    2  A    between atoms: C5_5  and  N1_6 
REMARK    3  A    between atoms: N1_6  and  C6_7 
REMARK    4  A    between atoms: C10_14  and  N5_15 
ROOT
HETATM    1  C6  UNL     1      25.042   5.360  49.117  1.00  0.00     0.127 C 
HETATM    2  N2  UNL     1      26.280   5.180  49.548  1.00  0.00    -0.164 NA
HETATM    3  N3  UNL     1      26.813   3.919  49.821  1.00  0.00    -0.283 N 
HETATM    4  C7  UNL     1      26.425   3.071  50.860  1.00  0.00     0.431 C 
HETATM    5  N4  UNL     1      26.444   1.836  51.036  1.00  0.00    -0.394 NA
HETATM    6  C8  UNL     1      26.049   0.985  52.094  1.00  0.00     0.311 C 
HETATM    7  C9  UNL     1      26.809  -0.351  52.069  1.00  0.00     0.091 C 
HETATM    8  C10 UNL     1      26.683  -0.922  53.469  1.00  0.00     0.223 C 
HETATM    9  C11 UNL     1      25.286  -0.935  53.993  1.00  0.00     0.066 C 
HETATM   10  C12 UNL     1      24.527   0.358  53.724  1.00  0.00     0.277 C 
HETATM   11  N6  UNL     1      24.663   0.790  52.343  1.00  0.00     0.110 N 
HETATM   12  C13 UNL     1      23.760   1.831  52.092  1.00  0.00     0.279 C 
HETATM   13  C14 UNL     1      23.257   2.010  50.695  1.00  0.00     0.057 C 
HETATM   14  C15 UNL     1      22.421   3.231  50.535  1.00  0.00    -0.028 C 
HETATM   15  C16 UNL     1      22.893   4.182  49.693  1.00  0.00    -0.023 C 
HETATM   16  C17 UNL     1      24.074   4.280  48.884  1.00  0.00     0.107 C 
HETATM   17  H9  UNL     1      27.344   4.249  48.985  1.00  0.00     0.185 HD
ENDROOT
BRANCH   1  18
HETATM   18  N1  UNL     1      24.710   6.738  48.904  1.00  0.00    -0.353 N 
HETATM   19  H8  UNL     1      24.353   7.010  47.940  1.00  0.00     0.166 HD
BRANCH  18  20
HETATM   20  C5  UNL     1      24.837   7.757  49.918  1.00  0.00     0.089 C 
HETATM   21  C4  UNL     1      23.664   8.290  50.284  1.00  0.00     0.017 C 
BRANCH  21  22
HETATM   22  C3  UNL     1      22.432   7.804  49.641  1.00  0.00    -0.003 C 
HETATM   23  C2  UNL     1      21.253   7.627  50.202  1.00  0.00    -0.031 C 
HETATM   24  C1  UNL     1      20.009   7.137  49.559  1.00  0.00     0.036 C 
ENDBRANCH  21  22
ENDBRANCH  18  20
ENDBRANCH   1  18
BRANCH   8  25
HETATM   25  N5  UNL     1      27.623  -0.254  54.374  1.00  0.00     0.083 N 
HETATM   26  H15 UNL     1      28.509  -0.003  53.863  1.00  0.00     0.313 HD
HETATM   27  H16 UNL     1      27.870  -0.901  55.143  1.00  0.00     0.313 HD
ENDBRANCH   8  25
TORSDOF 4
ENDMDL
MODEL 9
REMARK VINA RESULT:      -7.3      5.521      7.021
REMARK  4 active torsions:
REMARK  status: ('A' for Active; 'I' for Inactive)
REMARK    1  A    between atoms: C3_3  and  C4_4 
REMARK    2  A    between atoms: C5_5  and  N1_6 
REMARK    3  A    between atoms: N1_6  and  C6_7 
REMARK    4  A    between atoms: C10_14  and  N5_15 
ROOT
HETATM    1  C6  UNL     1      21.808   3.484  51.864  1.00  0.00     0.127 C 
HETATM    2  N2  UNL     1      22.161   4.423  52.728  1.00  0.00    -0.164 NA
HETATM    3  N3  UNL     1      22.549   5.706  52.339  1.00  0.00    -0.283 N 
HETATM    4  C7  UNL     1      23.715   6.035  51.644  1.00  0.00     0.431 C 
HETATM    5  N4  UNL     1      24.044   6.961  50.877  1.00  0.00    -0.394 NA
HETATM    6  C8  UNL     1      25.229   7.288  50.177  1.00  0.00     0.311 C 
HETATM    7  C9  UNL     1      25.316   8.791  49.865  1.00  0.00     0.091 C 
HETATM    8  C10 UNL     1      26.782   9.072  49.598  1.00  0.00     0.223 C 
HETATM    9  C11 UNL     1      27.411   8.130  48.626  1.00  0.00     0.066 C 
HETATM   10  C12 UNL     1      27.040   6.673  48.869  1.00  0.00     0.277 C 
HETATM   11  N6  UNL     1      25.609   6.501  49.056  1.00  0.00     0.110 N 
HETATM   12  C13 UNL     1      25.299   5.136  49.029  1.00  0.00     0.279 C 
HETATM   13  C14 UNL     1      23.933   4.728  48.573  1.00  0.00     0.057 C 
HETATM   14  C15 UNL     1      23.686   3.270  48.727  1.00  0.00    -0.028 C 
HETATM   15  C16 UNL     1      22.696   2.910  49.579  1.00  0.00    -0.023 C 
HETATM   16  C17 UNL     1      21.791   3.657  50.405  1.00  0.00     0.107 C 
HETATM   17  H9  UNL     1      21.640   5.849  52.830  1.00  0.00     0.185 HD
ENDROOT
BRANCH   1  18
HETATM   18  N1  UNL     1      21.448   2.245  52.489  1.00  0.00    -0.353 N 
HETATM   19  H8  UNL     1      22.099   1.873  53.243  1.00  0.00     0.166 HD
BRANCH  18  20
HETATM   20  C5  UNL     1      20.266   1.492  52.148  1.00  0.00     0.089 C 
HETATM   21  C4  UNL     1      20.279   0.240  52.625  1.00  0.00     0.017 C 
BRANCH  21  22
HETATM   22  C3  UNL     1      21.443  -0.210  53.407  1.00  0.00    -0.003 C 
HETATM   23  C2  UNL     1      21.441  -0.990  54.468  1.00  0.00    -0.031 C 
HETATM   24  C1  UNL     1      22.611  -1.446  55.259  1.00  0.00     0.036 C 
ENDBRANCH  21  22
ENDBRANCH  18  20
ENDBRANCH   1  18
BRANCH   8  25
HETATM   25  N5  UNL     1      27.519   9.159  50.863  1.00  0.00     0.083 N 
HETATM   26  H15 UNL     1      28.048  10.068  50.917  1.00  0.00     0.313 HD
HETATM   27  H16 UNL     1      28.204   8.386  50.908  1.00  0.00     0.313 HD
ENDBRANCH   8  25
TORSDOF 4
ENDMDL
