MODEL 1
REMARK VINA RESULT:      -7.3      0.000      0.000
REMARK  7 active torsions:
REMARK  status: ('A' for Active; 'I' for Inactive)
REMARK    1  A    between atoms: C1_2  and  C2_3 
REMARK    2  A    between atoms: C2_3  and  C3_4 
REMARK    3  A    between atoms: C6_7  and  O1_8 
REMARK    4  A    between atoms: O1_8  and  C7_9 
REMARK    5  A    between atoms: C7_9  and  C8_10 
REMARK    6  A    between atoms: C8_10  and  C9_11 
REMARK    7  A    between atoms: C9_11  and  N1_12 
ROOT
HETATM    1  C3  UNL     1      23.567   0.574  53.417  1.00  0.00     0.057 A 
HETATM    2  C4  UNL     1      24.370   1.347  52.453  1.00  0.00    -0.037 A 
HETATM    3  C5  UNL     1      24.986   2.082  51.464  1.00  0.00     0.048 A 
HETATM    4  C6  UNL     1      26.303   2.381  51.614  1.00  0.00     0.105 A 
HETATM    5  C14 UNL     1      26.966   1.944  52.735  1.00  0.00     0.136 A 
HETATM    6  C15 UNL     1      26.332   1.198  53.737  1.00  0.00     0.112 A 
HETATM    7  C16 UNL     1      24.991   0.861  53.642  1.00  0.00    -0.006 A 
HETATM    8  O3  UNL     1      27.168   0.854  54.789  1.00  0.00    -0.345 OA
HETATM    9  C17 UNL     1      28.539   0.678  54.488  1.00  0.00     0.202 C 
HETATM   10  C18 UNL     1      29.019   2.066  54.037  1.00  0.00     0.202 C 
HETATM   11  O4  UNL     1      28.326   2.297  52.812  1.00  0.00    -0.344 OA
ENDROOT
BRANCH   4  12
HETATM   12  O1  UNL     1      26.940   3.107  50.649  1.00  0.00    -0.348 OA
BRANCH  12  13
HETATM   13  C7  UNL     1      26.462   3.457  49.394  1.00  0.00     0.177 C 
BRANCH  13  14
HETATM   14  C8  UNL     1      26.314   4.992  49.404  1.00  0.00     0.057 C 
BRANCH  14  15
HETATM   15  C9  UNL     1      24.854   5.301  49.524  1.00  0.00     0.274 C 
BRANCH  15  16
HETATM   16  N1  UNL     1      24.570   6.074  50.675  1.00  0.00     0.092 N 
HETATM   17  C10 UNL     1      23.531   5.457  51.506  1.00  0.00     0.298 C 
HETATM   18  C11 UNL     1      22.154   5.852  51.032  1.00  0.00     0.198 C 
HETATM   19  O2  UNL     1      22.028   7.216  51.078  1.00  0.00    -0.388 OA
HETATM   20  C12 UNL     1      22.917   7.811  50.183  1.00  0.00     0.198 C 
HETATM   21  C13 UNL     1      24.353   7.466  50.524  1.00  0.00     0.298 C 
ENDBRANCH  15  16
ENDBRANCH  14  15
ENDBRANCH  13  14
ENDBRANCH  12  13
ENDBRANCH   4  12
BRANCH   1  22
HETATM   22  C2  UNL     1      23.142  -0.817  53.076  1.00  0.00     0.029 C 
BRANCH  22  23
HETATM   23  C1  UNL     1      21.969  -1.230  53.909  1.00  0.00     0.115 C 
HETATM   24 CL1  UNL     1      21.172   0.140  54.674  1.00  0.00    -0.130 Cl
ENDBRANCH  22  23
ENDBRANCH   1  22
TORSDOF 7
ENDMDL
MODEL 2
REMARK VINA RESULT:      -7.1      2.655      3.560
REMARK  7 active torsions:
REMARK  status: ('A' for Active; 'I' for Inactive)
REMARK    1  A    between atoms: C1_2  and  C2_3 
REMARK    2  A    between atoms: C2_3  and  C3_4 
REMARK    3  A    between atoms: C6_7  and  O1_8 
REMARK    4  A    between atoms: O1_8  and  C7_9 
REMARK    5  A    between atoms: C7_9  and  C8_10 
REMARK    6  A    between atoms: C8_10  and  C9_11 
REMARK    7  A    between atoms: C9_11  and  N1_12 
ROOT
HETATM    1  C3  UNL     1      23.449   0.932  53.141  1.00  0.00     0.057 A 
HETATM    2  C4  UNL     1      24.294   1.660  52.179  1.00  0.00    -0.037 A 
HETATM    3  C5  UNL     1      24.951   2.356  51.187  1.00  0.00     0.048 A 
HETATM    4  C6  UNL     1      26.276   2.608  51.353  1.00  0.00     0.105 A 
HETATM    5  C14 UNL     1      26.906   2.166  52.491  1.00  0.00     0.136 A 
HETATM    6  C15 UNL     1      26.229   1.460  53.495  1.00  0.00     0.112 A 
HETATM    7  C16 UNL     1      24.879   1.171  53.384  1.00  0.00    -0.006 A 
HETATM    8  O3  UNL     1      27.036   1.103  54.565  1.00  0.00    -0.345 OA
HETATM    9  C17 UNL     1      28.405   0.872  54.289  1.00  0.00     0.202 C 
HETATM   10  C18 UNL     1      28.942   2.234  53.824  1.00  0.00     0.202 C 
HETATM   11  O4  UNL     1      28.276   2.470  52.585  1.00  0.00    -0.344 OA
ENDROOT
BRANCH   4  12
HETATM   12  O1  UNL     1      26.954   3.295  50.387  1.00  0.00    -0.348 OA
BRANCH  12  13
HETATM   13  C7  UNL     1      26.432   4.150  49.427  1.00  0.00     0.177 C 
BRANCH  13  14
HETATM   14  C8  UNL     1      27.643   4.741  48.675  1.00  0.00     0.057 C 
BRANCH  14  15
HETATM   15  C9  UNL     1      27.419   6.215  48.554  1.00  0.00     0.274 C 
BRANCH  15  16
HETATM   16  N1  UNL     1      28.240   6.794  47.555  1.00  0.00     0.092 N 
HETATM   17  C10 UNL     1      29.664   6.680  47.883  1.00  0.00     0.298 C 
HETATM   18  C11 UNL     1      30.111   7.823  48.762  1.00  0.00     0.198 C 
HETATM   19  O2  UNL     1      29.882   9.011  48.118  1.00  0.00    -0.388 OA
HETATM   20  C12 UNL     1      28.513   9.198  47.926  1.00  0.00     0.198 C 
HETATM   21  C13 UNL     1      27.920   8.089  47.079  1.00  0.00     0.298 C 
ENDBRANCH  15  16
ENDBRANCH  14  15
ENDBRANCH  13  14
ENDBRANCH  12  13
ENDBRANCH   4  12
BRANCH   1  22
HETATM   22  C2  UNL     1      22.978  -0.447  52.815  1.00  0.00     0.029 C 
BRANCH  22  23
HETATM   23  C1  UNL     1      22.094  -0.974  53.903  1.00  0.00     0.115 C 
HETATM   24 CL1  UNL     1      22.979  -1.304  55.388  1.00  0.00    -0.130 Cl
ENDBRANCH  22  23
ENDBRANCH   1  22
TORSDOF 7
ENDMDL
MODEL 3
REMARK VINA RESULT:      -6.9      2.932      4.730
REMARK  7 active torsions:
REMARK  status: ('A' for Active; 'I' for Inactive)
REMARK    1  A    between atoms: C1_2  and  C2_3 
REMARK    2  A    between atoms: C2_3  and  C3_4 
REMARK    3  A    between atoms: C6_7  and  O1_8 
REMARK    4  A    between atoms: O1_8  and  C7_9 
REMARK    5  A    between atoms: C7_9  and  C8_10 
REMARK    6  A    between atoms: C8_10  and  C9_11 
REMARK    7  A    between atoms: C9_11  and  N1_12 
ROOT
HETATM    1  C3  UNL     1      26.777  -0.388  53.400  1.00  0.00     0.057 A 
HETATM    2  C4  UNL     1      25.893   0.502  52.628  1.00  0.00    -0.037 A 
HETATM    3  C5  UNL     1      25.200   1.394  51.839  1.00  0.00     0.048 A 
HETATM    4  C6  UNL     1      23.844   1.405  51.924  1.00  0.00     0.105 A 
HETATM    5  C14 UNL     1      23.219   0.535  52.784  1.00  0.00     0.136 A 
HETATM    6  C15 UNL     1      23.931  -0.370  53.582  1.00  0.00     0.112 A 
HETATM    7  C16 UNL     1      25.315  -0.429  53.541  1.00  0.00    -0.006 A 
HETATM    8  O3  UNL     1      23.122  -1.165  54.380  1.00  0.00    -0.345 OA
HETATM    9  C17 UNL     1      21.893  -0.607  54.806  1.00  0.00     0.202 C 
HETATM   10  C18 UNL     1      21.092  -0.399  53.513  1.00  0.00     0.202 C 
HETATM   11  O4  UNL     1      21.814   0.611  52.810  1.00  0.00    -0.344 OA
ENDROOT
BRANCH   4  12
HETATM   12  O1  UNL     1      23.131   2.280  51.156  1.00  0.00    -0.348 OA
BRANCH  12  13
HETATM   13  C7  UNL     1      23.017   3.653  51.314  1.00  0.00     0.177 C 
BRANCH  13  14
HETATM   14  C8  UNL     1      23.064   4.255  49.894  1.00  0.00     0.057 C 
BRANCH  14  15
HETATM   15  C9  UNL     1      24.403   3.928  49.313  1.00  0.00     0.274 C 
BRANCH  15  16
HETATM   16  N1  UNL     1      25.457   4.544  50.030  1.00  0.00     0.092 N 
HETATM   17  C10 UNL     1      25.406   6.006  49.930  1.00  0.00     0.298 C 
HETATM   18  C11 UNL     1      26.114   6.488  48.687  1.00  0.00     0.198 C 
HETATM   19  O2  UNL     1      27.421   6.074  48.717  1.00  0.00    -0.388 OA
HETATM   20  C12 UNL     1      27.486   4.683  48.669  1.00  0.00     0.198 C 
HETATM   21  C13 UNL     1      26.776   4.058  49.853  1.00  0.00     0.298 C 
ENDBRANCH  15  16
ENDBRANCH  14  15
ENDBRANCH  13  14
ENDBRANCH  12  13
ENDBRANCH   4  12
BRANCH   1  22
HETATM   22  C2  UNL     1      27.608   0.174  54.507  1.00  0.00     0.029 C 
BRANCH  22  23
HETATM   23  C1  UNL     1      29.054  -0.157  54.303  1.00  0.00     0.115 C 
HETATM   24 CL1  UNL     1      29.280  -1.632  53.368  1.00  0.00    -0.130 Cl
ENDBRANCH  22  23
ENDBRANCH   1  22
TORSDOF 7
ENDMDL
MODEL 4
REMARK VINA RESULT:      -6.7      3.345      5.751
REMARK  7 active torsions:
REMARK  status: ('A' for Active; 'I' for Inactive)
REMARK    1  A    between atoms: C1_2  and  C2_3 
REMARK    2  A    between atoms: C2_3  and  C3_4 
REMARK    3  A    between atoms: C6_7  and  O1_8 
REMARK    4  A    between atoms: O1_8  and  C7_9 
REMARK    5  A    between atoms: C7_9  and  C8_10 
REMARK    6  A    between atoms: C8_10  and  C9_11 
REMARK    7  A    between atoms: C9_11  and  N1_12 
ROOT
HETATM    1  C3  UNL     1      25.550   3.323  49.976  1.00  0.00     0.057 A 
HETATM    2  C4  UNL     1      24.998   2.398  50.980  1.00  0.00    -0.037 A 
HETATM    3  C5  UNL     1      24.341   1.543  51.839  1.00  0.00     0.048 A 
HETATM    4  C6  UNL     1      25.041   1.017  52.878  1.00  0.00     0.105 A 
HETATM    5  C14 UNL     1      26.364   1.352  53.034  1.00  0.00     0.136 A 
HETATM    6  C15 UNL     1      27.024   2.222  52.155  1.00  0.00     0.112 A 
HETATM    7  C16 UNL     1      26.365   2.791  51.077  1.00  0.00    -0.006 A 
HETATM    8  O3  UNL     1      28.356   2.434  52.478  1.00  0.00    -0.345 OA
HETATM    9  C17 UNL     1      28.706   2.355  53.847  1.00  0.00     0.202 C 
HETATM   10  C18 UNL     1      28.432   0.895  54.234  1.00  0.00     0.202 C 
HETATM   11  O4  UNL     1      27.015   0.764  54.133  1.00  0.00    -0.344 OA
ENDROOT
BRANCH   4  12
HETATM   12  O1  UNL     1      24.417   0.168  53.746  1.00  0.00    -0.348 OA
BRANCH  12  13
HETATM   13  C7  UNL     1      23.467  -0.800  53.452  1.00  0.00     0.177 C 
BRANCH  13  14
HETATM   14  C8  UNL     1      22.212  -0.431  54.271  1.00  0.00     0.057 C 
BRANCH  14  15
HETATM   15  C9  UNL     1      21.017  -0.762  53.433  1.00  0.00     0.274 C 
BRANCH  15  16
HETATM   16  N1  UNL     1      20.096   0.311  53.378  1.00  0.00     0.092 N 
HETATM   17  C10 UNL     1      18.891  -0.039  52.619  1.00  0.00     0.298 C 
HETATM   18  C11 UNL     1      19.094   0.200  51.142  1.00  0.00     0.198 C 
HETATM   19  O2  UNL     1      19.403   1.519  50.932  1.00  0.00    -0.388 OA
HETATM   20  C12 UNL     1      20.622   1.829  51.532  1.00  0.00     0.198 C 
HETATM   21  C13 UNL     1      20.571   1.599  53.030  1.00  0.00     0.298 C 
ENDBRANCH  15  16
ENDBRANCH  14  15
ENDBRANCH  13  14
ENDBRANCH  12  13
ENDBRANCH   4  12
BRANCH   1  22
HETATM   22  C2  UNL     1      25.141   4.760  49.991  1.00  0.00     0.029 C 
BRANCH  22  23
HETATM   23  C1  UNL     1      26.176   5.611  49.325  1.00  0.00     0.115 C 
HETATM   24 CL1  UNL     1      27.489   4.660  48.640  1.00  0.00    -0.130 Cl
ENDBRANCH  22  23
ENDBRANCH   1  22
TORSDOF 7
ENDMDL
MODEL 5
REMARK VINA RESULT:      -6.4      3.488      5.069
REMARK  7 active torsions:
REMARK  status: ('A' for Active; 'I' for Inactive)
REMARK    1  A    between atoms: C1_2  and  C2_3 
REMARK    2  A    between atoms: C2_3  and  C3_4 
REMARK    3  A    between atoms: C6_7  and  O1_8 
REMARK    4  A    between atoms: O1_8  and  C7_9 
REMARK    5  A    between atoms: C7_9  and  C8_10 
REMARK    6  A    between atoms: C8_10  and  C9_11 
REMARK    7  A    between atoms: C9_11  and  N1_12 
ROOT
HETATM    1  C3  UNL     1      26.688  -0.291  52.770  1.00  0.00     0.057 A 
HETATM    2  C4  UNL     1      25.756   0.804  52.452  1.00  0.00    -0.037 A 
HETATM    3  C5  UNL     1      25.009   1.902  52.084  1.00  0.00     0.048 A 
HETATM    4  C6  UNL     1      23.690   1.919  52.412  1.00  0.00     0.105 A 
HETATM    5  C14 UNL     1      23.155   0.851  53.091  1.00  0.00     0.136 A 
HETATM    6  C15 UNL     1      23.922  -0.262  53.461  1.00  0.00     0.112 A 
HETATM    7  C16 UNL     1      25.272  -0.338  53.156  1.00  0.00    -0.006 A 
HETATM    8  O3  UNL     1      23.201  -1.235  54.136  1.00  0.00    -0.345 OA
HETATM    9  C17 UNL     1      22.104  -0.797  54.916  1.00  0.00     0.202 C 
HETATM   10  C18 UNL     1      21.116  -0.205  53.900  1.00  0.00     0.202 C 
HETATM   11  O4  UNL     1      21.784   0.948  53.391  1.00  0.00    -0.344 OA
ENDROOT
BRANCH   4  12
HETATM   12  O1  UNL     1      22.925   2.994  52.062  1.00  0.00    -0.348 OA
BRANCH  12  13
HETATM   13  C7  UNL     1      23.347   4.291  51.811  1.00  0.00     0.177 C 
BRANCH  13  14
HETATM   14  C8  UNL     1      22.325   4.892  50.823  1.00  0.00     0.057 C 
BRANCH  14  15
HETATM   15  C9  UNL     1      21.072   4.083  50.927  1.00  0.00     0.274 C 
BRANCH  15  16
HETATM   16  N1  UNL     1      20.633   3.622  49.662  1.00  0.00     0.092 N 
HETATM   17  C10 UNL     1      19.723   2.478  49.781  1.00  0.00     0.298 C 
HETATM   18  C11 UNL     1      20.491   1.182  49.868  1.00  0.00     0.198 C 
HETATM   19  O2  UNL     1      21.268   1.036  48.748  1.00  0.00    -0.388 OA
HETATM   20  C12 UNL     1      22.233   2.040  48.699  1.00  0.00     0.198 C 
HETATM   21  C13 UNL     1      21.595   3.414  48.643  1.00  0.00     0.298 C 
ENDBRANCH  15  16
ENDBRANCH  14  15
ENDBRANCH  13  14
ENDBRANCH  12  13
ENDBRANCH   4  12
BRANCH   1  22
HETATM   22  C2  UNL     1      27.731  -0.091  53.821  1.00  0.00     0.029 C 
BRANCH  22  23
HETATM   23  C1  UNL     1      29.020  -0.735  53.415  1.00  0.00     0.115 C 
HETATM   24 CL1  UNL     1      28.846  -2.463  53.124  1.00  0.00    -0.130 Cl
ENDBRANCH  22  23
ENDBRANCH   1  22
TORSDOF 7
ENDMDL
MODEL 6
REMARK VINA RESULT:      -6.3      3.594      7.965
REMARK  7 active torsions:
REMARK  status: ('A' for Active; 'I' for Inactive)
REMARK    1  A    between atoms: C1_2  and  C2_3 
REMARK    2  A    between atoms: C2_3  and  C3_4 
REMARK    3  A    between atoms: C6_7  and  O1_8 
REMARK    4  A    between atoms: O1_8  and  C7_9 
REMARK    5  A    between atoms: C7_9  and  C8_10 
REMARK    6  A    between atoms: C8_10  and  C9_11 
REMARK    7  A    between atoms: C9_11  and  N1_12 
ROOT
HETATM    1  C3  UNL     1      26.691   7.400  48.544  1.00  0.00     0.057 A 
HETATM    2  C4  UNL     1      26.609   5.986  48.948  1.00  0.00    -0.037 A 
HETATM    3  C5  UNL     1      26.666   4.640  49.239  1.00  0.00     0.048 A 
HETATM    4  C6  UNL     1      25.707   4.118  50.047  1.00  0.00     0.105 A 
HETATM    5  C14 UNL     1      24.724   4.942  50.540  1.00  0.00     0.136 A 
HETATM    6  C15 UNL     1      24.674   6.310  50.241  1.00  0.00     0.112 A 
HETATM    7  C16 UNL     1      25.624   6.901  49.422  1.00  0.00    -0.006 A 
HETATM    8  O3  UNL     1      23.611   6.972  50.836  1.00  0.00    -0.345 OA
HETATM    9  C17 UNL     1      22.435   6.219  51.068  1.00  0.00     0.202 C 
HETATM   10  C18 UNL     1      22.854   5.147  52.085  1.00  0.00     0.202 C 
HETATM   11  O4  UNL     1      23.771   4.322  51.368  1.00  0.00    -0.344 OA
ENDROOT
BRANCH   4  12
HETATM   12  O1  UNL     1      25.737   2.787  50.351  1.00  0.00    -0.348 OA
BRANCH  12  13
HETATM   13  C7  UNL     1      26.663   2.116  51.136  1.00  0.00     0.177 C 
BRANCH  13  14
HETATM   14  C8  UNL     1      26.034   2.002  52.540  1.00  0.00     0.057 C 
BRANCH  14  15
HETATM   15  C9  UNL     1      27.151   1.828  53.519  1.00  0.00     0.274 C 
BRANCH  15  16
HETATM   16  N1  UNL     1      27.014   0.638  54.273  1.00  0.00     0.092 N 
HETATM   17  C10 UNL     1      28.295   0.189  54.827  1.00  0.00     0.298 C 
HETATM   18  C11 UNL     1      29.049  -0.657  53.829  1.00  0.00     0.198 C 
HETATM   19  O2  UNL     1      28.290  -1.746  53.488  1.00  0.00    -0.388 OA
HETATM   20  C12 UNL     1      27.130  -1.336  52.831  1.00  0.00     0.198 C 
HETATM   21  C13 UNL     1      26.285  -0.441  53.715  1.00  0.00     0.298 C 
ENDBRANCH  15  16
ENDBRANCH  14  15
ENDBRANCH  13  14
ENDBRANCH  12  13
ENDBRANCH   4  12
BRANCH   1  22
HETATM   22  C2  UNL     1      26.367   7.787  47.138  1.00  0.00     0.029 C 
BRANCH  22  23
HETATM   23  C1  UNL     1      26.406   9.274  46.977  1.00  0.00     0.115 C 
HETATM   24 CL1  UNL     1      26.925  10.096  48.444  1.00  0.00    -0.130 Cl
ENDBRANCH  22  23
ENDBRANCH   1  22
TORSDOF 7
ENDMDL
MODEL 7
REMARK VINA RESULT:      -6.2      3.776      5.997
REMARK  7 active torsions:
REMARK  status: ('A' for Active; 'I' for Inactive)
REMARK    1  A    between atoms: C1_2  and  C2_3 
REMARK    2  A    between atoms: C2_3  and  C3_4 
REMARK    3  A    between atoms: C6_7  and  O1_8 
REMARK    4  A    between atoms: O1_8  and  C7_9 
REMARK    5  A    between atoms: C7_9  and  C8_10 
REMARK    6  A    between atoms: C8_10  and  C9_11 
REMARK    7  A    between atoms: C9_11  and  N1_12 
ROOT
HETATM    1  C3  UNL     1      26.541   1.374  51.686  1.00  0.00     0.057 A 
HETATM    2  C4  UNL     1      26.544   2.500  50.737  1.00  0.00    -0.037 A 
HETATM    3  C5  UNL     1      26.686   3.493  49.792  1.00  0.00     0.048 A 
HETATM    4  C6  UNL     1      25.726   4.452  49.722  1.00  0.00     0.105 A 
HETATM    5  C14 UNL     1      24.660   4.398  50.587  1.00  0.00     0.136 A 
HETATM    6  C15 UNL     1      24.523   3.384  51.544  1.00  0.00     0.112 A 
HETATM    7  C16 UNL     1      25.469   2.378  51.665  1.00  0.00    -0.006 A 
HETATM    8  O3  UNL     1      23.379   3.501  52.319  1.00  0.00    -0.345 OA
HETATM    9  C17 UNL     1      22.889   4.808  52.548  1.00  0.00     0.202 C 
HETATM   10  C18 UNL     1      22.480   5.319  51.158  1.00  0.00     0.202 C 
HETATM   11  O4  UNL     1      23.712   5.428  50.447  1.00  0.00    -0.344 OA
ENDROOT
BRANCH   4  12
HETATM   12  O1  UNL     1      25.840   5.449  48.797  1.00  0.00    -0.348 OA
BRANCH  12  13
HETATM   13  C7  UNL     1      26.623   6.593  48.871  1.00  0.00     0.177 C 
BRANCH  13  14
HETATM   14  C8  UNL     1      27.955   6.247  48.173  1.00  0.00     0.057 C 
BRANCH  14  15
HETATM   15  C9  UNL     1      28.896   7.386  48.413  1.00  0.00     0.274 C 
BRANCH  15  16
HETATM   16  N1  UNL     1      30.132   7.200  47.748  1.00  0.00     0.092 N 
HETATM   17  C10 UNL     1      30.737   5.904  48.070  1.00  0.00     0.298 C 
HETATM   18  C11 UNL     1      31.553   5.988  49.337  1.00  0.00     0.198 C 
HETATM   19  O2  UNL     1      32.538   6.930  49.185  1.00  0.00    -0.388 OA
HETATM   20  C12 UNL     1      31.973   8.193  49.019  1.00  0.00     0.198 C 
HETATM   21  C13 UNL     1      31.089   8.243  47.788  1.00  0.00     0.298 C 
ENDBRANCH  15  16
ENDBRANCH  14  15
ENDBRANCH  13  14
ENDBRANCH  12  13
ENDBRANCH   4  12
BRANCH   1  22
HETATM   22  C2  UNL     1      27.514   1.359  52.819  1.00  0.00     0.029 C 
BRANCH  22  23
HETATM   23  C1  UNL     1      27.810  -0.045  53.244  1.00  0.00     0.115 C 
HETATM   24 CL1  UNL     1      28.733  -0.114  54.742  1.00  0.00    -0.130 Cl
ENDBRANCH  22  23
ENDBRANCH   1  22
TORSDOF 7
ENDMDL
MODEL 8
REMARK VINA RESULT:      -6.1      3.732      6.815
REMARK  7 active torsions:
REMARK  status: ('A' for Active; 'I' for Inactive)
REMARK    1  A    between atoms: C1_2  and  C2_3 
REMARK    2  A    between atoms: C2_3  and  C3_4 
REMARK    3  A    between atoms: C6_7  and  O1_8 
REMARK    4  A    between atoms: O1_8  and  C7_9 
REMARK    5  A    between atoms: C7_9  and  C8_10 
REMARK    6  A    between atoms: C8_10  and  C9_11 
REMARK    7  A    between atoms: C9_11  and  N1_12 
ROOT
HETATM    1  C3  UNL     1      26.039   5.398  48.899  1.00  0.00     0.057 A 
HETATM    2  C4  UNL     1      24.900   4.564  49.320  1.00  0.00    -0.037 A 
HETATM    3  C5  UNL     1      23.744   3.878  49.621  1.00  0.00     0.048 A 
HETATM    4  C6  UNL     1      23.828   2.822  50.471  1.00  0.00     0.105 A 
HETATM    5  C14 UNL     1      25.051   2.479  50.995  1.00  0.00     0.136 A 
HETATM    6  C15 UNL     1      26.222   3.182  50.684  1.00  0.00     0.112 A 
HETATM    7  C16 UNL     1      26.201   4.268  49.824  1.00  0.00    -0.006 A 
HETATM    8  O3  UNL     1      27.355   2.681  51.309  1.00  0.00    -0.345 OA
HETATM    9  C17 UNL     1      27.172   2.063  52.569  1.00  0.00     0.202 C 
HETATM   10  C18 UNL     1      26.304   0.831  52.276  1.00  0.00     0.202 C 
HETATM   11  O4  UNL     1      25.050   1.374  51.866  1.00  0.00    -0.344 OA
ENDROOT
BRANCH   4  12
HETATM   12  O1  UNL     1      22.698   2.124  50.788  1.00  0.00    -0.348 OA
BRANCH  12  13
HETATM   13  C7  UNL     1      21.562   1.947  50.011  1.00  0.00     0.177 C 
BRANCH  13  14
HETATM   14  C8  UNL     1      20.830   0.720  50.593  1.00  0.00     0.057 C 
BRANCH  14  15
HETATM   15  C9  UNL     1      21.706   0.139  51.658  1.00  0.00     0.274 C 
BRANCH  15  16
HETATM   16  N1  UNL     1      21.200   0.393  52.955  1.00  0.00     0.092 N 
HETATM   17  C10 UNL     1      22.239   0.269  53.982  1.00  0.00     0.298 C 
HETATM   18  C11 UNL     1      22.384  -1.163  54.436  1.00  0.00     0.198 C 
HETATM   19  O2  UNL     1      21.188  -1.606  54.938  1.00  0.00    -0.388 OA
HETATM   20  C12 UNL     1      20.223  -1.627  53.931  1.00  0.00     0.198 C 
HETATM   21  C13 UNL     1      19.999  -0.243  53.355  1.00  0.00     0.298 C 
ENDBRANCH  15  16
ENDBRANCH  14  15
ENDBRANCH  13  14
ENDBRANCH  12  13
ENDBRANCH   4  12
BRANCH   1  22
HETATM   22  C2  UNL     1      26.163   6.794  49.413  1.00  0.00     0.029 C 
BRANCH  22  23
HETATM   23  C1  UNL     1      27.058   7.606  48.530  1.00  0.00     0.115 C 
HETATM   24 CL1  UNL     1      28.014   8.776  49.434  1.00  0.00    -0.130 Cl
ENDBRANCH  22  23
ENDBRANCH   1  22
TORSDOF 7
ENDMDL
MODEL 9
REMARK VINA RESULT:      -6.1      4.283      8.285
REMARK  7 active torsions:
REMARK  status: ('A' for Active; 'I' for Inactive)
REMARK    1  A    between atoms: C1_2  and  C2_3 
REMARK    2  A    between atoms: C2_3  and  C3_4 
REMARK    3  A    between atoms: C6_7  and  O1_8 
REMARK    4  A    between atoms: O1_8  and  C7_9 
REMARK    5  A    between atoms: C7_9  and  C8_10 
REMARK    6  A    between atoms: C8_10  and  C9_11 
REMARK    7  A    between atoms: C9_11  and  N1_12 
ROOT
HETATM    1  C3  UNL     1      25.703   8.305  47.528  1.00  0.00     0.057 A 
HETATM    2  C4  UNL     1      25.941   6.991  48.149  1.00  0.00    -0.037 A 
HETATM    3  C5  UNL     1      26.005   5.757  48.759  1.00  0.00     0.048 A 
HETATM    4  C6  UNL     1      27.217   5.150  48.852  1.00  0.00     0.105 A 
HETATM    5  C14 UNL     1      28.324   5.782  48.339  1.00  0.00     0.136 A 
HETATM    6  C15 UNL     1      28.250   7.037  47.720  1.00  0.00     0.112 A 
HETATM    7  C16 UNL     1      27.043   7.707  47.595  1.00  0.00    -0.006 A 
HETATM    8  O3  UNL     1      29.473   7.507  47.265  1.00  0.00    -0.345 OA
HETATM    9  C17 UNL     1      30.624   7.099  47.981  1.00  0.00     0.202 C 
HETATM   10  C18 UNL     1      30.685   5.577  47.784  1.00  0.00     0.202 C 
HETATM   11  O4  UNL     1      29.539   5.086  48.476  1.00  0.00    -0.344 OA
ENDROOT
BRANCH   4  12
HETATM   12  O1  UNL     1      27.311   3.928  49.452  1.00  0.00    -0.348 OA
BRANCH  12  13
HETATM   13  C7  UNL     1      26.300   3.000  49.653  1.00  0.00     0.177 C 
BRANCH  13  14
HETATM   14  C8  UNL     1      26.004   3.008  51.168  1.00  0.00     0.057 C 
BRANCH  14  15
HETATM   15  C9  UNL     1      26.953   2.050  51.815  1.00  0.00     0.274 C 
BRANCH  15  16
HETATM   16  N1  UNL     1      26.278   1.097  52.616  1.00  0.00     0.092 N 
HETATM   17  C10 UNL     1      26.532   1.304  54.045  1.00  0.00     0.298 C 
HETATM   18  C11 UNL     1      27.801   0.608  54.475  1.00  0.00     0.198 C 
HETATM   19  O2  UNL     1      27.696  -0.734  54.217  1.00  0.00    -0.388 OA
HETATM   20  C12 UNL     1      27.597  -0.952  52.844  1.00  0.00     0.198 C 
HETATM   21  C13 UNL     1      26.371  -0.273  52.267  1.00  0.00     0.298 C 
ENDBRANCH  15  16
ENDBRANCH  14  15
ENDBRANCH  13  14
ENDBRANCH  12  13
ENDBRANCH   4  12
BRANCH   1  22
HETATM   22  C2  UNL     1      25.378   9.481  48.389  1.00  0.00     0.029 C 
BRANCH  22  23
HETATM   23  C1  UNL     1      26.307  10.620  48.102  1.00  0.00     0.115 C 
HETATM   24 CL1  UNL     1      26.298  11.082  46.403  1.00  0.00    -0.130 Cl
ENDBRANCH  22  23
ENDBRANCH   1  22
TORSDOF 7
ENDMDL
