MODEL 1
REMARK VINA RESULT:      -9.3      0.000      0.000
REMARK  3 active torsions:
REMARK  status: ('A' for Active; 'I' for Inactive)
REMARK    1  A    between atoms: C2_2  and  C3_3 
REMARK    2  A    between atoms: C3_3  and  C5_5 
REMARK       I    between atoms: C5_5  and  N1_7 
REMARK    3  A    between atoms: C15_20  and  C16_21 
REMARK       I    between atoms: C16_21  and  N5_22 
ROOT
HETATM    1  C5  UNL     1      19.701   3.797  48.745  1.00  0.00     0.249 C 
HETATM    2  O1  UNL     1      18.883   3.145  48.089  1.00  0.00    -0.268 OA
HETATM    3  N1  UNL     1      20.427   2.918  49.593  1.00  0.00    -0.348 N 
HETATM    4  C6  UNL     1      20.164   1.522  49.597  1.00  0.00     0.127 C 
HETATM    5  C7  UNL     1      19.346   0.832  50.573  1.00  0.00     0.040 C 
HETATM    6  C8  UNL     1      19.642   0.657  51.993  1.00  0.00     0.140 C 
HETATM    7  N2  UNL     1      20.837  -0.007  52.426  1.00  0.00    -0.222 N 
HETATM    8  C9  UNL     1      22.195   0.306  52.489  1.00  0.00     0.723 A 
HETATM    9  N3  UNL     1      22.357   1.122  51.519  1.00  0.00    -0.067 NA
HETATM   10  C10 UNL     1      23.491   1.741  51.202  1.00  0.00     0.064 A 
HETATM   11  C11 UNL     1      24.580   1.503  51.950  1.00  0.00    -0.001 A 
HETATM   12  C12 UNL     1      24.437   0.629  52.996  1.00  0.00     0.113 A 
HETATM   13  N4  UNL     1      23.236   0.024  53.269  1.00  0.00    -0.060 NA
HETATM   14  C13 UNL     1      25.648   0.440  53.750  1.00  0.00     0.091 A 
HETATM   15  C14 UNL     1      26.723   1.167  53.286  1.00  0.00     0.009 A 
HETATM   16  C15 UNL     1      27.699   0.777  54.203  1.00  0.00     0.153 A 
HETATM   17  N6  UNL     1      27.153  -0.097  55.083  1.00  0.00    -0.166 NA
HETATM   18  N7  UNL     1      25.881  -0.319  54.819  1.00  0.00    -0.271 N 
HETATM   19  C17 UNL     1      24.924  -1.169  55.488  1.00  0.00     0.180 C 
HETATM   20  C18 UNL     1      26.885   2.108  52.155  1.00  0.00     0.048 A 
HETATM   21  C19 UNL     1      25.625   2.319  51.356  1.00  0.00     0.048 A 
HETATM   22  C20 UNL     1      22.839   2.449  50.066  1.00  0.00     0.080 C 
HETATM   23  C21 UNL     1      21.467   2.901  50.520  1.00  0.00     0.132 C 
HETATM   24  H12 UNL     1      20.849  -0.993  52.822  1.00  0.00     0.177 HD
ENDROOT
BRANCH   1  25
HETATM   25  C3  UNL     1      19.778   5.225  48.559  1.00  0.00     0.005 C 
HETATM   26  C4  UNL     1      20.749   5.754  47.845  1.00  0.00     0.025 C 
BRANCH  25  27
HETATM   27  C2  UNL     1      19.270   6.542  48.783  1.00  0.00     0.050 C 
HETATM   28  C1  UNL     1      19.457   7.838  48.845  1.00  0.00    -0.007 C 
ENDBRANCH  25  27
ENDBRANCH   1  25
BRANCH  16  29
HETATM   29  C16 UNL     1      29.099   1.226  54.232  1.00  0.00     0.270 C 
HETATM   30  N5  UNL     1      30.076   0.565  53.452  1.00  0.00    -0.365 N 
HETATM   31  H13 UNL     1      30.622   0.677  52.574  1.00  0.00     0.159 HD
HETATM   32  H14 UNL     1      30.510  -0.351  53.682  1.00  0.00     0.159 HD
HETATM   33  O2  UNL     1      29.436   2.190  54.943  1.00  0.00    -0.266 OA
ENDBRANCH  16  29
TORSDOF 3
ENDMDL
MODEL 2
REMARK VINA RESULT:      -9.2      2.569      5.106
REMARK  3 active torsions:
REMARK  status: ('A' for Active; 'I' for Inactive)
REMARK    1  A    between atoms: C2_2  and  C3_3 
REMARK    2  A    between atoms: C3_3  and  C5_5 
REMARK       I    between atoms: C5_5  and  N1_7 
REMARK    3  A    between atoms: C15_20  and  C16_21 
REMARK       I    between atoms: C16_21  and  N5_22 
ROOT
HETATM    1  C5  UNL     1      17.241  -0.546  52.419  1.00  0.00     0.249 C 
HETATM    2  O1  UNL     1      16.332   0.287  52.341  1.00  0.00    -0.268 OA
HETATM    3  N1  UNL     1      18.485   0.096  52.172  1.00  0.00    -0.348 N 
HETATM    4  C6  UNL     1      18.547   1.487  51.891  1.00  0.00     0.127 C 
HETATM    5  C7  UNL     1      18.662   2.064  50.568  1.00  0.00     0.040 C 
HETATM    6  C8  UNL     1      19.805   1.953  49.664  1.00  0.00     0.140 C 
HETATM    7  N2  UNL     1      21.106   2.416  50.052  1.00  0.00    -0.222 N 
HETATM    8  C9  UNL     1      22.118   1.971  50.902  1.00  0.00     0.723 A 
HETATM    9  N3  UNL     1      21.485   1.331  51.808  1.00  0.00    -0.067 NA
HETATM   10  C10 UNL     1      22.034   0.676  52.828  1.00  0.00     0.064 A 
HETATM   11  C11 UNL     1      23.372   0.674  52.941  1.00  0.00    -0.001 A 
HETATM   12  C12 UNL     1      24.077   1.356  51.984  1.00  0.00     0.113 A 
HETATM   13  N4  UNL     1      23.448   2.011  50.957  1.00  0.00    -0.060 NA
HETATM   14  C13 UNL     1      25.503   1.293  52.175  1.00  0.00     0.091 A 
HETATM   15  C14 UNL     1      25.894   0.565  53.278  1.00  0.00     0.009 A 
HETATM   16  C15 UNL     1      27.280   0.692  53.177  1.00  0.00     0.153 A 
HETATM   17  N6  UNL     1      27.576   1.441  52.088  1.00  0.00    -0.166 NA
HETATM   18  N7  UNL     1      26.487   1.823  51.453  1.00  0.00    -0.271 N 
HETATM   19  C17 UNL     1      26.335   2.625  50.261  1.00  0.00     0.180 C 
HETATM   20  C18 UNL     1      25.137  -0.170  54.316  1.00  0.00     0.048 A 
HETATM   21  C19 UNL     1      23.643  -0.116  54.129  1.00  0.00     0.048 A 
HETATM   22  C20 UNL     1      20.699   0.247  53.329  1.00  0.00     0.080 C 
HETATM   23  C21 UNL     1      19.856  -0.150  52.135  1.00  0.00     0.132 C 
HETATM   24  H12 UNL     1      21.545   3.309  49.681  1.00  0.00     0.177 HD
ENDROOT
BRANCH   1  25
HETATM   25  C3  UNL     1      16.918  -1.918  52.722  1.00  0.00     0.005 C 
HETATM   26  C4  UNL     1      15.772  -2.437  52.335  1.00  0.00     0.025 C 
BRANCH  25  27
HETATM   27  C2  UNL     1      17.253  -3.178  53.309  1.00  0.00     0.050 C 
HETATM   28  C1  UNL     1      16.998  -4.451  53.492  1.00  0.00    -0.007 C 
ENDBRANCH  25  27
ENDBRANCH   1  25
BRANCH  16  29
HETATM   29  C16 UNL     1      28.278   0.117  54.091  1.00  0.00     0.270 C 
HETATM   30  N5  UNL     1      28.807  -1.172  53.849  1.00  0.00    -0.365 N 
HETATM   31  H13 UNL     1      29.661  -1.642  53.484  1.00  0.00     0.159 HD
HETATM   32  H14 UNL     1      28.317  -2.068  54.041  1.00  0.00     0.159 HD
HETATM   33  O2  UNL     1      28.667   0.759  55.084  1.00  0.00    -0.266 OA
ENDBRANCH  16  29
TORSDOF 3
ENDMDL
MODEL 3
REMARK VINA RESULT:      -8.7      3.650      6.378
REMARK  3 active torsions:
REMARK  status: ('A' for Active; 'I' for Inactive)
REMARK    1  A    between atoms: C2_2  and  C3_3 
REMARK    2  A    between atoms: C3_3  and  C5_5 
REMARK       I    between atoms: C5_5  and  N1_7 
REMARK    3  A    between atoms: C15_20  and  C16_21 
REMARK       I    between atoms: C16_21  and  N5_22 
ROOT
HETATM    1  C5  UNL     1      15.222  -2.033  52.364  1.00  0.00     0.249 C 
HETATM    2  O1  UNL     1      14.209  -1.327  52.378  1.00  0.00    -0.268 OA
HETATM    3  N1  UNL     1      16.364  -1.206  52.181  1.00  0.00    -0.348 N 
HETATM    4  C6  UNL     1      16.233   0.202  52.047  1.00  0.00     0.127 C 
HETATM    5  C7  UNL     1      16.245   0.924  50.791  1.00  0.00     0.040 C 
HETATM    6  C8  UNL     1      17.375   1.063  49.876  1.00  0.00     0.140 C 
HETATM    7  N2  UNL     1      18.609   1.655  50.304  1.00  0.00    -0.222 N 
HETATM    8  C9  UNL     1      19.688   1.266  51.098  1.00  0.00     0.723 A 
HETATM    9  N3  UNL     1      19.164   0.455  51.934  1.00  0.00    -0.067 NA
HETATM   10  C10 UNL     1      19.815  -0.221  52.877  1.00  0.00     0.064 A 
HETATM   11  C11 UNL     1      21.142  -0.054  52.983  1.00  0.00    -0.001 A 
HETATM   12  C12 UNL     1      21.732   0.813  52.100  1.00  0.00     0.113 A 
HETATM   13  N4  UNL     1      21.001   1.479  51.150  1.00  0.00    -0.060 NA
HETATM   14  C13 UNL     1      23.156   0.924  52.276  1.00  0.00     0.091 A 
HETATM   15  C14 UNL     1      23.663   0.145  53.294  1.00  0.00     0.009 A 
HETATM   16  C15 UNL     1      25.016   0.469  53.201  1.00  0.00     0.153 A 
HETATM   17  N6  UNL     1      25.189   1.360  52.195  1.00  0.00    -0.166 NA
HETATM   18  N7  UNL     1      24.046   1.655  51.609  1.00  0.00    -0.271 N 
HETATM   19  C17 UNL     1      23.765   2.548  50.508  1.00  0.00     0.180 C 
HETATM   20  C18 UNL     1      23.031  -0.788  54.252  1.00  0.00     0.048 A 
HETATM   21  C19 UNL     1      21.540  -0.919  54.080  1.00  0.00     0.048 A 
HETATM   22  C20 UNL     1      18.559  -0.877  53.336  1.00  0.00     0.080 C 
HETATM   23  C21 UNL     1      17.754  -1.259  52.111  1.00  0.00     0.132 C 
HETATM   24  H12 UNL     1      18.917   2.633  50.027  1.00  0.00     0.177 HD
ENDROOT
BRANCH   1  25
HETATM   25  C3  UNL     1      15.092  -3.460  52.523  1.00  0.00     0.005 C 
HETATM   26  C4  UNL     1      14.709  -4.213  51.514  1.00  0.00     0.025 C 
BRANCH  25  27
HETATM   27  C2  UNL     1      15.181  -4.638  53.327  1.00  0.00     0.050 C 
HETATM   28  C1  UNL     1      15.890  -5.473  54.049  1.00  0.00    -0.007 C 
ENDBRANCH  25  27
ENDBRANCH   1  25
BRANCH  16  29
HETATM   29  C16 UNL     1      26.100  -0.057  54.044  1.00  0.00     0.270 C 
HETATM   30  N5  UNL     1      26.711   0.767  55.017  1.00  0.00    -0.365 N 
HETATM   31  H13 UNL     1      26.723   0.937  56.043  1.00  0.00     0.159 HD
HETATM   32  H14 UNL     1      27.412   1.510  54.820  1.00  0.00     0.159 HD
HETATM   33  O2  UNL     1      26.488  -1.232  53.910  1.00  0.00    -0.266 OA
ENDBRANCH  16  29
TORSDOF 3
ENDMDL
MODEL 4
REMARK VINA RESULT:      -8.6      4.298      5.343
REMARK  3 active torsions:
REMARK  status: ('A' for Active; 'I' for Inactive)
REMARK    1  A    between atoms: C2_2  and  C3_3 
REMARK    2  A    between atoms: C3_3  and  C5_5 
REMARK       I    between atoms: C5_5  and  N1_7 
REMARK    3  A    between atoms: C15_20  and  C16_21 
REMARK       I    between atoms: C16_21  and  N5_22 
ROOT
HETATM    1  C5  UNL     1      25.251   8.961  48.882  1.00  0.00     0.249 C 
HETATM    2  O1  UNL     1      24.478   9.447  48.051  1.00  0.00    -0.268 OA
HETATM    3  N1  UNL     1      24.703   7.744  49.373  1.00  0.00    -0.348 N 
HETATM    4  C6  UNL     1      23.452   7.264  48.904  1.00  0.00     0.127 C 
HETATM    5  C7  UNL     1      22.189   7.421  49.594  1.00  0.00     0.040 C 
HETATM    6  C8  UNL     1      21.808   6.812  50.867  1.00  0.00     0.140 C 
HETATM    7  N2  UNL     1      21.801   5.388  51.036  1.00  0.00    -0.222 N 
HETATM    8  C9  UNL     1      22.762   4.389  51.189  1.00  0.00     0.723 A 
HETATM    9  N3  UNL     1      23.771   4.848  50.554  1.00  0.00    -0.067 NA
HETATM   10  C10 UNL     1      24.961   4.262  50.456  1.00  0.00     0.064 A 
HETATM   11  C11 UNL     1      25.147   3.082  51.068  1.00  0.00    -0.001 A 
HETATM   12  C12 UNL     1      24.080   2.564  51.755  1.00  0.00     0.113 A 
HETATM   13  N4  UNL     1      22.877   3.221  51.817  1.00  0.00    -0.060 NA
HETATM   14  C13 UNL     1      24.369   1.304  52.388  1.00  0.00     0.091 A 
HETATM   15  C14 UNL     1      25.655   0.852  52.189  1.00  0.00     0.009 A 
HETATM   16  C15 UNL     1      25.610  -0.342  52.909  1.00  0.00     0.153 A 
HETATM   17  N6  UNL     1      24.375  -0.489  53.444  1.00  0.00    -0.166 NA
HETATM   18  N7  UNL     1      23.589   0.522  53.132  1.00  0.00    -0.271 N 
HETATM   19  C17 UNL     1      22.210   0.775  53.481  1.00  0.00     0.180 C 
HETATM   20  C18 UNL     1      26.809   1.404  51.445  1.00  0.00     0.048 A 
HETATM   21  C19 UNL     1      26.524   2.725  50.778  1.00  0.00     0.048 A 
HETATM   22  C20 UNL     1      25.494   5.385  49.635  1.00  0.00     0.080 C 
HETATM   23  C21 UNL     1      24.987   6.682  50.229  1.00  0.00     0.132 C 
HETATM   24  H12 UNL     1      20.912   4.807  51.073  1.00  0.00     0.177 HD
ENDROOT
BRANCH   1  25
HETATM   25  C3  UNL     1      26.480   9.649  49.192  1.00  0.00     0.005 C 
HETATM   26  C4  UNL     1      27.216   9.274  50.217  1.00  0.00     0.025 C 
BRANCH  25  27
HETATM   27  C2  UNL     1      27.441  10.670  48.917  1.00  0.00     0.050 C 
HETATM   28  C1  UNL     1      28.687  11.076  48.867  1.00  0.00    -0.007 C 
ENDBRANCH  25  27
ENDBRANCH   1  25
BRANCH  16  29
HETATM   29  C16 UNL     1      26.712  -1.302  53.076  1.00  0.00     0.270 C 
HETATM   30  N5  UNL     1      26.820  -2.419  52.216  1.00  0.00    -0.365 N 
HETATM   31  H13 UNL     1      27.362  -2.762  51.397  1.00  0.00     0.159 HD
HETATM   32  H14 UNL     1      26.242  -3.282  52.277  1.00  0.00     0.159 HD
HETATM   33  O2  UNL     1      27.558  -1.140  53.974  1.00  0.00    -0.266 OA
ENDBRANCH  16  29
TORSDOF 3
ENDMDL
MODEL 5
REMARK VINA RESULT:      -8.6      3.411      8.208
REMARK  3 active torsions:
REMARK  status: ('A' for Active; 'I' for Inactive)
REMARK    1  A    between atoms: C2_2  and  C3_3 
REMARK    2  A    between atoms: C3_3  and  C5_5 
REMARK       I    between atoms: C5_5  and  N1_7 
REMARK    3  A    between atoms: C15_20  and  C16_21 
REMARK       I    between atoms: C16_21  and  N5_22 
ROOT
HETATM    1  C5  UNL     1      25.898  -0.612  53.530  1.00  0.00     0.249 C 
HETATM    2  O1  UNL     1      25.366  -0.949  54.593  1.00  0.00    -0.268 OA
HETATM    3  N1  UNL     1      25.067   0.334  52.872  1.00  0.00    -0.348 N 
HETATM    4  C6  UNL     1      23.838   0.753  53.446  1.00  0.00     0.127 C 
HETATM    5  C7  UNL     1      22.532   0.243  53.082  1.00  0.00     0.040 C 
HETATM    6  C8  UNL     1      21.854   0.417  51.799  1.00  0.00     0.140 C 
HETATM    7  N2  UNL     1      21.560   1.723  51.287  1.00  0.00    -0.222 N 
HETATM    8  C9  UNL     1      22.286   2.761  50.702  1.00  0.00     0.723 A 
HETATM    9  N3  UNL     1      23.448   2.637  51.218  1.00  0.00    -0.067 NA
HETATM   10  C10 UNL     1      24.512   3.381  50.928  1.00  0.00     0.064 A 
HETATM   11  C11 UNL     1      24.381   4.359  50.018  1.00  0.00    -0.001 A 
HETATM   12  C12 UNL     1      23.144   4.517  49.450  1.00  0.00     0.113 A 
HETATM   13  N4  UNL     1      22.087   3.714  49.794  1.00  0.00    -0.060 NA
HETATM   14  C13 UNL     1      23.095   5.578  48.479  1.00  0.00     0.091 A 
HETATM   15  C14 UNL     1      24.292   6.237  48.300  1.00  0.00     0.009 A 
HETATM   16  C15 UNL     1      23.918   7.167  47.330  1.00  0.00     0.153 A 
HETATM   17  N6  UNL     1      22.608   6.992  47.032  1.00  0.00    -0.166 NA
HETATM   18  N7  UNL     1      22.079   6.011  47.735  1.00  0.00    -0.271 N 
HETATM   19  C17 UNL     1      20.732   5.488  47.741  1.00  0.00     0.180 C 
HETATM   20  C18 UNL     1      25.629   6.074  48.913  1.00  0.00     0.048 A 
HETATM   21  C19 UNL     1      25.698   4.964  49.930  1.00  0.00     0.048 A 
HETATM   22  C20 UNL     1      25.363   2.613  51.880  1.00  0.00     0.080 C 
HETATM   23  C21 UNL     1      25.016   1.145  51.740  1.00  0.00     0.132 C 
HETATM   24  H12 UNL     1      20.585   2.146  51.284  1.00  0.00     0.177 HD
ENDROOT
BRANCH   1  25
HETATM   25  C3  UNL     1      27.168  -1.187  53.163  1.00  0.00     0.005 C 
HETATM   26  C4  UNL     1      27.221  -2.301  52.463  1.00  0.00     0.025 C 
BRANCH  25  27
HETATM   27  C2  UNL     1      28.597  -1.163  53.170  1.00  0.00     0.050 C 
HETATM   28  C1  UNL     1      29.725  -0.738  53.688  1.00  0.00    -0.007 C 
ENDBRANCH  25  27
ENDBRANCH   1  25
BRANCH  16  29
HETATM   29  C16 UNL     1      24.786   8.182  46.713  1.00  0.00     0.270 C 
HETATM   30  N5  UNL     1      25.165   9.333  47.442  1.00  0.00    -0.365 N 
HETATM   31  H13 UNL     1      25.973   9.734  47.960  1.00  0.00     0.159 HD
HETATM   32  H14 UNL     1      24.558  10.158  47.620  1.00  0.00     0.159 HD
HETATM   33  O2  UNL     1      25.194   8.037  45.547  1.00  0.00    -0.266 OA
ENDBRANCH  16  29
TORSDOF 3
ENDMDL
MODEL 6
REMARK VINA RESULT:      -8.6      1.720      2.066
REMARK  3 active torsions:
REMARK  status: ('A' for Active; 'I' for Inactive)
REMARK    1  A    between atoms: C2_2  and  C3_3 
REMARK    2  A    between atoms: C3_3  and  C5_5 
REMARK       I    between atoms: C5_5  and  N1_7 
REMARK    3  A    between atoms: C15_20  and  C16_21 
REMARK       I    between atoms: C16_21  and  N5_22 
ROOT
HETATM    1  C5  UNL     1      21.656   5.715  47.617  1.00  0.00     0.249 C 
HETATM    2  O1  UNL     1      20.870   5.384  46.724  1.00  0.00    -0.268 OA
HETATM    3  N1  UNL     1      21.880   4.606  48.477  1.00  0.00    -0.348 N 
HETATM    4  C6  UNL     1      21.241   3.359  48.243  1.00  0.00     0.127 C 
HETATM    5  C7  UNL     1      20.053   2.891  48.926  1.00  0.00     0.040 C 
HETATM    6  C8  UNL     1      19.938   2.548  50.342  1.00  0.00     0.140 C 
HETATM    7  N2  UNL     1      20.757   1.526  50.926  1.00  0.00    -0.222 N 
HETATM    8  C9  UNL     1      22.091   1.407  51.315  1.00  0.00     0.723 A 
HETATM    9  N3  UNL     1      22.704   2.193  50.516  1.00  0.00    -0.067 NA
HETATM   10  C10 UNL     1      24.008   2.455  50.529  1.00  0.00     0.064 A 
HETATM   11  C11 UNL     1      24.773   1.852  51.452  1.00  0.00    -0.001 A 
HETATM   12  C12 UNL     1      24.143   1.001  52.322  1.00  0.00     0.113 A 
HETATM   13  N4  UNL     1      22.792   0.774  52.253  1.00  0.00    -0.060 NA
HETATM   14  C13 UNL     1      25.034   0.406  53.283  1.00  0.00     0.091 A 
HETATM   15  C14 UNL     1      26.348   0.799  53.154  1.00  0.00     0.009 A 
HETATM   16  C15 UNL     1      26.924   0.074  54.198  1.00  0.00     0.153 A 
HETATM   17  N6  UNL     1      25.960  -0.645  54.821  1.00  0.00    -0.166 NA
HETATM   18  N7  UNL     1      24.780  -0.452  54.268  1.00  0.00    -0.271 N 
HETATM   19  C17 UNL     1      23.490  -1.011  54.604  1.00  0.00     0.180 C 
HETATM   20  C18 UNL     1      27.035   1.714  52.216  1.00  0.00     0.048 A 
HETATM   21  C19 UNL     1      26.116   2.347  51.204  1.00  0.00     0.048 A 
HETATM   22  C20 UNL     1      23.875   3.397  49.383  1.00  0.00     0.080 C 
HETATM   23  C21 UNL     1      22.618   4.216  49.592  1.00  0.00     0.132 C 
HETATM   24  H12 UNL     1      20.395   0.561  51.184  1.00  0.00     0.177 HD
ENDROOT
BRANCH   1  25
HETATM   25  C3  UNL     1      22.175   7.060  47.639  1.00  0.00     0.005 C 
HETATM   26  C4  UNL     1      22.995   7.477  46.697  1.00  0.00     0.025 C 
BRANCH  25  27
HETATM   27  C2  UNL     1      22.267   8.352  48.244  1.00  0.00     0.050 C 
HETATM   28  C1  UNL     1      22.687   9.594  48.216  1.00  0.00    -0.007 C 
ENDBRANCH  25  27
ENDBRANCH   1  25
BRANCH  16  29
HETATM   29  C16 UNL     1      28.345   0.073  54.581  1.00  0.00     0.270 C 
HETATM   30  N5  UNL     1      29.185  -0.997  54.198  1.00  0.00    -0.365 N 
HETATM   31  H13 UNL     1      29.926  -1.239  53.509  1.00  0.00     0.159 HD
HETATM   32  H14 UNL     1      29.206  -1.935  54.648  1.00  0.00     0.159 HD
HETATM   33  O2  UNL     1      28.819   1.015  55.242  1.00  0.00    -0.266 OA
ENDBRANCH  16  29
TORSDOF 3
ENDMDL
MODEL 7
REMARK VINA RESULT:      -8.6      1.579      1.918
REMARK  3 active torsions:
REMARK  status: ('A' for Active; 'I' for Inactive)
REMARK    1  A    between atoms: C2_2  and  C3_3 
REMARK    2  A    between atoms: C3_3  and  C5_5 
REMARK       I    between atoms: C5_5  and  N1_7 
REMARK    3  A    between atoms: C15_20  and  C16_21 
REMARK       I    between atoms: C16_21  and  N5_22 
ROOT
HETATM    1  C5  UNL     1      17.900   2.288  49.758  1.00  0.00     0.249 C 
HETATM    2  O1  UNL     1      17.068   1.492  49.311  1.00  0.00    -0.268 OA
HETATM    3  N1  UNL     1      18.853   1.578  50.538  1.00  0.00    -0.348 N 
HETATM    4  C6  UNL     1      18.759   0.171  50.704  1.00  0.00     0.127 C 
HETATM    5  C7  UNL     1      18.197  -0.495  51.861  1.00  0.00     0.040 C 
HETATM    6  C8  UNL     1      18.739  -0.493  53.218  1.00  0.00     0.140 C 
HETATM    7  N2  UNL     1      20.058  -0.985  53.492  1.00  0.00    -0.222 N 
HETATM    8  C9  UNL     1      21.362  -0.531  53.292  1.00  0.00     0.723 A 
HETATM    9  N3  UNL     1      21.267   0.194  52.245  1.00  0.00    -0.067 NA
HETATM   10  C10 UNL     1      22.255   0.888  51.686  1.00  0.00     0.064 A 
HETATM   11  C11 UNL     1      23.471   0.839  52.251  1.00  0.00    -0.001 A 
HETATM   12  C12 UNL     1      23.603   0.067  53.375  1.00  0.00     0.113 A 
HETATM   13  N4  UNL     1      22.542  -0.625  53.901  1.00  0.00    -0.060 NA
HETATM   14  C13 UNL     1      24.935   0.080  53.922  1.00  0.00     0.091 A 
HETATM   15  C14 UNL     1      25.827   0.860  53.219  1.00  0.00     0.009 A 
HETATM   16  C15 UNL     1      26.978   0.667  53.982  1.00  0.00     0.153 A 
HETATM   17  N6  UNL     1      26.689  -0.163  55.014  1.00  0.00    -0.166 NA
HETATM   18  N7  UNL     1      25.426  -0.538  54.993  1.00  0.00    -0.271 N 
HETATM   19  C17 UNL     1      24.696  -1.408  55.887  1.00  0.00     0.180 C 
HETATM   20  C18 UNL     1      25.691   1.692  52.003  1.00  0.00     0.048 A 
HETATM   21  C19 UNL     1      24.302   1.692  51.419  1.00  0.00     0.048 A 
HETATM   22  C20 UNL     1      21.348   1.407  50.624  1.00  0.00     0.080 C 
HETATM   23  C21 UNL     1      20.024   1.761  51.269  1.00  0.00     0.132 C 
HETATM   24  H12 UNL     1      20.249  -1.919  53.961  1.00  0.00     0.177 HD
ENDROOT
BRANCH   1  25
HETATM   25  C3  UNL     1      17.779   3.690  49.442  1.00  0.00     0.005 C 
HETATM   26  C4  UNL     1      17.817   4.596  50.396  1.00  0.00     0.025 C 
BRANCH  25  27
HETATM   27  C2  UNL     1      17.616   4.745  48.491  1.00  0.00     0.050 C 
HETATM   28  C1  UNL     1      18.060   5.838  47.918  1.00  0.00    -0.007 C 
ENDBRANCH  25  27
ENDBRANCH   1  25
BRANCH  16  29
HETATM   29  C16 UNL     1      28.302   1.256  53.732  1.00  0.00     0.270 C 
HETATM   30  N5  UNL     1      28.490   2.654  53.829  1.00  0.00    -0.365 N 
HETATM   31  H13 UNL     1      28.885   3.376  54.465  1.00  0.00     0.159 HD
HETATM   32  H14 UNL     1      28.198   3.350  53.115  1.00  0.00     0.159 HD
HETATM   33  O2  UNL     1      29.268   0.530  53.433  1.00  0.00    -0.266 OA
ENDBRANCH  16  29
TORSDOF 3
ENDMDL
MODEL 8
REMARK VINA RESULT:      -8.5      3.503      5.222
REMARK  3 active torsions:
REMARK  status: ('A' for Active; 'I' for Inactive)
REMARK    1  A    between atoms: C2_2  and  C3_3 
REMARK    2  A    between atoms: C3_3  and  C5_5 
REMARK       I    between atoms: C5_5  and  N1_7 
REMARK    3  A    between atoms: C15_20  and  C16_21 
REMARK       I    between atoms: C16_21  and  N5_22 
ROOT
HETATM    1  C5  UNL     1      23.567   7.266  47.320  1.00  0.00     0.249 C 
HETATM    2  O1  UNL     1      24.205   8.323  47.305  1.00  0.00    -0.268 OA
HETATM    3  N1  UNL     1      24.183   6.362  48.228  1.00  0.00    -0.348 N 
HETATM    4  C6  UNL     1      25.348   6.731  48.950  1.00  0.00     0.127 C 
HETATM    5  C7  UNL     1      26.702   6.363  48.591  1.00  0.00     0.040 C 
HETATM    6  C8  UNL     1      27.271   5.016  48.598  1.00  0.00     0.140 C 
HETATM    7  N2  UNL     1      27.304   4.231  49.797  1.00  0.00    -0.222 N 
HETATM    8  C9  UNL     1      26.377   3.518  50.558  1.00  0.00     0.723 A 
HETATM    9  N3  UNL     1      25.283   4.148  50.360  1.00  0.00    -0.067 NA
HETATM   10  C10 UNL     1      24.091   3.812  50.846  1.00  0.00     0.064 A 
HETATM   11  C11 UNL     1      24.001   2.718  51.618  1.00  0.00    -0.001 A 
HETATM   12  C12 UNL     1      25.159   2.023  51.850  1.00  0.00     0.113 A 
HETATM   13  N4  UNL     1      26.357   2.425  51.318  1.00  0.00    -0.060 NA
HETATM   14  C13 UNL     1      24.969   0.860  52.677  1.00  0.00     0.091 A 
HETATM   15  C14 UNL     1      23.668   0.660  53.082  1.00  0.00     0.009 A 
HETATM   16  C15 UNL     1      23.821  -0.504  53.835  1.00  0.00     0.153 A 
HETATM   17  N6  UNL     1      25.123  -0.876  53.814  1.00  0.00    -0.166 NA
HETATM   18  N7  UNL     1      25.853  -0.041  53.100  1.00  0.00    -0.271 N 
HETATM   19  C17 UNL     1      27.269  -0.050  52.815  1.00  0.00     0.180 C 
HETATM   20  C18 UNL     1      22.415   1.409  52.839  1.00  0.00     0.048 A 
HETATM   21  C19 UNL     1      22.594   2.628  51.972  1.00  0.00     0.048 A 
HETATM   22  C20 UNL     1      23.440   4.968  50.168  1.00  0.00     0.080 C 
HETATM   23  C21 UNL     1      24.031   5.092  48.780  1.00  0.00     0.132 C 
HETATM   24  H12 UNL     1      28.187   4.059  50.361  1.00  0.00     0.177 HD
ENDROOT
BRANCH   1  25
HETATM   25  C3  UNL     1      22.400   7.133  46.484  1.00  0.00     0.005 C 
HETATM   26  C4  UNL     1      22.328   6.176  45.582  1.00  0.00     0.025 C 
BRANCH  25  27
HETATM   27  C2  UNL     1      21.100   7.568  46.078  1.00  0.00     0.050 C 
HETATM   28  C1  UNL     1      20.142   8.463  46.100  1.00  0.00    -0.007 C 
ENDBRANCH  25  27
ENDBRANCH   1  25
BRANCH  16  29
HETATM   29  C16 UNL     1      22.757  -1.231  54.545  1.00  0.00     0.270 C 
HETATM   30  N5  UNL     1      21.598  -1.652  53.853  1.00  0.00    -0.365 N 
HETATM   31  H13 UNL     1      21.164  -2.503  53.443  1.00  0.00     0.159 HD
HETATM   32  H14 UNL     1      20.805  -1.037  53.581  1.00  0.00     0.159 HD
HETATM   33  O2  UNL     1      22.869  -1.484  55.758  1.00  0.00    -0.266 OA
ENDBRANCH  16  29
TORSDOF 3
ENDMDL
MODEL 9
REMARK VINA RESULT:      -8.4      6.846     10.450
REMARK  3 active torsions:
REMARK  status: ('A' for Active; 'I' for Inactive)
REMARK    1  A    between atoms: C2_2  and  C3_3 
REMARK    2  A    between atoms: C3_3  and  C5_5 
REMARK       I    between atoms: C5_5  and  N1_7 
REMARK    3  A    between atoms: C15_20  and  C16_21 
REMARK       I    between atoms: C16_21  and  N5_22 
ROOT
HETATM    1  C5  UNL     1      32.967   6.647  47.230  1.00  0.00     0.249 C 
HETATM    2  O1  UNL     1      33.311   7.348  46.273  1.00  0.00    -0.268 OA
HETATM    3  N1  UNL     1      31.600   6.899  47.525  1.00  0.00    -0.348 N 
HETATM    4  C6  UNL     1      30.848   7.834  46.766  1.00  0.00     0.127 C 
HETATM    5  C7  UNL     1      30.570   9.199  47.164  1.00  0.00     0.040 C 
HETATM    6  C8  UNL     1      29.741   9.628  48.288  1.00  0.00     0.140 C 
HETATM    7  N2  UNL     1      28.361   9.250  48.380  1.00  0.00    -0.222 N 
HETATM    8  C9  UNL     1      27.656   8.087  48.693  1.00  0.00     0.723 A 
HETATM    9  N3  UNL     1      28.444   7.153  48.322  1.00  0.00    -0.067 NA
HETATM   10  C10 UNL     1      28.226   5.848  48.462  1.00  0.00     0.064 A 
HETATM   11  C11 UNL     1      27.082   5.449  49.040  1.00  0.00    -0.001 A 
HETATM   12  C12 UNL     1      26.215   6.431  49.446  1.00  0.00     0.113 A 
HETATM   13  N4  UNL     1      26.502   7.760  49.271  1.00  0.00    -0.060 NA
HETATM   14  C13 UNL     1      25.021   5.916  50.063  1.00  0.00     0.091 A 
HETATM   15  C14 UNL     1      24.968   4.541  50.132  1.00  0.00     0.009 A 
HETATM   16  C15 UNL     1      23.735   4.374  50.763  1.00  0.00     0.153 A 
HETATM   17  N6  UNL     1      23.193   5.592  51.002  1.00  0.00    -0.166 NA
HETATM   18  N7  UNL     1      23.976   6.562  50.575  1.00  0.00    -0.271 N 
HETATM   19  C17 UNL     1      23.796   7.995  50.620  1.00  0.00     0.180 C 
HETATM   20  C18 UNL     1      25.897   3.477  49.692  1.00  0.00     0.048 A 
HETATM   21  C19 UNL     1      27.155   3.999  49.046  1.00  0.00     0.048 A 
HETATM   22  C20 UNL     1      29.537   5.517  47.837  1.00  0.00     0.080 C 
HETATM   23  C21 UNL     1      30.568   6.491  48.368  1.00  0.00     0.132 C 
HETATM   24  H12 UNL     1      27.557   9.917  48.189  1.00  0.00     0.177 HD
ENDROOT
BRANCH   1  25
HETATM   25  C3  UNL     1      33.928   5.762  47.840  1.00  0.00     0.005 C 
HETATM   26  C4  UNL     1      34.584   6.129  48.920  1.00  0.00     0.025 C 
BRANCH  25  27
HETATM   27  C2  UNL     1      34.630   4.518  47.877  1.00  0.00     0.050 C 
HETATM   28  C1  UNL     1      34.634   3.210  47.769  1.00  0.00    -0.007 C 
ENDBRANCH  25  27
ENDBRANCH   1  25
BRANCH  16  29
HETATM   29  C16 UNL     1      23.104   3.095  51.123  1.00  0.00     0.270 C 
HETATM   30  N5  UNL     1      23.285   2.550  52.415  1.00  0.00    -0.365 N 
HETATM   31  H13 UNL     1      22.789   2.433  53.322  1.00  0.00     0.159 HD
HETATM   32  H14 UNL     1      24.142   2.062  52.747  1.00  0.00     0.159 HD
HETATM   33  O2  UNL     1      22.405   2.483  50.296  1.00  0.00    -0.266 OA
ENDBRANCH  16  29
TORSDOF 3
ENDMDL
