MODEL 1
REMARK VINA RESULT:      -8.3      0.000      0.000
REMARK  0 active torsions:
REMARK  status: ('A' for Active; 'I' for Inactive)
ROOT
HETATM    1  C1  UNL     1      25.708   1.312  52.734  1.00  0.00    -0.016 C 
HETATM    2  C2  UNL     1      25.007   1.904  53.708  1.00  0.00    -0.003 C 
HETATM    3  C3  UNL     1      24.077   2.622  52.910  1.00  0.00     0.128 C 
HETATM    4  N1  UNL     1      24.748   3.063  51.704  1.00  0.00    -0.306 N 
HETATM    5  N2  UNL     1      26.113   3.239  51.164  1.00  0.00    -0.195 NA
HETATM    6  C4  UNL     1      27.135   2.421  51.473  1.00  0.00     0.122 C 
HETATM    7  C5  UNL     1      27.153   1.121  52.273  1.00  0.00     0.027 C 
HETATM    8  C6  UNL     1      27.742  -0.020  52.766  1.00  0.00     0.191 C 
HETATM    9  N3  UNL     1      26.600  -0.498  53.542  1.00  0.00    -0.275 N 
HETATM   10  C7  UNL     1      25.375  -0.834  53.115  1.00  0.00     0.137 A 
HETATM   11  C8  UNL     1      24.888  -0.757  54.395  1.00  0.00     0.069 A 
HETATM   12  N4  UNL     1      25.704  -0.444  55.487  1.00  0.00    -0.163 NA
HETATM   13  N5  UNL     1      26.942  -0.258  54.838  1.00  0.00     0.005 NA
HETATM   14  C9  UNL     1      23.463  -0.731  54.048  1.00  0.00     0.067 C 
HETATM   15  C10 UNL     1      22.957   0.178  52.978  1.00  0.00    -0.002 C 
HETATM   16  C11 UNL     1      21.420  -0.174  52.900  1.00  0.00     0.005 C 
HETATM   17  C12 UNL     1      21.003  -0.021  51.421  1.00  0.00     0.000 C 
HETATM   18  C13 UNL     1      21.434   1.379  50.986  1.00  0.00     0.000 C 
HETATM   19  C14 UNL     1      21.761   2.207  52.199  1.00  0.00     0.007 C 
HETATM   20  C15 UNL     1      22.960   1.658  52.996  1.00  0.00     0.018 C 
HETATM   21  H4  UNL     1      24.158   3.386  50.880  1.00  0.00     0.183 HD
ENDROOT
TORSDOF 0
ENDMDL
MODEL 2
REMARK VINA RESULT:      -7.9      2.405      4.761
REMARK  0 active torsions:
REMARK  status: ('A' for Active; 'I' for Inactive)
ROOT
HETATM    1  C1  UNL     1      22.799   2.735  51.926  1.00  0.00    -0.016 C 
HETATM    2  C2  UNL     1      23.375   1.994  50.973  1.00  0.00    -0.003 C 
HETATM    3  C3  UNL     1      24.733   2.331  51.216  1.00  0.00     0.128 C 
HETATM    4  N1  UNL     1      24.797   3.719  51.628  1.00  0.00    -0.306 N 
HETATM    5  N2  UNL     1      23.970   4.943  51.621  1.00  0.00    -0.195 NA
HETATM    6  C4  UNL     1      22.633   4.927  51.771  1.00  0.00     0.122 C 
HETATM    7  C5  UNL     1      21.691   3.773  52.101  1.00  0.00     0.027 C 
HETATM    8  C6  UNL     1      20.471   3.227  52.428  1.00  0.00     0.191 C 
HETATM    9  N3  UNL     1      20.891   1.827  52.434  1.00  0.00    -0.275 N 
HETATM   10  C7  UNL     1      21.813   1.229  53.200  1.00  0.00     0.137 A 
HETATM   11  C8  UNL     1      21.856   0.157  52.345  1.00  0.00     0.069 A 
HETATM   12  N4  UNL     1      21.044   0.076  51.209  1.00  0.00    -0.163 NA
HETATM   13  N5  UNL     1      20.356   1.304  51.296  1.00  0.00     0.005 NA
HETATM   14  C9  UNL     1      23.104  -0.428  52.845  1.00  0.00     0.067 C 
HETATM   15  C10 UNL     1      24.309   0.425  53.066  1.00  0.00    -0.002 C 
HETATM   16  C11 UNL     1      25.366  -0.587  53.660  1.00  0.00     0.005 C 
HETATM   17  C12 UNL     1      26.222   0.207  54.670  1.00  0.00     0.000 C 
HETATM   18  C13 UNL     1      26.752   1.433  53.928  1.00  0.00     0.000 C 
HETATM   19  C14 UNL     1      26.565   1.248  52.446  1.00  0.00     0.007 C 
HETATM   20  C15 UNL     1      25.084   1.151  52.035  1.00  0.00     0.018 C 
HETATM   21  H4  UNL     1      25.685   4.073  52.096  1.00  0.00     0.183 HD
ENDROOT
TORSDOF 0
ENDMDL
MODEL 3
REMARK VINA RESULT:      -7.3      2.285      5.314
REMARK  0 active torsions:
REMARK  status: ('A' for Active; 'I' for Inactive)
ROOT
HETATM    1  C1  UNL     1      23.183   1.988  50.733  1.00  0.00    -0.016 C 
HETATM    2  C2  UNL     1      23.299   2.549  51.942  1.00  0.00    -0.003 C 
HETATM    3  C3  UNL     1      23.340   1.370  52.733  1.00  0.00     0.128 C 
HETATM    4  N1  UNL     1      22.469   0.380  52.131  1.00  0.00    -0.306 N 
HETATM    5  N2  UNL     1      21.375   0.284  51.142  1.00  0.00    -0.195 NA
HETATM    6  C4  UNL     1      21.307   1.059  50.044  1.00  0.00     0.122 C 
HETATM    7  C5  UNL     1      22.309   2.062  49.480  1.00  0.00     0.027 C 
HETATM    8  C6  UNL     1      22.785   2.933  48.528  1.00  0.00     0.191 C 
HETATM    9  N3  UNL     1      23.969   3.380  49.260  1.00  0.00    -0.275 N 
HETATM   10  C7  UNL     1      25.010   2.659  49.696  1.00  0.00     0.137 A 
HETATM   11  C8  UNL     1      25.382   3.672  50.541  1.00  0.00     0.069 A 
HETATM   12  N4  UNL     1      24.687   4.884  50.606  1.00  0.00    -0.163 NA
HETATM   13  N5  UNL     1      23.663   4.643  49.667  1.00  0.00     0.005 NA
HETATM   14  C9  UNL     1      26.300   2.889  51.375  1.00  0.00     0.067 C 
HETATM   15  C10 UNL     1      25.893   1.556  51.909  1.00  0.00    -0.002 C 
HETATM   16  C11 UNL     1      27.184   1.059  52.670  1.00  0.00     0.005 C 
HETATM   17  C12 UNL     1      27.239  -0.474  52.501  1.00  0.00     0.000 C 
HETATM   18  C13 UNL     1      25.888  -1.015  52.966  1.00  0.00     0.000 C 
HETATM   19  C14 UNL     1      25.154   0.050  53.736  1.00  0.00     0.007 C 
HETATM   20  C15 UNL     1      24.808   1.281  52.877  1.00  0.00     0.018 C 
HETATM   21  H4  UNL     1      22.567  -0.636  52.429  1.00  0.00     0.183 HD
ENDROOT
TORSDOF 0
ENDMDL
MODEL 4
REMARK VINA RESULT:      -7.2      2.124      3.268
REMARK  0 active torsions:
REMARK  status: ('A' for Active; 'I' for Inactive)
ROOT
HETATM    1  C1  UNL     1      23.640   1.065  52.858  1.00  0.00    -0.016 C 
HETATM    2  C2  UNL     1      22.780   2.079  53.006  1.00  0.00    -0.003 C 
HETATM    3  C3  UNL     1      23.215   2.900  51.932  1.00  0.00     0.128 C 
HETATM    4  N1  UNL     1      24.653   2.773  51.806  1.00  0.00    -0.306 N 
HETATM    5  N2  UNL     1      25.820   2.292  52.574  1.00  0.00    -0.195 NA
HETATM    6  C4  UNL     1      25.766   1.237  53.407  1.00  0.00     0.122 C 
HETATM    7  C5  UNL     1      24.640   0.241  53.669  1.00  0.00     0.027 C 
HETATM    8  C6  UNL     1      24.099  -0.898  54.218  1.00  0.00     0.191 C 
HETATM    9  N3  UNL     1      22.739  -0.720  53.712  1.00  0.00    -0.275 N 
HETATM   10  C7  UNL     1      22.318  -0.651  52.441  1.00  0.00     0.137 A 
HETATM   11  C8  UNL     1      21.124  -0.111  52.847  1.00  0.00     0.069 A 
HETATM   12  N4  UNL     1      20.821   0.101  54.196  1.00  0.00    -0.163 NA
HETATM   13  N5  UNL     1      22.013  -0.346  54.801  1.00  0.00     0.005 NA
HETATM   14  C9  UNL     1      20.687   0.377  51.535  1.00  0.00     0.067 C 
HETATM   15  C10 UNL     1      21.619   1.148  50.661  1.00  0.00    -0.002 C 
HETATM   16  C11 UNL     1      20.768   1.398  49.355  1.00  0.00     0.005 C 
HETATM   17  C12 UNL     1      21.755   1.365  48.168  1.00  0.00     0.000 C 
HETATM   18  C13 UNL     1      22.867   2.361  48.493  1.00  0.00     0.000 C 
HETATM   19  C14 UNL     1      22.433   3.250  49.628  1.00  0.00     0.007 C 
HETATM   20  C15 UNL     1      22.202   2.479  50.941  1.00  0.00     0.018 C 
HETATM   21  H4  UNL     1      25.119   3.104  50.909  1.00  0.00     0.183 HD
ENDROOT
TORSDOF 0
ENDMDL
MODEL 5
REMARK VINA RESULT:      -7.2      1.662      2.563
REMARK  0 active torsions:
REMARK  status: ('A' for Active; 'I' for Inactive)
ROOT
HETATM    1  C1  UNL     1      24.668   2.528  51.539  1.00  0.00    -0.016 C 
HETATM    2  C2  UNL     1      24.358   2.930  52.777  1.00  0.00    -0.003 C 
HETATM    3  C3  UNL     1      22.950   2.748  52.725  1.00  0.00     0.128 C 
HETATM    4  N1  UNL     1      22.492   3.068  51.388  1.00  0.00    -0.306 N 
HETATM    5  N2  UNL     1      22.953   3.759  50.166  1.00  0.00    -0.195 NA
HETATM    6  C4  UNL     1      24.236   3.757  49.761  1.00  0.00     0.122 C 
HETATM    7  C5  UNL     1      25.443   2.999  50.307  1.00  0.00     0.027 C 
HETATM    8  C6  UNL     1      26.750   2.571  50.283  1.00  0.00     0.191 C 
HETATM    9  N3  UNL     1      26.729   1.835  51.545  1.00  0.00    -0.275 N 
HETATM   10  C7  UNL     1      25.972   0.786  51.894  1.00  0.00     0.137 A 
HETATM   11  C8  UNL     1      26.261   0.994  53.218  1.00  0.00     0.069 A 
HETATM   12  N4  UNL     1      27.111   2.019  53.645  1.00  0.00    -0.163 NA
HETATM   13  N5  UNL     1      27.434   2.617  52.409  1.00  0.00     0.005 NA
HETATM   14  C9  UNL     1      25.199   0.148  53.774  1.00  0.00     0.067 C 
HETATM   15  C10 UNL     1      23.799   0.254  53.268  1.00  0.00    -0.002 C 
HETATM   16  C11 UNL     1      23.034  -0.863  54.079  1.00  0.00     0.005 C 
HETATM   17  C12 UNL     1      21.951  -1.434  53.138  1.00  0.00     0.000 C 
HETATM   18  C13 UNL     1      21.139  -0.243  52.631  1.00  0.00     0.000 C 
HETATM   19  C14 UNL     1      21.432   0.967  53.477  1.00  0.00     0.007 C 
HETATM   20  C15 UNL     1      22.900   1.425  53.382  1.00  0.00     0.018 C 
HETATM   21  H4  UNL     1      21.522   2.747  51.089  1.00  0.00     0.183 HD
ENDROOT
TORSDOF 0
ENDMDL
MODEL 6
REMARK VINA RESULT:      -7.2      2.827      5.100
REMARK  0 active torsions:
REMARK  status: ('A' for Active; 'I' for Inactive)
ROOT
HETATM    1  C1  UNL     1      23.573   3.854  50.939  1.00  0.00    -0.016 C 
HETATM    2  C2  UNL     1      24.065   2.912  50.126  1.00  0.00    -0.003 C 
HETATM    3  C3  UNL     1      25.444   3.043  50.441  1.00  0.00     0.128 C 
HETATM    4  N1  UNL     1      25.729   4.441  50.697  1.00  0.00    -0.306 N 
HETATM    5  N2  UNL     1      25.135   5.777  50.484  1.00  0.00    -0.195 NA
HETATM    6  C4  UNL     1      23.810   6.005  50.524  1.00  0.00     0.122 C 
HETATM    7  C5  UNL     1      22.658   5.079  50.905  1.00  0.00     0.027 C 
HETATM    8  C6  UNL     1      21.343   4.792  51.189  1.00  0.00     0.191 C 
HETATM    9  N3  UNL     1      21.506   3.353  51.388  1.00  0.00    -0.275 N 
HETATM   10  C7  UNL     1      22.259   2.709  52.290  1.00  0.00     0.137 A 
HETATM   11  C8  UNL     1      22.162   1.547  51.568  1.00  0.00     0.069 A 
HETATM   12  N4  UNL     1      21.420   1.462  50.385  1.00  0.00    -0.163 NA
HETATM   13  N5  UNL     1      20.957   2.790  50.277  1.00  0.00     0.005 NA
HETATM   14  C9  UNL     1      23.253   0.826  52.232  1.00  0.00     0.067 C 
HETATM   15  C10 UNL     1      24.575   1.484  52.453  1.00  0.00    -0.002 C 
HETATM   16  C11 UNL     1      25.397   0.391  53.243  1.00  0.00     0.005 C 
HETATM   17  C12 UNL     1      26.317   1.148  54.223  1.00  0.00     0.000 C 
HETATM   18  C13 UNL     1      27.101   2.164  53.394  1.00  0.00     0.000 C 
HETATM   19  C14 UNL     1      26.975   1.829  51.932  1.00  0.00     0.007 C 
HETATM   20  C15 UNL     1      25.528   1.933  51.414  1.00  0.00     0.018 C 
HETATM   21  H4  UNL     1      26.635   4.695  51.193  1.00  0.00     0.183 HD
ENDROOT
TORSDOF 0
ENDMDL
MODEL 7
REMARK VINA RESULT:      -6.9      3.339      5.706
REMARK  0 active torsions:
REMARK  status: ('A' for Active; 'I' for Inactive)
ROOT
HETATM    1  C1  UNL     1      23.719   5.040  50.575  1.00  0.00    -0.016 C 
HETATM    2  C2  UNL     1      23.940   4.126  49.623  1.00  0.00    -0.003 C 
HETATM    3  C3  UNL     1      25.325   3.905  49.843  1.00  0.00     0.128 C 
HETATM    4  N1  UNL     1      25.936   5.160  50.234  1.00  0.00    -0.306 N 
HETATM    5  N2  UNL     1      25.656   6.611  50.223  1.00  0.00    -0.195 NA
HETATM    6  C4  UNL     1      24.422   7.120  50.392  1.00  0.00     0.122 C 
HETATM    7  C5  UNL     1      23.109   6.431  50.752  1.00  0.00     0.027 C 
HETATM    8  C6  UNL     1      21.779   6.409  51.104  1.00  0.00     0.191 C 
HETATM    9  N3  UNL     1      21.617   4.957  51.123  1.00  0.00    -0.275 N 
HETATM   10  C7  UNL     1      22.245   4.050  51.884  1.00  0.00     0.137 A 
HETATM   11  C8  UNL     1      21.848   3.042  51.043  1.00  0.00     0.069 A 
HETATM   12  N4  UNL     1      21.048   3.278  49.920  1.00  0.00    -0.163 NA
HETATM   13  N5  UNL     1      20.899   4.678  50.000  1.00  0.00     0.005 NA
HETATM   14  C9  UNL     1      22.776   2.018  51.532  1.00  0.00     0.067 C 
HETATM   15  C10 UNL     1      24.223   2.331  51.724  1.00  0.00    -0.002 C 
HETATM   16  C11 UNL     1      24.810   0.990  52.316  1.00  0.00     0.005 C 
HETATM   17  C12 UNL     1      25.927   1.391  53.303  1.00  0.00     0.000 C 
HETATM   18  C13 UNL     1      26.881   2.306  52.537  1.00  0.00     0.000 C 
HETATM   19  C14 UNL     1      26.609   2.199  51.060  1.00  0.00     0.007 C 
HETATM   20  C15 UNL     1      25.201   2.688  50.672  1.00  0.00     0.018 C 
HETATM   21  H4  UNL     1      26.900   5.140  50.685  1.00  0.00     0.183 HD
ENDROOT
TORSDOF 0
ENDMDL
MODEL 8
REMARK VINA RESULT:      -6.8      9.487     11.814
REMARK  0 active torsions:
REMARK  status: ('A' for Active; 'I' for Inactive)
ROOT
HETATM    1  C1  UNL     1      32.616   7.355  47.269  1.00  0.00    -0.016 C 
HETATM    2  C2  UNL     1      32.015   7.022  46.121  1.00  0.00    -0.003 C 
HETATM    3  C3  UNL     1      33.150   6.566  45.399  1.00  0.00     0.128 C 
HETATM    4  N1  UNL     1      34.292   7.377  45.772  1.00  0.00    -0.306 N 
HETATM    5  N2  UNL     1      34.603   8.660  46.437  1.00  0.00    -0.195 NA
HETATM    6  C4  UNL     1      33.878   9.152  47.457  1.00  0.00     0.122 C 
HETATM    7  C5  UNL     1      32.728   8.529  48.243  1.00  0.00     0.027 C 
HETATM    8  C6  UNL     1      31.809   8.484  49.267  1.00  0.00     0.191 C 
HETATM    9  N3  UNL     1      31.144   7.246  48.865  1.00  0.00    -0.275 N 
HETATM   10  C7  UNL     1      31.660   6.016  48.738  1.00  0.00     0.137 A 
HETATM   11  C8  UNL     1      30.577   5.617  47.998  1.00  0.00     0.069 A 
HETATM   12  N4  UNL     1      29.505   6.473  47.722  1.00  0.00    -0.163 NA
HETATM   13  N5  UNL     1      29.945   7.650  48.360  1.00  0.00     0.005 NA
HETATM   14  C9  UNL     1      31.166   4.388  47.457  1.00  0.00     0.067 C 
HETATM   15  C10 UNL     1      32.537   4.397  46.866  1.00  0.00    -0.002 C 
HETATM   16  C11 UNL     1      32.780   2.884  46.489  1.00  0.00     0.005 C 
HETATM   17  C12 UNL     1      34.283   2.607  46.703  1.00  0.00     0.000 C 
HETATM   18  C13 UNL     1      35.043   3.669  45.908  1.00  0.00     0.000 C 
HETATM   19  C14 UNL     1      34.105   4.347  44.946  1.00  0.00     0.007 C 
HETATM   20  C15 UNL     1      32.975   5.120  45.652  1.00  0.00     0.018 C 
HETATM   21  H4  UNL     1      35.267   7.026  45.535  1.00  0.00     0.183 HD
ENDROOT
TORSDOF 0
ENDMDL
MODEL 9
REMARK VINA RESULT:      -6.4      3.109      5.737
REMARK  0 active torsions:
REMARK  status: ('A' for Active; 'I' for Inactive)
ROOT
HETATM    1  C1  UNL     1      22.731   4.042  50.018  1.00  0.00    -0.016 C 
HETATM    2  C2  UNL     1      23.667   3.122  49.758  1.00  0.00    -0.003 C 
HETATM    3  C3  UNL     1      23.983   2.741  51.089  1.00  0.00     0.128 C 
HETATM    4  N1  UNL     1      23.890   3.912  51.939  1.00  0.00    -0.306 N 
HETATM    5  N2  UNL     1      23.838   5.386  51.837  1.00  0.00    -0.195 NA
HETATM    6  C4  UNL     1      23.229   6.030  50.826  1.00  0.00     0.122 C 
HETATM    7  C5  UNL     1      22.378   5.490  49.680  1.00  0.00     0.027 C 
HETATM    8  C6  UNL     1      21.548   5.615  48.590  1.00  0.00     0.191 C 
HETATM    9  N3  UNL     1      21.425   4.191  48.287  1.00  0.00    -0.275 N 
HETATM   10  C7  UNL     1      20.932   3.207  49.052  1.00  0.00     0.137 A 
HETATM   11  C8  UNL     1      21.529   2.264  48.256  1.00  0.00     0.069 A 
HETATM   12  N4  UNL     1      22.272   2.605  47.121  1.00  0.00    -0.163 NA
HETATM   13  N5  UNL     1      22.183   4.012  47.170  1.00  0.00     0.005 NA
HETATM   14  C9  UNL     1      21.397   1.133  49.181  1.00  0.00     0.067 C 
HETATM   15  C10 UNL     1      21.778   1.276  50.617  1.00  0.00    -0.002 C 
HETATM   16  C11 UNL     1      21.412  -0.131  51.232  1.00  0.00     0.005 C 
HETATM   17  C12 UNL     1      20.935   0.125  52.678  1.00  0.00     0.000 C 
HETATM   18  C13 UNL     1      22.033   0.937  53.364  1.00  0.00     0.000 C 
HETATM   19  C14 UNL     1      23.292   0.883  52.542  1.00  0.00     0.007 C 
HETATM   20  C15 UNL     1      23.132   1.535  51.155  1.00  0.00     0.018 C 
HETATM   21  H4  UNL     1      23.838   3.777  52.992  1.00  0.00     0.183 HD
ENDROOT
TORSDOF 0
ENDMDL
