MODEL 1
REMARK VINA RESULT:      -7.7      0.000      0.000
REMARK  2 active torsions:
REMARK  status: ('A' for Active; 'I' for Inactive)
REMARK    1  A    between atoms: C11_14  and  O4_15 
REMARK    2  A    between atoms: O4_15  and  O5_16 
ROOT
HETATM    1  O1  UNL     1      26.774   2.344  50.589  1.00  0.00    -0.286 OA
HETATM    2  C1  UNL     1      26.085   2.492  51.628  1.00  0.00     0.198 C 
HETATM    3  C2  UNL     1      24.772   3.075  51.714  1.00  0.00     0.071 A 
HETATM    4  C3  UNL     1      24.506   4.305  51.305  1.00  0.00     0.161 A 
HETATM    5  O2  UNL     1      23.179   4.275  51.627  1.00  0.00    -0.321 OA
HETATM    6  C4  UNL     1      23.377   2.955  52.088  1.00  0.00     0.087 A 
HETATM    7  C5  UNL     1      22.712   1.909  52.648  1.00  0.00     0.017 C 
HETATM    8  C6  UNL     1      23.739   0.832  52.828  1.00  0.00     0.024 C 
HETATM    9  C7  UNL     1      23.731  -0.440  53.325  1.00  0.00     0.006 C 
HETATM   10  C8  UNL     1      24.987  -1.190  53.329  1.00  0.00     0.089 C 
HETATM   11  C9  UNL     1      26.178  -0.507  52.783  1.00  0.00     0.163 C 
HETATM   12  O3  UNL     1      26.810  -0.898  51.774  1.00  0.00    -0.292 OA
HETATM   13  C10 UNL     1      27.071   0.625  52.974  1.00  0.00     0.060 A 
HETATM   14  C11 UNL     1      28.122   0.255  53.824  1.00  0.00     0.121 A 
HETATM   15  C12 UNL     1      29.158   1.097  54.256  1.00  0.00     0.041 A 
HETATM   16  C13 UNL     1      29.116   2.386  53.788  1.00  0.00     0.004 A 
HETATM   17  C14 UNL     1      28.065   2.746  52.938  1.00  0.00     0.017 A 
HETATM   18  C15 UNL     1      27.054   1.912  52.524  1.00  0.00     0.032 A 
ENDROOT
BRANCH  14  19
HETATM   19  O4  UNL     1      28.057  -1.093  54.227  1.00  0.00    -0.199 OA
BRANCH  19  20
HETATM   20  O5  UNL     1      28.944  -1.916  53.687  1.00  0.00    -0.245 OA
HETATM   21  H7  UNL     1      29.465  -2.438  54.345  1.00  0.00     0.254 HD
ENDBRANCH  19  20
ENDBRANCH  14  19
TORSDOF 2
ENDMDL
MODEL 2
REMARK VINA RESULT:      -7.5      3.679      6.619
REMARK  2 active torsions:
REMARK  status: ('A' for Active; 'I' for Inactive)
REMARK    1  A    between atoms: C11_14  and  O4_15 
REMARK    2  A    between atoms: O4_15  and  O5_16 
ROOT
HETATM    1  O1  UNL     1      21.328   3.075  52.436  1.00  0.00    -0.286 OA
HETATM    2  C1  UNL     1      21.942   2.068  52.004  1.00  0.00     0.198 C 
HETATM    3  C2  UNL     1      23.355   1.965  51.753  1.00  0.00     0.071 A 
HETATM    4  C3  UNL     1      23.996   2.772  50.923  1.00  0.00     0.161 A 
HETATM    5  O2  UNL     1      25.227   2.210  51.105  1.00  0.00    -0.321 OA
HETATM    6  C4  UNL     1      24.621   1.307  52.006  1.00  0.00     0.087 A 
HETATM    7  C5  UNL     1      24.909   0.255  52.818  1.00  0.00     0.017 C 
HETATM    8  C6  UNL     1      23.605  -0.135  53.446  1.00  0.00     0.024 C 
HETATM    9  C7  UNL     1      23.207  -1.092  54.336  1.00  0.00     0.006 C 
HETATM   10  C8  UNL     1      21.793  -1.148  54.706  1.00  0.00     0.089 C 
HETATM   11  C9  UNL     1      20.897  -0.149  54.085  1.00  0.00     0.163 C 
HETATM   12  O3  UNL     1      20.265   0.721  54.727  1.00  0.00    -0.292 OA
HETATM   13  C10 UNL     1      20.354   0.310  52.816  1.00  0.00     0.060 A 
HETATM   14  C11 UNL     1      19.175  -0.390  52.529  1.00  0.00     0.121 A 
HETATM   15  C12 UNL     1      18.392  -0.234  51.376  1.00  0.00     0.041 A 
HETATM   16  C13 UNL     1      18.840   0.693  50.469  1.00  0.00     0.004 A 
HETATM   17  C14 UNL     1      20.017   1.390  50.765  1.00  0.00     0.017 A 
HETATM   18  C15 UNL     1      20.777   1.226  51.899  1.00  0.00     0.032 A 
ENDROOT
BRANCH  14  19
HETATM   19  O4  UNL     1      18.816  -1.305  53.540  1.00  0.00    -0.199 OA
BRANCH  19  20
HETATM   20  O5  UNL     1      17.607  -1.166  54.062  1.00  0.00    -0.245 OA
HETATM   21  H7  UNL     1      17.605  -0.884  55.009  1.00  0.00     0.254 HD
ENDBRANCH  19  20
ENDBRANCH  14  19
TORSDOF 2
ENDMDL
MODEL 3
REMARK VINA RESULT:      -7.5      2.345      5.460
REMARK  2 active torsions:
REMARK  status: ('A' for Active; 'I' for Inactive)
REMARK    1  A    between atoms: C11_14  and  O4_15 
REMARK    2  A    between atoms: O4_15  and  O5_16 
ROOT
HETATM    1  O1  UNL     1      24.152   3.644  53.076  1.00  0.00    -0.286 OA
HETATM    2  C1  UNL     1      24.609   2.518  52.759  1.00  0.00     0.198 C 
HETATM    3  C2  UNL     1      25.557   1.733  53.505  1.00  0.00     0.071 A 
HETATM    4  C3  UNL     1      26.758   2.182  53.832  1.00  0.00     0.161 A 
HETATM    5  O2  UNL     1      27.154   1.052  54.490  1.00  0.00    -0.321 OA
HETATM    6  C4  UNL     1      25.893   0.497  54.181  1.00  0.00     0.087 A 
HETATM    7  C5  UNL     1      25.157  -0.635  54.345  1.00  0.00     0.017 C 
HETATM    8  C6  UNL     1      23.853  -0.366  53.657  1.00  0.00     0.024 C 
HETATM    9  C7  UNL     1      22.701  -1.073  53.454  1.00  0.00     0.006 C 
HETATM   10  C8  UNL     1      21.621  -0.436  52.702  1.00  0.00     0.089 C 
HETATM   11  C9  UNL     1      21.860   0.940  52.219  1.00  0.00     0.163 C 
HETATM   12  O3  UNL     1      21.193   1.936  52.582  1.00  0.00    -0.292 OA
HETATM   13  C10 UNL     1      22.694   1.746  51.342  1.00  0.00     0.060 A 
HETATM   14  C11 UNL     1      22.128   1.784  50.061  1.00  0.00     0.121 A 
HETATM   15  C12 UNL     1      22.670   2.442  48.947  1.00  0.00     0.041 A 
HETATM   16  C13 UNL     1      23.855   3.100  49.159  1.00  0.00     0.004 A 
HETATM   17  C14 UNL     1      24.413   3.059  50.442  1.00  0.00     0.017 A 
HETATM   18  C15 UNL     1      23.871   2.408  51.525  1.00  0.00     0.032 A 
ENDROOT
BRANCH  14  19
HETATM   19  O4  UNL     1      20.910   1.080  49.974  1.00  0.00    -0.199 OA
BRANCH  19  20
HETATM   20  O5  UNL     1      20.145   1.346  48.926  1.00  0.00    -0.245 OA
HETATM   21  H7  UNL     1      20.516   1.033  48.065  1.00  0.00     0.254 HD
ENDBRANCH  19  20
ENDBRANCH  14  19
TORSDOF 2
ENDMDL
MODEL 4
REMARK VINA RESULT:      -7.5      2.530      4.716
REMARK  2 active torsions:
REMARK  status: ('A' for Active; 'I' for Inactive)
REMARK    1  A    between atoms: C11_14  and  O4_15 
REMARK    2  A    between atoms: O4_15  and  O5_16 
ROOT
HETATM    1  O1  UNL     1      22.095   1.770  53.433  1.00  0.00    -0.286 OA
HETATM    2  C1  UNL     1      22.115   1.142  52.346  1.00  0.00     0.198 C 
HETATM    3  C2  UNL     1      20.985   0.834  51.509  1.00  0.00     0.071 A 
HETATM    4  C3  UNL     1      19.940   0.149  51.942  1.00  0.00     0.161 A 
HETATM    5  O2  UNL     1      19.251   0.186  50.763  1.00  0.00    -0.321 OA
HETATM    6  C4  UNL     1      20.328   0.923  50.221  1.00  0.00     0.087 A 
HETATM    7  C5  UNL     1      20.742   1.517  49.070  1.00  0.00     0.017 C 
HETATM    8  C6  UNL     1      22.086   2.101  49.383  1.00  0.00     0.024 C 
HETATM    9  C7  UNL     1      23.021   2.810  48.683  1.00  0.00     0.006 C 
HETATM   10  C8  UNL     1      24.249   3.205  49.371  1.00  0.00     0.089 C 
HETATM   11  C9  UNL     1      24.383   2.806  50.788  1.00  0.00     0.163 C 
HETATM   12  O3  UNL     1      24.470   3.617  51.739  1.00  0.00    -0.292 OA
HETATM   13  C10 UNL     1      24.473   1.662  51.680  1.00  0.00     0.060 A 
HETATM   14  C11 UNL     1      25.815   1.285  51.826  1.00  0.00     0.121 A 
HETATM   15  C12 UNL     1      26.281   0.204  52.589  1.00  0.00     0.041 A 
HETATM   16  C13 UNL     1      25.322  -0.528  53.240  1.00  0.00     0.004 A 
HETATM   17  C14 UNL     1      23.984  -0.144  53.090  1.00  0.00     0.017 A 
HETATM   18  C15 UNL     1      23.540   0.917  52.338  1.00  0.00     0.032 A 
ENDROOT
BRANCH  14  19
HETATM   19  O4  UNL     1      26.702   2.119  51.117  1.00  0.00    -0.199 OA
BRANCH  19  20
HETATM   20  O5  UNL     1      27.521   2.866  51.843  1.00  0.00    -0.245 OA
HETATM   21  H7  UNL     1      27.471   2.694  52.815  1.00  0.00     0.254 HD
ENDBRANCH  19  20
ENDBRANCH  14  19
TORSDOF 2
ENDMDL
MODEL 5
REMARK VINA RESULT:      -7.3      2.067      5.196
REMARK  2 active torsions:
REMARK  status: ('A' for Active; 'I' for Inactive)
REMARK    1  A    between atoms: C11_14  and  O4_15 
REMARK    2  A    between atoms: O4_15  and  O5_16 
ROOT
HETATM    1  O1  UNL     1      26.200   2.754  53.763  1.00  0.00    -0.286 OA
HETATM    2  C1  UNL     1      25.666   1.777  53.182  1.00  0.00     0.198 C 
HETATM    3  C2  UNL     1      25.438   0.468  53.735  1.00  0.00     0.071 A 
HETATM    4  C3  UNL     1      26.414  -0.287  54.214  1.00  0.00     0.161 A 
HETATM    5  O2  UNL     1      25.615  -1.336  54.571  1.00  0.00    -0.321 OA
HETATM    6  C4  UNL     1      24.517  -0.596  54.080  1.00  0.00     0.087 A 
HETATM    7  C5  UNL     1      23.169  -0.669  53.915  1.00  0.00     0.017 C 
HETATM    8  C6  UNL     1      22.774   0.625  53.271  1.00  0.00     0.024 C 
HETATM    9  C7  UNL     1      21.598   1.176  52.847  1.00  0.00     0.006 C 
HETATM   10  C8  UNL     1      21.636   2.509  52.244  1.00  0.00     0.089 C 
HETATM   11  C9  UNL     1      22.957   3.163  52.145  1.00  0.00     0.163 C 
HETATM   12  O3  UNL     1      23.256   4.231  52.728  1.00  0.00    -0.292 OA
HETATM   13  C10 UNL     1      24.275   3.057  51.540  1.00  0.00     0.060 A 
HETATM   14  C11 UNL     1      24.271   3.694  50.292  1.00  0.00     0.121 A 
HETATM   15  C12 UNL     1      25.359   3.768  49.409  1.00  0.00     0.041 A 
HETATM   16  C13 UNL     1      26.514   3.160  49.830  1.00  0.00     0.004 A 
HETATM   17  C14 UNL     1      26.510   2.529  51.079  1.00  0.00     0.017 A 
HETATM   18  C15 UNL     1      25.436   2.462  51.934  1.00  0.00     0.032 A 
ENDROOT
BRANCH  14  19
HETATM   19  O4  UNL     1      23.032   4.286  49.979  1.00  0.00    -0.199 OA
BRANCH  19  20
HETATM   20  O5  UNL     1      23.009   5.609  49.904  1.00  0.00    -0.245 OA
HETATM   21  H7  UNL     1      23.851   6.011  49.578  1.00  0.00     0.254 HD
ENDBRANCH  19  20
ENDBRANCH  14  19
TORSDOF 2
ENDMDL
MODEL 6
REMARK VINA RESULT:      -7.3      3.001      4.844
REMARK  2 active torsions:
REMARK  status: ('A' for Active; 'I' for Inactive)
REMARK    1  A    between atoms: C11_14  and  O4_15 
REMARK    2  A    between atoms: O4_15  and  O5_16 
ROOT
HETATM    1  O1  UNL     1      21.747   0.979  50.643  1.00  0.00    -0.286 OA
HETATM    2  C1  UNL     1      21.408   0.958  51.852  1.00  0.00     0.198 C 
HETATM    3  C2  UNL     1      20.385   0.138  52.445  1.00  0.00     0.071 A 
HETATM    4  C3  UNL     1      19.125   0.162  52.042  1.00  0.00     0.161 A 
HETATM    5  O2  UNL     1      18.677  -0.774  52.930  1.00  0.00    -0.321 OA
HETATM    6  C4  UNL     1      19.998  -0.861  53.421  1.00  0.00     0.087 A 
HETATM    7  C5  UNL     1      20.750  -1.505  54.353  1.00  0.00     0.017 C 
HETATM    8  C6  UNL     1      22.139  -0.966  54.189  1.00  0.00     0.024 C 
HETATM    9  C7  UNL     1      23.341  -1.187  54.799  1.00  0.00     0.006 C 
HETATM   10  C8  UNL     1      24.503  -0.430  54.333  1.00  0.00     0.089 C 
HETATM   11  C9  UNL     1      24.283   0.521  53.223  1.00  0.00     0.163 C 
HETATM   12  O3  UNL     1      24.827   0.424  52.099  1.00  0.00    -0.292 OA
HETATM   13  C10 UNL     1      23.575   1.732  52.839  1.00  0.00     0.060 A 
HETATM   14  C11 UNL     1      24.352   2.852  53.163  1.00  0.00     0.121 A 
HETATM   15  C12 UNL     1      23.979   4.190  52.965  1.00  0.00     0.041 A 
HETATM   16  C13 UNL     1      22.745   4.390  52.402  1.00  0.00     0.004 A 
HETATM   17  C14 UNL     1      21.976   3.266  52.080  1.00  0.00     0.017 A 
HETATM   18  C15 UNL     1      22.353   1.959  52.281  1.00  0.00     0.032 A 
ENDROOT
BRANCH  14  19
HETATM   19  O4  UNL     1      25.600   2.515  53.725  1.00  0.00    -0.199 OA
BRANCH  19  20
HETATM   20  O5  UNL     1      26.665   2.710  52.962  1.00  0.00    -0.245 OA
HETATM   21  H7  UNL     1      27.240   3.459  53.253  1.00  0.00     0.254 HD
ENDBRANCH  19  20
ENDBRANCH  14  19
TORSDOF 2
ENDMDL
MODEL 7
REMARK VINA RESULT:      -7.2      2.780      5.912
REMARK  2 active torsions:
REMARK  status: ('A' for Active; 'I' for Inactive)
REMARK    1  A    between atoms: C11_14  and  O4_15 
REMARK    2  A    between atoms: O4_15  and  O5_16 
ROOT
HETATM    1  O1  UNL     1      21.495  -0.111  51.569  1.00  0.00    -0.286 OA
HETATM    2  C1  UNL     1      21.880   0.193  52.725  1.00  0.00     0.198 C 
HETATM    3  C2  UNL     1      22.112  -0.712  53.819  1.00  0.00     0.071 A 
HETATM    4  C3  UNL     1      21.178  -1.521  54.290  1.00  0.00     0.161 A 
HETATM    5  O2  UNL     1      21.959  -2.089  55.256  1.00  0.00    -0.321 OA
HETATM    6  C4  UNL     1      23.013  -1.259  54.815  1.00  0.00     0.087 A 
HETATM    7  C5  UNL     1      24.315  -0.961  55.068  1.00  0.00     0.017 C 
HETATM    8  C6  UNL     1      24.683   0.102  54.079  1.00  0.00     0.024 C 
HETATM    9  C7  UNL     1      25.812   0.820  53.803  1.00  0.00     0.006 C 
HETATM   10  C8  UNL     1      25.762   1.803  52.721  1.00  0.00     0.089 C 
HETATM   11  C9  UNL     1      24.479   1.940  51.999  1.00  0.00     0.163 C 
HETATM   12  O3  UNL     1      24.332   1.692  50.780  1.00  0.00    -0.292 OA
HETATM   13  C10 UNL     1      23.082   2.313  52.151  1.00  0.00     0.060 A 
HETATM   14  C11 UNL     1      22.937   3.689  51.929  1.00  0.00     0.121 A 
HETATM   15  C12 UNL     1      21.737   4.409  52.018  1.00  0.00     0.041 A 
HETATM   16  C13 UNL     1      20.624   3.679  52.350  1.00  0.00     0.004 A 
HETATM   17  C14 UNL     1      20.777   2.305  52.568  1.00  0.00     0.017 A 
HETATM   18  C15 UNL     1      21.961   1.612  52.479  1.00  0.00     0.032 A 
ENDROOT
BRANCH  14  19
HETATM   19  O4  UNL     1      24.148   4.323  51.587  1.00  0.00    -0.199 OA
BRANCH  19  20
HETATM   20  O5  UNL     1      24.278   5.590  51.955  1.00  0.00    -0.245 OA
HETATM   21  H7  UNL     1      24.389   6.220  51.202  1.00  0.00     0.254 HD
ENDBRANCH  19  20
ENDBRANCH  14  19
TORSDOF 2
ENDMDL
MODEL 8
REMARK VINA RESULT:      -7.1      2.635      4.781
REMARK  2 active torsions:
REMARK  status: ('A' for Active; 'I' for Inactive)
REMARK    1  A    between atoms: C11_14  and  O4_15 
REMARK    2  A    between atoms: O4_15  and  O5_16 
ROOT
HETATM    1  O1  UNL     1      21.104   2.368  52.556  1.00  0.00    -0.286 OA
HETATM    2  C1  UNL     1      21.639   1.840  51.549  1.00  0.00     0.198 C 
HETATM    3  C2  UNL     1      21.217   1.978  50.180  1.00  0.00     0.071 A 
HETATM    4  C3  UNL     1      20.004   1.649  49.768  1.00  0.00     0.161 A 
HETATM    5  O2  UNL     1      20.204   1.988  48.460  1.00  0.00    -0.321 OA
HETATM    6  C4  UNL     1      21.519   2.362  48.816  1.00  0.00     0.087 A 
HETATM    7  C5  UNL     1      22.667   2.860  48.285  1.00  0.00     0.017 C 
HETATM    8  C6  UNL     1      23.633   2.946  49.428  1.00  0.00     0.024 C 
HETATM    9  C7  UNL     1      24.930   3.351  49.572  1.00  0.00     0.006 C 
HETATM   10  C8  UNL     1      25.536   3.274  50.901  1.00  0.00     0.089 C 
HETATM   11  C9  UNL     1      24.687   2.762  51.997  1.00  0.00     0.163 C 
HETATM   12  O3  UNL     1      24.358   3.435  53.001  1.00  0.00    -0.292 OA
HETATM   13  C10 UNL     1      23.956   1.596  52.467  1.00  0.00     0.060 A 
HETATM   14  C11 UNL     1      24.805   0.789  53.237  1.00  0.00     0.121 A 
HETATM   15  C12 UNL     1      24.454  -0.432  53.831  1.00  0.00     0.041 A 
HETATM   16  C13 UNL     1      23.163  -0.848  53.628  1.00  0.00     0.004 A 
HETATM   17  C14 UNL     1      22.321  -0.035  52.860  1.00  0.00     0.017 A 
HETATM   18  C15 UNL     1      22.678   1.160  52.282  1.00  0.00     0.032 A 
ENDROOT
BRANCH  14  19
HETATM   19  O4  UNL     1      26.099   1.329  53.379  1.00  0.00    -0.199 OA
BRANCH  19  20
HETATM   20  O5  UNL     1      26.433   1.756  54.588  1.00  0.00    -0.245 OA
HETATM   21  H7  UNL     1      27.324   1.456  54.892  1.00  0.00     0.254 HD
ENDBRANCH  19  20
ENDBRANCH  14  19
TORSDOF 2
ENDMDL
MODEL 9
REMARK VINA RESULT:      -7.0      2.677      5.717
REMARK  2 active torsions:
REMARK  status: ('A' for Active; 'I' for Inactive)
REMARK    1  A    between atoms: C11_14  and  O4_15 
REMARK    2  A    between atoms: O4_15  and  O5_16 
ROOT
HETATM    1  O1  UNL     1      22.071   1.600  50.323  1.00  0.00    -0.286 OA
HETATM    2  C1  UNL     1      22.668   1.695  51.423  1.00  0.00     0.198 C 
HETATM    3  C2  UNL     1      22.957   0.626  52.341  1.00  0.00     0.071 A 
HETATM    4  C3  UNL     1      22.015  -0.142  52.865  1.00  0.00     0.161 A 
HETATM    5  O2  UNL     1      22.862  -0.918  53.603  1.00  0.00    -0.321 OA
HETATM    6  C4  UNL     1      23.928  -0.146  53.091  1.00  0.00     0.087 A 
HETATM    7  C5  UNL     1      25.281  -0.022  53.150  1.00  0.00     0.017 C 
HETATM    8  C6  UNL     1      25.617   1.127  52.249  1.00  0.00     0.024 C 
HETATM    9  C7  UNL     1      26.769   1.757  51.871  1.00  0.00     0.006 C 
HETATM   10  C8  UNL     1      26.671   2.883  50.943  1.00  0.00     0.089 C 
HETATM   11  C9  UNL     1      25.318   3.252  50.477  1.00  0.00     0.163 C 
HETATM   12  O3  UNL     1      24.949   3.195  49.281  1.00  0.00    -0.292 OA
HETATM   13  C10 UNL     1      24.020   3.741  50.914  1.00  0.00     0.060 A 
HETATM   14  C11 UNL     1      24.015   5.142  50.890  1.00  0.00     0.121 A 
HETATM   15  C12 UNL     1      22.943   5.961  51.274  1.00  0.00     0.041 A 
HETATM   16  C13 UNL     1      21.814   5.309  51.702  1.00  0.00     0.004 A 
HETATM   17  C14 UNL     1      21.827   3.910  51.720  1.00  0.00     0.017 A 
HETATM   18  C15 UNL     1      22.886   3.119  51.343  1.00  0.00     0.032 A 
ENDROOT
BRANCH  14  19
HETATM   19  O4  UNL     1      25.226   5.691  50.424  1.00  0.00    -0.199 OA
BRANCH  19  20
HETATM   20  O5  UNL     1      25.589   6.854  50.944  1.00  0.00    -0.245 OA
HETATM   21  H7  UNL     1      24.890   7.288  51.492  1.00  0.00     0.254 HD
ENDBRANCH  19  20
ENDBRANCH  14  19
TORSDOF 2
ENDMDL
