MODEL 1
REMARK VINA RESULT:      -8.3      0.000      0.000
REMARK  5 active torsions:
REMARK  status: ('A' for Active; 'I' for Inactive)
REMARK    1  A    between atoms: C2_2  and  C3_3 
REMARK    2  A    between atoms: C4_4  and  C5_5 
REMARK    3  A    between atoms: N2_7  and  C6_8 
REMARK    4  A    between atoms: C9_11  and  N3_12 
REMARK    5  A    between atoms: C19_25  and  N7_26 
ROOT
HETATM    1  C5  UNL     1      24.731   0.708  52.658  1.00  0.00     0.095 A 
HETATM    2  N1  UNL     1      24.555   1.639  51.702  1.00  0.00    -0.170 NA
HETATM    3  N2  UNL     1      25.615   2.421  51.613  1.00  0.00    -0.246 N 
HETATM    4  C17 UNL     1      26.531   2.016  52.527  1.00  0.00     0.164 A 
HETATM    5  N5  UNL     1      27.779   2.386  52.926  1.00  0.00    -0.222 NA
HETATM    6  C18 UNL     1      28.418   1.720  53.914  1.00  0.00     0.237 A 
HETATM    7  N6  UNL     1      27.867   0.667  54.551  1.00  0.00    -0.224 NA
HETATM    8  C19 UNL     1      26.617   0.237  54.205  1.00  0.00     0.139 A 
HETATM    9  C20 UNL     1      25.974   0.932  53.189  1.00  0.00     0.087 A 
ENDROOT
BRANCH   3  10
HETATM   10  C6  UNL     1      25.951   3.557  50.774  1.00  0.00     0.112 C 
HETATM   11  C7  UNL     1      24.688   4.271  50.358  1.00  0.00     0.029 C 
HETATM   12  C8  UNL     1      24.924   5.101  49.087  1.00  0.00     0.027 C 
HETATM   13  C9  UNL     1      26.330   5.617  49.117  1.00  0.00     0.079 C 
HETATM   14  C15 UNL     1      27.269   4.444  48.935  1.00  0.00     0.027 C 
HETATM   15  C16 UNL     1      26.661   3.167  49.524  1.00  0.00     0.029 C 
BRANCH  13  16
HETATM   16  N3  UNL     1      26.625   6.580  48.129  1.00  0.00    -0.405 N 
HETATM   17  C10 UNL     1      25.696   7.636  47.936  1.00  0.00     0.147 C 
HETATM   18  C11 UNL     1      26.244   8.976  47.605  1.00  0.00     0.291 C 
HETATM   19  N4  UNL     1      27.548   9.270  48.101  1.00  0.00     0.087 N 
HETATM   20  C12 UNL     1      27.627  10.344  49.045  1.00  0.00     0.310 C 
HETATM   21  C13 UNL     1      28.339   8.164  48.510  1.00  0.00     0.291 C 
HETATM   22  C14 UNL     1      27.963   6.863  47.844  1.00  0.00     0.147 C 
ENDBRANCH  13  16
ENDBRANCH   3  10
BRANCH   1  23
HETATM   23  C4  UNL     1      23.730  -0.300  52.987  1.00  0.00     0.034 C 
HETATM   24  C3  UNL     1      22.481   0.105  53.145  1.00  0.00    -0.002 C 
BRANCH  24  25
HETATM   25  C2  UNL     1      22.081   1.500  53.001  1.00  0.00    -0.026 C 
HETATM   26  C1  UNL     1      20.894   1.961  52.571  1.00  0.00     0.031 C 
ENDBRANCH  24  25
ENDBRANCH   1  23
BRANCH   8  27
HETATM   27  N7  UNL     1      25.983  -0.867  54.838  1.00  0.00    -0.383 N 
HETATM   28  H28 UNL     1      25.079  -0.482  55.224  1.00  0.00     0.157 HD
HETATM   29  H29 UNL     1      26.408  -1.823  54.863  1.00  0.00     0.157 HD
ENDBRANCH   8  27
TORSDOF 5
ENDMDL
MODEL 2
REMARK VINA RESULT:      -8.1      4.109      5.661
REMARK  5 active torsions:
REMARK  status: ('A' for Active; 'I' for Inactive)
REMARK    1  A    between atoms: C2_2  and  C3_3 
REMARK    2  A    between atoms: C4_4  and  C5_5 
REMARK    3  A    between atoms: N2_7  and  C6_8 
REMARK    4  A    between atoms: C9_11  and  N3_12 
REMARK    5  A    between atoms: C19_25  and  N7_26 
ROOT
HETATM    1  C5  UNL     1      25.038   0.436  53.897  1.00  0.00     0.095 A 
HETATM    2  N1  UNL     1      24.716   1.235  52.863  1.00  0.00    -0.170 NA
HETATM    3  N2  UNL     1      23.453   1.064  52.519  1.00  0.00    -0.246 N 
HETATM    4  C17 UNL     1      22.903   0.130  53.334  1.00  0.00     0.164 A 
HETATM    5  N5  UNL     1      21.692  -0.470  53.494  1.00  0.00    -0.222 NA
HETATM    6  C18 UNL     1      21.501  -1.400  54.457  1.00  0.00     0.237 A 
HETATM    7  N6  UNL     1      22.482  -1.780  55.301  1.00  0.00    -0.224 NA
HETATM    8  C19 UNL     1      23.725  -1.222  55.201  1.00  0.00     0.139 A 
HETATM    9  C20 UNL     1      23.904  -0.269  54.207  1.00  0.00     0.087 A 
ENDROOT
BRANCH   3  10
HETATM   10  C6  UNL     1      22.608   1.655  51.496  1.00  0.00     0.112 C 
HETATM   11  C7  UNL     1      23.468   2.256  50.413  1.00  0.00     0.029 C 
HETATM   12  C8  UNL     1      22.691   3.324  49.629  1.00  0.00     0.027 C 
HETATM   13  C9  UNL     1      21.253   2.908  49.566  1.00  0.00     0.079 C 
HETATM   14  C15 UNL     1      20.667   3.016  50.958  1.00  0.00     0.027 C 
HETATM   15  C16 UNL     1      21.740   2.747  52.019  1.00  0.00     0.029 C 
BRANCH  13  16
HETATM   16  N3  UNL     1      20.456   3.672  48.688  1.00  0.00    -0.405 N 
HETATM   17  C10 UNL     1      20.617   5.082  48.706  1.00  0.00     0.147 C 
HETATM   18  C11 UNL     1      20.500   5.800  47.411  1.00  0.00     0.291 C 
HETATM   19  N4  UNL     1      20.860   5.067  46.243  1.00  0.00     0.087 N 
HETATM   20  C12 UNL     1      21.987   5.571  45.516  1.00  0.00     0.310 C 
HETATM   21  C13 UNL     1      20.917   3.654  46.369  1.00  0.00     0.291 C 
HETATM   22  C14 UNL     1      20.053   3.102  47.477  1.00  0.00     0.147 C 
ENDBRANCH  13  16
ENDBRANCH   3  10
BRANCH   1  23
HETATM   23  C4  UNL     1      26.366   0.402  54.500  1.00  0.00     0.034 C 
HETATM   24  C3  UNL     1      27.304  -0.290  53.876  1.00  0.00    -0.002 C 
BRANCH  24  25
HETATM   25  C2  UNL     1      27.058  -1.007  52.630  1.00  0.00    -0.026 C 
HETATM   26  C1  UNL     1      27.050  -2.338  52.450  1.00  0.00     0.031 C 
ENDBRANCH  24  25
ENDBRANCH   1  23
BRANCH   8  27
HETATM   27  N7  UNL     1      24.799  -1.580  56.060  1.00  0.00    -0.383 N 
HETATM   28  H28 UNL     1      25.167  -0.667  56.438  1.00  0.00     0.157 HD
HETATM   29  H29 UNL     1      25.086  -2.574  56.218  1.00  0.00     0.157 HD
ENDBRANCH   8  27
TORSDOF 5
ENDMDL
MODEL 3
REMARK VINA RESULT:      -7.9      5.994      8.642
REMARK  5 active torsions:
REMARK  status: ('A' for Active; 'I' for Inactive)
REMARK    1  A    between atoms: C2_2  and  C3_3 
REMARK    2  A    between atoms: C4_4  and  C5_5 
REMARK    3  A    between atoms: N2_7  and  C6_8 
REMARK    4  A    between atoms: C9_11  and  N3_12 
REMARK    5  A    between atoms: C19_25  and  N7_26 
ROOT
HETATM    1  C5  UNL     1      33.175   3.908  47.547  1.00  0.00     0.095 A 
HETATM    2  N1  UNL     1      32.113   4.524  48.097  1.00  0.00    -0.170 NA
HETATM    3  N2  UNL     1      31.692   5.507  47.321  1.00  0.00    -0.246 N 
HETATM    4  C17 UNL     1      32.484   5.561  46.221  1.00  0.00     0.164 A 
HETATM    5  N5  UNL     1      32.576   6.312  45.090  1.00  0.00    -0.222 NA
HETATM    6  C18 UNL     1      33.537   6.067  44.171  1.00  0.00     0.237 A 
HETATM    7  N6  UNL     1      34.445   5.081  44.318  1.00  0.00    -0.224 NA
HETATM    8  C19 UNL     1      34.416   4.285  45.428  1.00  0.00     0.139 A 
HETATM    9  C20 UNL     1      33.423   4.550  46.362  1.00  0.00     0.087 A 
ENDROOT
BRANCH   3  10
HETATM   10  C6  UNL     1      30.612   6.471  47.427  1.00  0.00     0.112 C 
HETATM   11  C7  UNL     1      31.073   7.662  48.229  1.00  0.00     0.029 C 
HETATM   12  C8  UNL     1      29.875   8.420  48.819  1.00  0.00     0.027 C 
HETATM   13  C9  UNL     1      28.734   8.322  47.851  1.00  0.00     0.079 C 
HETATM   14  C15 UNL     1      28.252   6.887  47.832  1.00  0.00     0.027 C 
HETATM   15  C16 UNL     1      29.409   5.923  48.114  1.00  0.00     0.029 C 
BRANCH  13  16
HETATM   16  N3  UNL     1      27.636   9.156  48.148  1.00  0.00    -0.405 N 
HETATM   17  C10 UNL     1      26.385   8.838  47.557  1.00  0.00     0.147 C 
HETATM   18  C11 UNL     1      25.165   9.076  48.370  1.00  0.00     0.291 C 
HETATM   19  N4  UNL     1      25.317   8.986  49.785  1.00  0.00     0.087 N 
HETATM   20  C12 UNL     1      24.579   7.937  50.424  1.00  0.00     0.310 C 
HETATM   21  C13 UNL     1      26.641   9.068  50.291  1.00  0.00     0.291 C 
HETATM   22  C14 UNL     1      27.598   9.804  49.386  1.00  0.00     0.147 C 
ENDBRANCH  13  16
ENDBRANCH   3  10
BRANCH   1  23
HETATM   23  C4  UNL     1      33.859   2.781  48.172  1.00  0.00     0.034 C 
HETATM   24  C3  UNL     1      33.415   1.566  47.898  1.00  0.00    -0.002 C 
BRANCH  24  25
HETATM   25  C2  UNL     1      32.286   1.322  47.008  1.00  0.00    -0.026 C 
HETATM   26  C1  UNL     1      31.838   0.130  46.579  1.00  0.00     0.031 C 
ENDBRANCH  24  25
ENDBRANCH   1  23
BRANCH   8  27
HETATM   27  N7  UNL     1      35.344   3.230  45.640  1.00  0.00    -0.383 N 
HETATM   28  H28 UNL     1      35.849   3.117  44.720  1.00  0.00     0.157 HD
HETATM   29  H29 UNL     1      35.431   2.731  46.556  1.00  0.00     0.157 HD
ENDBRANCH   8  27
TORSDOF 5
ENDMDL
MODEL 4
REMARK VINA RESULT:      -7.9      3.669      8.667
REMARK  5 active torsions:
REMARK  status: ('A' for Active; 'I' for Inactive)
REMARK    1  A    between atoms: C2_2  and  C3_3 
REMARK    2  A    between atoms: C4_4  and  C5_5 
REMARK    3  A    between atoms: N2_7  and  C6_8 
REMARK    4  A    between atoms: C9_11  and  N3_12 
REMARK    5  A    between atoms: C19_25  and  N7_26 
ROOT
HETATM    1  C5  UNL     1      24.991   1.432  53.066  1.00  0.00     0.095 A 
HETATM    2  N1  UNL     1      23.764   0.941  53.315  1.00  0.00    -0.170 NA
HETATM    3  N2  UNL     1      22.910   1.326  52.384  1.00  0.00    -0.246 N 
HETATM    4  C17 UNL     1      23.570   2.097  51.483  1.00  0.00     0.164 A 
HETATM    5  N5  UNL     1      23.276   2.772  50.339  1.00  0.00    -0.222 NA
HETATM    6  C18 UNL     1      24.230   3.464  49.677  1.00  0.00     0.237 A 
HETATM    7  N6  UNL     1      25.508   3.523  50.103  1.00  0.00    -0.224 NA
HETATM    8  C19 UNL     1      25.879   2.870  51.245  1.00  0.00     0.139 A 
HETATM    9  C20 UNL     1      24.887   2.165  51.913  1.00  0.00     0.087 A 
ENDROOT
BRANCH   3  10
HETATM   10  C6  UNL     1      21.494   1.091  52.168  1.00  0.00     0.112 C 
HETATM   11  C7  UNL     1      20.920   0.342  53.344  1.00  0.00     0.029 C 
HETATM   12  C8  UNL     1      19.626  -0.385  52.949  1.00  0.00     0.027 C 
HETATM   13  C9  UNL     1      18.914   0.445  51.924  1.00  0.00     0.079 C 
HETATM   14  C15 UNL     1      19.724   0.414  50.646  1.00  0.00     0.027 C 
HETATM   15  C16 UNL     1      21.219   0.272  50.954  1.00  0.00     0.029 C 
BRANCH  13  16
HETATM   16  N3  UNL     1      17.602   0.019  51.629  1.00  0.00    -0.405 N 
HETATM   17  C10 UNL     1      16.825  -0.514  52.691  1.00  0.00     0.147 C 
HETATM   18  C11 UNL     1      15.371  -0.211  52.692  1.00  0.00     0.291 C 
HETATM   19  N4  UNL     1      14.976   1.013  52.078  1.00  0.00     0.087 N 
HETATM   20  C12 UNL     1      14.372   1.978  52.949  1.00  0.00     0.310 C 
HETATM   21  C13 UNL     1      15.916   1.623  51.206  1.00  0.00     0.291 C 
HETATM   22  C14 UNL     1      16.904   0.656  50.600  1.00  0.00     0.147 C 
ENDBRANCH  13  16
ENDBRANCH   3  10
BRANCH   1  23
HETATM   23  C4  UNL     1      26.145   1.176  53.921  1.00  0.00     0.034 C 
HETATM   24  C3  UNL     1      26.914   0.143  53.618  1.00  0.00    -0.002 C 
BRANCH  24  25
HETATM   25  C2  UNL     1      26.650  -0.729  52.480  1.00  0.00    -0.026 C 
HETATM   26  C1  UNL     1      26.800  -2.064  52.431  1.00  0.00     0.031 C 
ENDBRANCH  24  25
ENDBRANCH   1  23
BRANCH   8  27
HETATM   27  N7  UNL     1      27.209   2.894  51.745  1.00  0.00    -0.383 N 
HETATM   28  H28 UNL     1      27.109   2.974  52.792  1.00  0.00     0.157 HD
HETATM   29  H29 UNL     1      28.047   2.839  51.120  1.00  0.00     0.157 HD
ENDBRANCH   8  27
TORSDOF 5
ENDMDL
MODEL 5
REMARK VINA RESULT:      -7.7      5.240      7.493
REMARK  5 active torsions:
REMARK  status: ('A' for Active; 'I' for Inactive)
REMARK    1  A    between atoms: C2_2  and  C3_3 
REMARK    2  A    between atoms: C4_4  and  C5_5 
REMARK    3  A    between atoms: N2_7  and  C6_8 
REMARK    4  A    between atoms: C9_11  and  N3_12 
REMARK    5  A    between atoms: C19_25  and  N7_26 
ROOT
HETATM    1  C5  UNL     1      24.647   0.655  53.265  1.00  0.00     0.095 A 
HETATM    2  N1  UNL     1      23.898   1.170  52.273  1.00  0.00    -0.170 NA
HETATM    3  N2  UNL     1      22.674   0.677  52.309  1.00  0.00    -0.246 N 
HETATM    4  C17 UNL     1      22.586  -0.192  53.346  1.00  0.00     0.164 A 
HETATM    5  N5  UNL     1      21.639  -0.997  53.900  1.00  0.00    -0.222 NA
HETATM    6  C18 UNL     1      21.922  -1.760  54.980  1.00  0.00     0.237 A 
HETATM    7  N6  UNL     1      23.139  -1.768  55.562  1.00  0.00    -0.224 NA
HETATM    8  C19 UNL     1      24.141  -0.985  55.062  1.00  0.00     0.139 A 
HETATM    9  C20 UNL     1      23.834  -0.208  53.953  1.00  0.00     0.087 A 
ENDROOT
BRANCH   3  10
HETATM   10  C6  UNL     1      21.490   0.884  51.495  1.00  0.00     0.112 C 
HETATM   11  C7  UNL     1      21.890   1.434  50.149  1.00  0.00     0.029 C 
HETATM   12  C8  UNL     1      20.710   2.157  49.482  1.00  0.00     0.027 C 
HETATM   13  C9  UNL     1      19.446   1.455  49.873  1.00  0.00     0.079 C 
HETATM   14  C15 UNL     1      19.205   1.700  51.348  1.00  0.00     0.027 C 
HETATM   15  C16 UNL     1      20.534   1.856  52.095  1.00  0.00     0.029 C 
BRANCH  13  16
HETATM   16  N3  UNL     1      18.299   1.865  49.161  1.00  0.00    -0.405 N 
HETATM   17  C10 UNL     1      17.046   1.333  49.563  1.00  0.00     0.147 C 
HETATM   18  C11 UNL     1      15.865   2.232  49.483  1.00  0.00     0.291 C 
HETATM   19  N4  UNL     1      16.117   3.627  49.631  1.00  0.00     0.087 N 
HETATM   20  C12 UNL     1      15.520   4.248  50.776  1.00  0.00     0.310 C 
HETATM   21  C13 UNL     1      17.459   4.056  49.453  1.00  0.00     0.291 C 
HETATM   22  C14 UNL     1      18.285   3.138  48.585  1.00  0.00     0.147 C 
ENDBRANCH  13  16
ENDBRANCH   3  10
BRANCH   1  23
HETATM   23  C4  UNL     1      26.045   1.011  53.482  1.00  0.00     0.034 C 
HETATM   24  C3  UNL     1      26.966   0.241  52.927  1.00  0.00    -0.002 C 
BRANCH  24  25
HETATM   25  C2  UNL     1      26.635  -0.929  52.122  1.00  0.00    -0.026 C 
HETATM   26  C1  UNL     1      26.942  -2.209  52.390  1.00  0.00     0.031 C 
ENDBRANCH  24  25
ENDBRANCH   1  23
BRANCH   8  27
HETATM   27  N7  UNL     1      25.443  -0.949  55.631  1.00  0.00    -0.383 N 
HETATM   28  H28 UNL     1      26.089  -0.717  54.829  1.00  0.00     0.157 HD
HETATM   29  H29 UNL     1      25.619  -1.131  56.646  1.00  0.00     0.157 HD
ENDBRANCH   8  27
TORSDOF 5
ENDMDL
MODEL 6
REMARK VINA RESULT:      -7.6      1.622      3.449
REMARK  5 active torsions:
REMARK  status: ('A' for Active; 'I' for Inactive)
REMARK    1  A    between atoms: C2_2  and  C3_3 
REMARK    2  A    between atoms: C4_4  and  C5_5 
REMARK    3  A    between atoms: N2_7  and  C6_8 
REMARK    4  A    between atoms: C9_11  and  N3_12 
REMARK    5  A    between atoms: C19_25  and  N7_26 
ROOT
HETATM    1  C5  UNL     1      25.989   1.307  51.573  1.00  0.00     0.095 A 
HETATM    2  N1  UNL     1      26.457   2.258  50.744  1.00  0.00    -0.170 NA
HETATM    3  N2  UNL     1      25.526   3.162  50.499  1.00  0.00    -0.246 N 
HETATM    4  C17 UNL     1      24.401   2.819  51.174  1.00  0.00     0.164 A 
HETATM    5  N5  UNL     1      23.142   3.311  51.336  1.00  0.00    -0.222 NA
HETATM    6  C18 UNL     1      22.244   2.674  52.122  1.00  0.00     0.237 A 
HETATM    7  N6  UNL     1      22.538   1.534  52.779  1.00  0.00    -0.224 NA
HETATM    8  C19 UNL     1      23.781   0.980  52.664  1.00  0.00     0.139 A 
HETATM    9  C20 UNL     1      24.691   1.646  51.854  1.00  0.00     0.087 A 
ENDROOT
BRANCH   3  10
HETATM   10  C6  UNL     1      25.493   4.369  49.694  1.00  0.00     0.112 C 
HETATM   11  C7  UNL     1      26.826   4.561  49.013  1.00  0.00     0.029 C 
HETATM   12  C8  UNL     1      27.029   6.030  48.614  1.00  0.00     0.027 C 
HETATM   13  C9  UNL     1      25.694   6.607  48.249  1.00  0.00     0.079 C 
HETATM   14  C15 UNL     1      24.862   6.709  49.510  1.00  0.00     0.027 C 
HETATM   15  C16 UNL     1      25.234   5.597  50.496  1.00  0.00     0.029 C 
BRANCH  13  16
HETATM   16  N3  UNL     1      25.748   7.881  47.647  1.00  0.00    -0.405 N 
HETATM   17  C10 UNL     1      25.203   8.976  48.367  1.00  0.00     0.147 C 
HETATM   18  C11 UNL     1      25.894  10.286  48.245  1.00  0.00     0.291 C 
HETATM   19  N4  UNL     1      27.295  10.243  47.984  1.00  0.00     0.087 N 
HETATM   20  C12 UNL     1      28.135  10.790  49.008  1.00  0.00     0.310 C 
HETATM   21  C13 UNL     1      27.815   9.018  47.490  1.00  0.00     0.291 C 
HETATM   22  C14 UNL     1      26.798   8.167  46.770  1.00  0.00     0.147 C 
ENDBRANCH  13  16
ENDBRANCH   3  10
BRANCH   1  23
HETATM   23  C4  UNL     1      26.789   0.175  52.026  1.00  0.00     0.034 C 
HETATM   24  C3  UNL     1      27.603   0.370  53.050  1.00  0.00    -0.002 C 
BRANCH  24  25
HETATM   25  C2  UNL     1      27.723   1.656  53.727  1.00  0.00    -0.026 C 
HETATM   26  C1  UNL     1      28.770   2.498  53.685  1.00  0.00     0.031 C 
ENDBRANCH  24  25
ENDBRANCH   1  23
BRANCH   8  27
HETATM   27  N7  UNL     1      24.151  -0.219  53.332  1.00  0.00    -0.383 N 
HETATM   28  H28 UNL     1      23.358  -0.892  53.153  1.00  0.00     0.157 HD
HETATM   29  H29 UNL     1      25.047  -0.315  53.865  1.00  0.00     0.157 HD
ENDBRANCH   8  27
TORSDOF 5
ENDMDL
MODEL 7
REMARK VINA RESULT:      -7.5      1.755      2.089
REMARK  5 active torsions:
REMARK  status: ('A' for Active; 'I' for Inactive)
REMARK    1  A    between atoms: C2_2  and  C3_3 
REMARK    2  A    between atoms: C4_4  and  C5_5 
REMARK    3  A    between atoms: N2_7  and  C6_8 
REMARK    4  A    between atoms: C9_11  and  N3_12 
REMARK    5  A    between atoms: C19_25  and  N7_26 
ROOT
HETATM    1  C5  UNL     1      23.690  -0.045  53.161  1.00  0.00     0.095 A 
HETATM    2  N1  UNL     1      23.528   0.988  52.314  1.00  0.00    -0.170 NA
HETATM    3  N2  UNL     1      24.570   1.797  52.361  1.00  0.00    -0.246 N 
HETATM    4  C17 UNL     1      25.460   1.307  53.259  1.00  0.00     0.164 A 
HETATM    5  N5  UNL     1      26.681   1.654  53.750  1.00  0.00    -0.222 NA
HETATM    6  C18 UNL     1      27.298   0.889  54.679  1.00  0.00     0.237 A 
HETATM    7  N6  UNL     1      26.750  -0.243  55.165  1.00  0.00    -0.224 NA
HETATM    8  C19 UNL     1      25.526  -0.656  54.720  1.00  0.00     0.139 A 
HETATM    9  C20 UNL     1      24.906   0.141  53.766  1.00  0.00     0.087 A 
ENDROOT
BRANCH   3  10
HETATM   10  C6  UNL     1      24.908   3.031  51.674  1.00  0.00     0.112 C 
HETATM   11  C7  UNL     1      23.685   3.907  51.574  1.00  0.00     0.029 C 
HETATM   12  C8  UNL     1      23.834   4.924  50.433  1.00  0.00     0.027 C 
HETATM   13  C9  UNL     1      25.279   5.310  50.333  1.00  0.00     0.079 C 
HETATM   14  C15 UNL     1      26.054   4.114  49.824  1.00  0.00     0.027 C 
HETATM   15  C16 UNL     1      25.398   2.807  50.285  1.00  0.00     0.029 C 
BRANCH  13  16
HETATM   16  N3  UNL     1      25.539   6.403  49.480  1.00  0.00    -0.405 N 
HETATM   17  C10 UNL     1      24.895   6.424  48.215  1.00  0.00     0.147 C 
HETATM   18  C11 UNL     1      24.463   7.744  47.690  1.00  0.00     0.291 C 
HETATM   19  N4  UNL     1      24.141   8.739  48.659  1.00  0.00     0.087 N 
HETATM   20  C12 UNL     1      22.779   9.183  48.665  1.00  0.00     0.310 C 
HETATM   21  C13 UNL     1      24.620   8.524  49.978  1.00  0.00     0.291 C 
HETATM   22  C14 UNL     1      25.843   7.643  50.049  1.00  0.00     0.147 C 
ENDBRANCH  13  16
ENDBRANCH   3  10
BRANCH   1  23
HETATM   23  C4  UNL     1      22.704  -1.106  53.328  1.00  0.00     0.034 C 
HETATM   24  C3  UNL     1      21.471  -0.752  53.649  1.00  0.00    -0.002 C 
BRANCH  24  25
HETATM   25  C2  UNL     1      21.074   0.639  53.836  1.00  0.00    -0.026 C 
HETATM   26  C1  UNL     1      20.199   1.338  53.094  1.00  0.00     0.031 C 
ENDBRANCH  24  25
ENDBRANCH   1  23
BRANCH   8  27
HETATM   27  N7  UNL     1      24.896  -1.839  55.193  1.00  0.00    -0.383 N 
HETATM   28  H28 UNL     1      23.865  -1.617  55.206  1.00  0.00     0.157 HD
HETATM   29  H29 UNL     1      25.434  -2.699  55.450  1.00  0.00     0.157 HD
ENDBRANCH   8  27
TORSDOF 5
ENDMDL
MODEL 8
REMARK VINA RESULT:      -7.4      2.316      3.553
REMARK  5 active torsions:
REMARK  status: ('A' for Active; 'I' for Inactive)
REMARK    1  A    between atoms: C2_2  and  C3_3 
REMARK    2  A    between atoms: C4_4  and  C5_5 
REMARK    3  A    between atoms: N2_7  and  C6_8 
REMARK    4  A    between atoms: C9_11  and  N3_12 
REMARK    5  A    between atoms: C19_25  and  N7_26 
ROOT
HETATM    1  C5  UNL     1      23.528   3.841  50.499  1.00  0.00     0.095 A 
HETATM    2  N1  UNL     1      24.140   4.885  49.911  1.00  0.00    -0.170 NA
HETATM    3  N2  UNL     1      25.452   4.741  49.957  1.00  0.00    -0.246 N 
HETATM    4  C17 UNL     1      25.739   3.577  50.590  1.00  0.00     0.164 A 
HETATM    5  N5  UNL     1      26.852   2.879  50.944  1.00  0.00    -0.222 NA
HETATM    6  C18 UNL     1      26.753   1.698  51.595  1.00  0.00     0.237 A 
HETATM    7  N6  UNL     1      25.565   1.151  51.924  1.00  0.00    -0.224 NA
HETATM    8  C19 UNL     1      24.403   1.793  51.601  1.00  0.00     0.139 A 
HETATM    9  C20 UNL     1      24.523   3.005  50.933  1.00  0.00     0.087 A 
ENDROOT
BRANCH   3  10
HETATM   10  C6  UNL     1      26.562   5.550  49.486  1.00  0.00     0.112 C 
HETATM   11  C7  UNL     1      26.034   6.740  48.724  1.00  0.00     0.029 C 
HETATM   12  C8  UNL     1      27.106   7.301  47.778  1.00  0.00     0.027 C 
HETATM   13  C9  UNL     1      28.447   7.115  48.422  1.00  0.00     0.079 C 
HETATM   14  C15 UNL     1      28.758   5.634  48.448  1.00  0.00     0.027 C 
HETATM   15  C16 UNL     1      27.470   4.811  48.565  1.00  0.00     0.029 C 
BRANCH  13  16
HETATM   16  N3  UNL     1      29.509   7.781  47.776  1.00  0.00    -0.405 N 
HETATM   17  C10 UNL     1      29.193   8.912  46.978  1.00  0.00     0.147 C 
HETATM   18  C11 UNL     1      30.160  10.039  46.978  1.00  0.00     0.291 C 
HETATM   19  N4  UNL     1      30.940  10.208  48.159  1.00  0.00     0.087 N 
HETATM   20  C12 UNL     1      30.727  11.431  48.875  1.00  0.00     0.310 C 
HETATM   21  C13 UNL     1      31.010   9.099  49.042  1.00  0.00     0.291 C 
HETATM   22  C14 UNL     1      30.773   7.767  48.372  1.00  0.00     0.147 C 
ENDBRANCH  13  16
ENDBRANCH   3  10
BRANCH   1  23
HETATM   23  C4  UNL     1      22.078   3.717  50.603  1.00  0.00     0.034 C 
HETATM   24  C3  UNL     1      21.421   3.299  49.534  1.00  0.00    -0.002 C 
BRANCH  24  25
HETATM   25  C2  UNL     1      22.087   2.965  48.280  1.00  0.00    -0.026 C 
HETATM   26  C1  UNL     1      22.277   1.737  47.767  1.00  0.00     0.031 C 
ENDBRANCH  24  25
ENDBRANCH   1  23
BRANCH   8  27
HETATM   27  N7  UNL     1      23.122   1.268  51.920  1.00  0.00    -0.383 N 
HETATM   28  H28 UNL     1      22.907   0.578  51.152  1.00  0.00     0.157 HD
HETATM   29  H29 UNL     1      22.584   1.570  52.766  1.00  0.00     0.157 HD
ENDBRANCH   8  27
TORSDOF 5
ENDMDL
MODEL 9
REMARK VINA RESULT:      -7.4      4.887      8.475
REMARK  5 active torsions:
REMARK  status: ('A' for Active; 'I' for Inactive)
REMARK    1  A    between atoms: C2_2  and  C3_3 
REMARK    2  A    between atoms: C4_4  and  C5_5 
REMARK    3  A    between atoms: N2_7  and  C6_8 
REMARK    4  A    between atoms: C9_11  and  N3_12 
REMARK    5  A    between atoms: C19_25  and  N7_26 
ROOT
HETATM    1  C5  UNL     1      32.346   4.670  47.702  1.00  0.00     0.095 A 
HETATM    2  N1  UNL     1      31.004   4.634  47.780  1.00  0.00    -0.170 NA
HETATM    3  N2  UNL     1      30.529   5.801  48.176  1.00  0.00    -0.246 N 
HETATM    4  C17 UNL     1      31.570   6.648  48.373  1.00  0.00     0.164 A 
HETATM    5  N5  UNL     1      31.749   7.939  48.765  1.00  0.00    -0.222 NA
HETATM    6  C18 UNL     1      32.989   8.473  48.849  1.00  0.00     0.237 A 
HETATM    7  N6  UNL     1      34.101   7.770  48.555  1.00  0.00    -0.224 NA
HETATM    8  C19 UNL     1      34.001   6.467  48.154  1.00  0.00     0.139 A 
HETATM    9  C20 UNL     1      32.721   5.935  48.073  1.00  0.00     0.087 A 
ENDROOT
BRANCH   3  10
HETATM   10  C6  UNL     1      29.189   6.303  48.423  1.00  0.00     0.112 C 
HETATM   11  C7  UNL     1      28.249   5.146  48.652  1.00  0.00     0.029 C 
HETATM   12  C8  UNL     1      26.796   5.562  48.380  1.00  0.00     0.027 C 
HETATM   13  C9  UNL     1      26.635   6.998  48.778  1.00  0.00     0.079 C 
HETATM   14  C15 UNL     1      27.420   7.850  47.803  1.00  0.00     0.027 C 
HETATM   15  C16 UNL     1      28.643   7.088  47.281  1.00  0.00     0.029 C 
BRANCH  13  16
HETATM   16  N3  UNL     1      25.302   7.458  48.797  1.00  0.00    -0.405 N 
HETATM   17  C10 UNL     1      24.296   6.595  48.288  1.00  0.00     0.147 C 
HETATM   18  C11 UNL     1      22.976   6.608  48.969  1.00  0.00     0.291 C 
HETATM   19  N4  UNL     1      22.979   6.945  50.355  1.00  0.00     0.087 N 
HETATM   20  C12 UNL     1      22.541   5.912  51.246  1.00  0.00     0.310 C 
HETATM   21  C13 UNL     1      24.139   7.597  50.851  1.00  0.00     0.291 C 
HETATM   22  C14 UNL     1      24.914   8.352  49.799  1.00  0.00     0.147 C 
ENDBRANCH  13  16
ENDBRANCH   3  10
BRANCH   1  23
HETATM   23  C4  UNL     1      33.155   3.528  47.290  1.00  0.00     0.034 C 
HETATM   24  C3  UNL     1      33.440   3.411  46.004  1.00  0.00    -0.002 C 
BRANCH  24  25
HETATM   25  C2  UNL     1      32.981   4.369  45.005  1.00  0.00    -0.026 C 
HETATM   26  C1  UNL     1      33.719   5.300  44.377  1.00  0.00     0.031 C 
ENDBRANCH  24  25
ENDBRANCH   1  23
BRANCH   8  27
HETATM   27  N7  UNL     1      35.135   5.674  47.830  1.00  0.00    -0.383 N 
HETATM   28  H28 UNL     1      35.746   5.702  48.690  1.00  0.00     0.157 HD
HETATM   29  H29 UNL     1      35.247   5.203  46.902  1.00  0.00     0.157 HD
ENDBRANCH   8  27
TORSDOF 5
ENDMDL
