MODEL 1
REMARK VINA RESULT:      -8.7      0.000      0.000
REMARK  5 active torsions:
REMARK  status: ('A' for Active; 'I' for Inactive)
REMARK    1  A    between atoms: C3_3  and  N1_4 
REMARK    2  A    between atoms: N1_4  and  C4_5 
REMARK    3  A    between atoms: C4_5  and  C5_6 
REMARK    4  A    between atoms: C11_14  and  C12_15 
REMARK    5  A    between atoms: C12_15  and  O3_17 
ROOT
HETATM    1  C5  UNL     1      25.473   2.350  52.619  1.00  0.00     0.010 C 
HETATM    2  C6  UNL     1      24.414   2.083  51.872  1.00  0.00     0.042 A 
HETATM    3  C7  UNL     1      24.101   2.633  50.531  1.00  0.00     0.256 A 
HETATM    4  O1  UNL     1      24.810   3.447  49.894  1.00  0.00    -0.267 OA
HETATM    5  N2  UNL     1      22.869   2.003  50.241  1.00  0.00    -0.322 N 
HETATM    6  C8  UNL     1      22.384   1.132  51.237  1.00  0.00     0.046 A 
HETATM    7  C9  UNL     1      21.235   0.394  51.233  1.00  0.00     0.031 A 
HETATM    8  C10 UNL     1      20.966  -0.397  52.331  1.00  0.00     0.020 A 
HETATM    9  C11 UNL     1      21.870  -0.398  53.371  1.00  0.00     0.038 A 
HETATM   10  C13 UNL     1      23.011   0.366  53.322  1.00  0.00     0.033 A 
HETATM   11  C14 UNL     1      23.322   1.171  52.245  1.00  0.00     0.007 A 
HETATM   12  H8  UNL     1      22.442   2.257  49.300  1.00  0.00     0.169 HD
ENDROOT
BRANCH   1  13
HETATM   13  C4  UNL     1      26.221   2.140  53.857  1.00  0.00     0.148 C 
BRANCH  13  14
HETATM   14  N1  UNL     1      26.379   0.725  54.218  1.00  0.00    -0.389 N 
HETATM   15  H4  UNL     1      25.827   0.289  55.010  1.00  0.00     0.159 HD
BRANCH  14  16
HETATM   16  C3  UNL     1      27.230  -0.214  53.619  1.00  0.00     0.007 C 
HETATM   17  C2  UNL     1      28.541  -0.240  53.806  1.00  0.00    -0.061 C 
HETATM   18  C1  UNL     1      29.200   0.758  54.691  1.00  0.00     0.045 C 
HETATM   19  C18 UNL     1      29.350  -1.285  53.116  1.00  0.00     0.036 C 
HETATM   20  C17 UNL     1      28.565  -2.563  53.225  1.00  0.00     0.005 C 
HETATM   21  C16 UNL     1      27.291  -2.409  52.424  1.00  0.00     0.006 C 
HETATM   22  C15 UNL     1      26.517  -1.167  52.760  1.00  0.00     0.057 C 
ENDBRANCH  14  16
ENDBRANCH  13  14
ENDBRANCH   1  13
BRANCH   9  23
HETATM   23  C12 UNL     1      21.613  -1.223  54.540  1.00  0.00     0.176 C 
HETATM   24  O2  UNL     1      22.480  -1.460  55.446  1.00  0.00    -0.646 OA
BRANCH  23  25
HETATM   25  O3  UNL     1      20.387  -1.830  54.769  1.00  0.00    -0.773 OA
HETATM   26  H11 UNL     1      20.310  -2.833  54.994  1.00  0.00     0.167 HD
ENDBRANCH  23  25
ENDBRANCH   9  23
TORSDOF 5
ENDMDL
MODEL 2
REMARK VINA RESULT:      -8.7      1.569      2.539
REMARK  5 active torsions:
REMARK  status: ('A' for Active; 'I' for Inactive)
REMARK    1  A    between atoms: C3_3  and  N1_4 
REMARK    2  A    between atoms: N1_4  and  C4_5 
REMARK    3  A    between atoms: C4_5  and  C5_6 
REMARK    4  A    between atoms: C11_14  and  C12_15 
REMARK    5  A    between atoms: C12_15  and  O3_17 
ROOT
HETATM    1  C5  UNL     1      24.311   2.497  50.918  1.00  0.00     0.010 C 
HETATM    2  C6  UNL     1      23.152   1.888  51.113  1.00  0.00     0.042 A 
HETATM    3  C7  UNL     1      21.907   2.056  50.326  1.00  0.00     0.256 A 
HETATM    4  O1  UNL     1      21.766   2.816  49.339  1.00  0.00    -0.267 OA
HETATM    5  N2  UNL     1      21.025   1.173  50.990  1.00  0.00    -0.322 N 
HETATM    6  C8  UNL     1      21.572   0.480  52.088  1.00  0.00     0.046 A 
HETATM    7  C9  UNL     1      20.964  -0.428  52.907  1.00  0.00     0.031 A 
HETATM    8  C10 UNL     1      21.708  -0.983  53.928  1.00  0.00     0.020 A 
HETATM    9  C11 UNL     1      23.021  -0.591  54.064  1.00  0.00     0.038 A 
HETATM   10  C13 UNL     1      23.582   0.327  53.210  1.00  0.00     0.033 A 
HETATM   11  C14 UNL     1      22.878   0.909  52.176  1.00  0.00     0.007 A 
HETATM   12  H8  UNL     1      20.041   1.130  50.586  1.00  0.00     0.169 HD
ENDROOT
BRANCH   1  13
HETATM   13  C4  UNL     1      25.701   2.706  51.315  1.00  0.00     0.148 C 
BRANCH  13  14
HETATM   14  N1  UNL     1      26.462   1.460  51.478  1.00  0.00    -0.389 N 
HETATM   15  H4  UNL     1      26.423   0.688  50.753  1.00  0.00     0.159 HD
BRANCH  14  16
HETATM   16  C3  UNL     1      27.302   1.111  52.543  1.00  0.00     0.007 C 
HETATM   17  C2  UNL     1      27.498  -0.136  52.945  1.00  0.00    -0.061 C 
HETATM   18  C1  UNL     1      26.815  -1.268  52.262  1.00  0.00     0.045 C 
HETATM   19  C18 UNL     1      28.415  -0.392  54.093  1.00  0.00     0.036 C 
HETATM   20  C17 UNL     1      29.599   0.513  53.894  1.00  0.00     0.005 C 
HETATM   21  C16 UNL     1      29.133   1.946  54.029  1.00  0.00     0.006 C 
HETATM   22  C15 UNL     1      27.943   2.273  53.172  1.00  0.00     0.057 C 
ENDBRANCH  14  16
ENDBRANCH  13  14
ENDBRANCH   1  13
BRANCH   9  23
HETATM   23  C12 UNL     1      23.830  -1.162  55.129  1.00  0.00     0.176 C 
HETATM   24  O2  UNL     1      25.084  -0.959  55.257  1.00  0.00    -0.646 OA
BRANCH  23  25
HETATM   25  O3  UNL     1      23.298  -1.987  56.109  1.00  0.00    -0.773 OA
HETATM   26  H11 UNL     1      22.501  -1.695  56.693  1.00  0.00     0.167 HD
ENDBRANCH  23  25
ENDBRANCH   9  23
TORSDOF 5
ENDMDL
MODEL 3
REMARK VINA RESULT:      -8.7      2.538      4.295
REMARK  5 active torsions:
REMARK  status: ('A' for Active; 'I' for Inactive)
REMARK    1  A    between atoms: C3_3  and  N1_4 
REMARK    2  A    between atoms: N1_4  and  C4_5 
REMARK    3  A    between atoms: C4_5  and  C5_6 
REMARK    4  A    between atoms: C11_14  and  C12_15 
REMARK    5  A    between atoms: C12_15  and  O3_17 
ROOT
HETATM    1  C5  UNL     1      23.572   0.332  53.281  1.00  0.00     0.010 C 
HETATM    2  C6  UNL     1      22.421  -0.221  53.629  1.00  0.00     0.042 A 
HETATM    3  C7  UNL     1      22.160  -1.084  54.805  1.00  0.00     0.256 A 
HETATM    4  O1  UNL     1      23.010  -1.423  55.663  1.00  0.00    -0.267 OA
HETATM    5  N2  UNL     1      20.784  -1.370  54.655  1.00  0.00    -0.322 N 
HETATM    6  C8  UNL     1      20.163  -0.788  53.532  1.00  0.00     0.046 A 
HETATM    7  C9  UNL     1      18.860  -0.887  53.136  1.00  0.00     0.031 A 
HETATM    8  C10 UNL     1      18.476  -0.223  51.989  1.00  0.00     0.020 A 
HETATM    9  C11 UNL     1      19.428   0.503  51.307  1.00  0.00     0.038 A 
HETATM   10  C13 UNL     1      20.726   0.567  51.751  1.00  0.00     0.033 A 
HETATM   11  C14 UNL     1      21.156  -0.079  52.891  1.00  0.00     0.007 A 
HETATM   12  H8  UNL     1      20.367  -1.995  55.408  1.00  0.00     0.169 HD
ENDROOT
BRANCH   1  13
HETATM   13  C4  UNL     1      24.334   1.167  52.354  1.00  0.00     0.148 C 
BRANCH  13  14
HETATM   14  N1  UNL     1      25.656   0.621  52.020  1.00  0.00    -0.389 N 
HETATM   15  H4  UNL     1      25.851   0.177  51.078  1.00  0.00     0.159 HD
BRANCH  14  16
HETATM   16  C3  UNL     1      26.795   0.597  52.834  1.00  0.00     0.007 C 
HETATM   17  C2  UNL     1      27.436  -0.514  53.167  1.00  0.00    -0.061 C 
HETATM   18  C1  UNL     1      26.963  -1.836  52.677  1.00  0.00     0.045 C 
HETATM   19  C18 UNL     1      28.640  -0.421  54.043  1.00  0.00     0.036 C 
HETATM   20  C17 UNL     1      29.425   0.762  53.553  1.00  0.00     0.005 C 
HETATM   21  C16 UNL     1      28.613   2.013  53.808  1.00  0.00     0.006 C 
HETATM   22  C15 UNL     1      27.208   1.933  53.284  1.00  0.00     0.057 C 
ENDBRANCH  14  16
ENDBRANCH  13  14
ENDBRANCH   1  13
BRANCH   9  23
HETATM   23  C12 UNL     1      19.051   1.215  50.097  1.00  0.00     0.176 C 
HETATM   24  O2  UNL     1      17.940   1.825  49.947  1.00  0.00    -0.646 OA
BRANCH  23  25
HETATM   25  O3  UNL     1      19.882   1.292  48.988  1.00  0.00    -0.773 OA
HETATM   26  H11 UNL     1      20.908   1.303  49.077  1.00  0.00     0.167 HD
ENDBRANCH  23  25
ENDBRANCH   9  23
TORSDOF 5
ENDMDL
MODEL 4
REMARK VINA RESULT:      -8.6      3.232      6.465
REMARK  5 active torsions:
REMARK  status: ('A' for Active; 'I' for Inactive)
REMARK    1  A    between atoms: C3_3  and  N1_4 
REMARK    2  A    between atoms: N1_4  and  C4_5 
REMARK    3  A    between atoms: C4_5  and  C5_6 
REMARK    4  A    between atoms: C11_14  and  C12_15 
REMARK    5  A    between atoms: C12_15  and  O3_17 
ROOT
HETATM    1  C5  UNL     1      23.271   3.233  52.481  1.00  0.00     0.010 C 
HETATM    2  C6  UNL     1      23.642   2.006  52.813  1.00  0.00     0.042 A 
HETATM    3  C7  UNL     1      22.789   0.795  52.867  1.00  0.00     0.256 A 
HETATM    4  O1  UNL     1      21.565   0.753  52.598  1.00  0.00    -0.267 OA
HETATM    5  N2  UNL     1      23.713  -0.191  53.280  1.00  0.00    -0.322 N 
HETATM    6  C8  UNL     1      25.031   0.261  53.487  1.00  0.00     0.046 A 
HETATM    7  C9  UNL     1      26.124  -0.457  53.881  1.00  0.00     0.031 A 
HETATM    8  C10 UNL     1      27.325   0.207  54.018  1.00  0.00     0.020 A 
HETATM    9  C11 UNL     1      27.357   1.558  53.748  1.00  0.00     0.038 A 
HETATM   10  C13 UNL     1      26.226   2.231  53.354  1.00  0.00     0.033 A 
HETATM   11  C14 UNL     1      25.003   1.609  53.204  1.00  0.00     0.007 A 
HETATM   12  H8  UNL     1      23.310  -1.170  53.390  1.00  0.00     0.169 HD
ENDROOT
BRANCH   1  13
HETATM   13  C4  UNL     1      23.620   4.636  52.275  1.00  0.00     0.148 C 
BRANCH  13  14
HETATM   14  N1  UNL     1      23.836   4.990  50.865  1.00  0.00    -0.389 N 
HETATM   15  H4  UNL     1      23.045   4.971  50.162  1.00  0.00     0.159 HD
BRANCH  14  16
HETATM   16  C3  UNL     1      25.039   5.379  50.263  1.00  0.00     0.007 C 
HETATM   17  C2  UNL     1      25.843   4.543  49.623  1.00  0.00    -0.061 C 
HETATM   18  C1  UNL     1      25.499   3.101  49.507  1.00  0.00     0.045 C 
HETATM   19  C18 UNL     1      27.102   5.068  49.019  1.00  0.00     0.036 C 
HETATM   20  C17 UNL     1      26.744   6.381  48.379  1.00  0.00     0.005 C 
HETATM   21  C16 UNL     1      26.355   7.353  49.471  1.00  0.00     0.006 C 
HETATM   22  C15 UNL     1      25.319   6.813  50.414  1.00  0.00     0.057 C 
ENDBRANCH  14  16
ENDBRANCH  13  14
ENDBRANCH   1  13
BRANCH   9  23
HETATM   23  C12 UNL     1      28.610   2.283  53.880  1.00  0.00     0.176 C 
HETATM   24  O2  UNL     1      29.371   2.208  54.901  1.00  0.00    -0.646 OA
BRANCH  23  25
HETATM   25  O3  UNL     1      29.087   3.132  52.892  1.00  0.00    -0.773 OA
HETATM   26  H11 UNL     1      30.005   3.594  52.967  1.00  0.00     0.167 HD
ENDBRANCH  23  25
ENDBRANCH   9  23
TORSDOF 5
ENDMDL
MODEL 5
REMARK VINA RESULT:      -8.5      2.549      5.715
REMARK  5 active torsions:
REMARK  status: ('A' for Active; 'I' for Inactive)
REMARK    1  A    between atoms: C3_3  and  N1_4 
REMARK    2  A    between atoms: N1_4  and  C4_5 
REMARK    3  A    between atoms: C4_5  and  C5_6 
REMARK    4  A    between atoms: C11_14  and  C12_15 
REMARK    5  A    between atoms: C12_15  and  O3_17 
ROOT
HETATM    1  C5  UNL     1      20.987   0.260  51.325  1.00  0.00     0.010 C 
HETATM    2  C6  UNL     1      21.088  -0.211  52.559  1.00  0.00     0.042 A 
HETATM    3  C7  UNL     1      19.979  -0.574  53.473  1.00  0.00     0.256 A 
HETATM    4  O1  UNL     1      18.756  -0.489  53.206  1.00  0.00    -0.267 OA
HETATM    5  N2  UNL     1      20.681  -1.000  54.623  1.00  0.00    -0.322 N 
HETATM    6  C8  UNL     1      22.086  -0.946  54.531  1.00  0.00     0.046 A 
HETATM    7  C9  UNL     1      23.012  -1.291  55.473  1.00  0.00     0.031 A 
HETATM    8  C10 UNL     1      24.347  -1.152  55.155  1.00  0.00     0.020 A 
HETATM    9  C11 UNL     1      24.672  -0.673  53.905  1.00  0.00     0.038 A 
HETATM   10  C13 UNL     1      23.698  -0.340  52.995  1.00  0.00     0.033 A 
HETATM   11  C14 UNL     1      22.351  -0.462  53.268  1.00  0.00     0.007 A 
HETATM   12  H8  UNL     1      20.069  -1.316  55.435  1.00  0.00     0.169 HD
ENDROOT
BRANCH   1  13
HETATM   13  C4  UNL     1      21.638   0.734  50.106  1.00  0.00     0.148 C 
BRANCH  13  14
HETATM   14  N1  UNL     1      21.997   2.158  50.144  1.00  0.00    -0.389 N 
HETATM   15  H4  UNL     1      21.589   2.851  49.455  1.00  0.00     0.159 HD
BRANCH  14  16
HETATM   16  C3  UNL     1      22.877   2.789  51.033  1.00  0.00     0.007 C 
HETATM   17  C2  UNL     1      22.482   3.581  52.018  1.00  0.00    -0.061 C 
HETATM   18  C1  UNL     1      21.036   3.852  52.239  1.00  0.00     0.045 C 
HETATM   19  C18 UNL     1      23.508   4.201  52.905  1.00  0.00     0.036 C 
HETATM   20  C17 UNL     1      24.523   3.128  53.185  1.00  0.00     0.005 C 
HETATM   21  C16 UNL     1      25.227   2.787  51.890  1.00  0.00     0.006 C 
HETATM   22  C15 UNL     1      24.286   2.481  50.760  1.00  0.00     0.057 C 
ENDBRANCH  14  16
ENDBRANCH  13  14
ENDBRANCH   1  13
BRANCH   9  23
HETATM   23  C12 UNL     1      26.071  -0.518  53.540  1.00  0.00     0.176 C 
HETATM   24  O2  UNL     1      27.025  -0.463  54.386  1.00  0.00    -0.646 OA
BRANCH  23  25
HETATM   25  O3  UNL     1      26.490  -0.416  52.221  1.00  0.00    -0.773 OA
HETATM   26  H11 UNL     1      27.066   0.373  51.893  1.00  0.00     0.167 HD
ENDBRANCH  23  25
ENDBRANCH   9  23
TORSDOF 5
ENDMDL
MODEL 6
REMARK VINA RESULT:      -8.3      2.479      5.232
REMARK  5 active torsions:
REMARK  status: ('A' for Active; 'I' for Inactive)
REMARK    1  A    between atoms: C3_3  and  N1_4 
REMARK    2  A    between atoms: N1_4  and  C4_5 
REMARK    3  A    between atoms: C4_5  and  C5_6 
REMARK    4  A    between atoms: C11_14  and  C12_15 
REMARK    5  A    between atoms: C12_15  and  O3_17 
ROOT
HETATM    1  C5  UNL     1      24.233  -0.282  53.514  1.00  0.00     0.010 C 
HETATM    2  C6  UNL     1      22.932  -0.465  53.682  1.00  0.00     0.042 A 
HETATM    3  C7  UNL     1      22.257  -1.070  54.855  1.00  0.00     0.256 A 
HETATM    4  O1  UNL     1      22.829  -1.503  55.883  1.00  0.00    -0.267 OA
HETATM    5  N2  UNL     1      20.898  -1.005  54.470  1.00  0.00    -0.322 N 
HETATM    6  C8  UNL     1      20.652  -0.434  53.206  1.00  0.00     0.046 A 
HETATM    7  C9  UNL     1      19.454  -0.241  52.579  1.00  0.00     0.031 A 
HETATM    8  C10 UNL     1      19.459   0.343  51.330  1.00  0.00     0.020 A 
HETATM    9  C11 UNL     1      20.672   0.701  50.783  1.00  0.00     0.038 A 
HETATM   10  C13 UNL     1      21.849   0.483  51.458  1.00  0.00     0.033 A 
HETATM   11  C14 UNL     1      21.893  -0.098  52.709  1.00  0.00     0.007 A 
HETATM   12  H8  UNL     1      20.208  -1.395  55.180  1.00  0.00     0.169 HD
ENDROOT
BRANCH   1  13
HETATM   13  C4  UNL     1      25.335   0.197  52.683  1.00  0.00     0.148 C 
BRANCH  13  14
HETATM   14  N1  UNL     1      25.466   1.660  52.661  1.00  0.00    -0.389 N 
HETATM   15  H4  UNL     1      25.682   2.210  53.540  1.00  0.00     0.159 HD
BRANCH  14  16
HETATM   16  C3  UNL     1      25.333   2.508  51.554  1.00  0.00     0.007 C 
HETATM   17  C2  UNL     1      24.338   3.369  51.405  1.00  0.00    -0.061 C 
HETATM   18  C1  UNL     1      23.276   3.485  52.440  1.00  0.00     0.045 C 
HETATM   19  C18 UNL     1      24.296   4.223  50.183  1.00  0.00     0.036 C 
HETATM   20  C17 UNL     1      25.707   4.680  49.942  1.00  0.00     0.005 C 
HETATM   21  C16 UNL     1      26.547   3.471  49.591  1.00  0.00     0.006 C 
HETATM   22  C15 UNL     1      26.412   2.342  50.572  1.00  0.00     0.057 C 
ENDBRANCH  14  16
ENDBRANCH  13  14
ENDBRANCH   1  13
BRANCH   9  23
HETATM   23  C12 UNL     1      20.708   1.322  49.469  1.00  0.00     0.176 C 
HETATM   24  O2  UNL     1      21.785   1.601  48.844  1.00  0.00    -0.646 OA
BRANCH  23  25
HETATM   25  O3  UNL     1      19.557   1.667  48.776  1.00  0.00    -0.773 OA
HETATM   26  H11 UNL     1      18.785   1.000  48.636  1.00  0.00     0.167 HD
ENDBRANCH  23  25
ENDBRANCH   9  23
TORSDOF 5
ENDMDL
MODEL 7
REMARK VINA RESULT:      -8.2      2.446      5.371
REMARK  5 active torsions:
REMARK  status: ('A' for Active; 'I' for Inactive)
REMARK    1  A    between atoms: C3_3  and  N1_4 
REMARK    2  A    between atoms: N1_4  and  C4_5 
REMARK    3  A    between atoms: C4_5  and  C5_6 
REMARK    4  A    between atoms: C11_14  and  C12_15 
REMARK    5  A    between atoms: C12_15  and  O3_17 
ROOT
HETATM    1  C5  UNL     1      26.942   1.549  52.449  1.00  0.00     0.010 C 
HETATM    2  C6  UNL     1      26.420   0.768  53.382  1.00  0.00     0.042 A 
HETATM    3  C7  UNL     1      27.110   0.197  54.563  1.00  0.00     0.256 A 
HETATM    4  O1  UNL     1      28.316   0.374  54.858  1.00  0.00    -0.267 OA
HETATM    5  N2  UNL     1      26.071  -0.537  55.178  1.00  0.00    -0.322 N 
HETATM    6  C8  UNL     1      24.824  -0.488  54.524  1.00  0.00     0.046 A 
HETATM    7  C9  UNL     1      23.653  -1.091  54.883  1.00  0.00     0.031 A 
HETATM    8  C10 UNL     1      22.548  -0.898  54.079  1.00  0.00     0.020 A 
HETATM    9  C11 UNL     1      22.688  -0.108  52.959  1.00  0.00     0.038 A 
HETATM   10  C13 UNL     1      23.892   0.475  52.645  1.00  0.00     0.033 A 
HETATM   11  C14 UNL     1      25.023   0.310  53.418  1.00  0.00     0.007 A 
HETATM   12  H8  UNL     1      26.345  -1.048  56.070  1.00  0.00     0.169 HD
ENDROOT
BRANCH   1  13
HETATM   13  C4  UNL     1      26.775   2.316  51.217  1.00  0.00     0.148 C 
BRANCH  13  14
HETATM   14  N1  UNL     1      25.868   3.463  51.354  1.00  0.00    -0.389 N 
HETATM   15  H4  UNL     1      26.163   4.346  51.858  1.00  0.00     0.159 HD
BRANCH  14  16
HETATM   16  C3  UNL     1      24.554   3.569  50.878  1.00  0.00     0.007 C 
HETATM   17  C2  UNL     1      23.527   3.925  51.634  1.00  0.00    -0.061 C 
HETATM   18  C1  UNL     1      23.720   4.243  53.074  1.00  0.00     0.045 C 
HETATM   19  C18 UNL     1      22.169   4.004  51.021  1.00  0.00     0.036 C 
HETATM   20  C17 UNL     1      22.353   4.650  49.676  1.00  0.00     0.005 C 
HETATM   21  C16 UNL     1      23.164   3.715  48.805  1.00  0.00     0.006 C 
HETATM   22  C15 UNL     1      24.433   3.241  49.452  1.00  0.00     0.057 C 
ENDBRANCH  14  16
ENDBRANCH  13  14
ENDBRANCH   1  13
BRANCH   9  23
HETATM   23  C12 UNL     1      21.541   0.116  52.095  1.00  0.00     0.176 C 
HETATM   24  O2  UNL     1      20.333  -0.111  52.442  1.00  0.00    -0.646 OA
BRANCH  23  25
HETATM   25  O3  UNL     1      21.665   0.602  50.801  1.00  0.00    -0.773 OA
HETATM   26  H11 UNL     1      21.072   1.366  50.446  1.00  0.00     0.167 HD
ENDBRANCH  23  25
ENDBRANCH   9  23
TORSDOF 5
ENDMDL
MODEL 8
REMARK VINA RESULT:      -8.1      2.274      5.240
REMARK  5 active torsions:
REMARK  status: ('A' for Active; 'I' for Inactive)
REMARK    1  A    between atoms: C3_3  and  N1_4 
REMARK    2  A    between atoms: N1_4  and  C4_5 
REMARK    3  A    between atoms: C4_5  and  C5_6 
REMARK    4  A    between atoms: C11_14  and  C12_15 
REMARK    5  A    between atoms: C12_15  and  O3_17 
ROOT
HETATM    1  C5  UNL     1      24.195   3.726  51.844  1.00  0.00     0.010 C 
HETATM    2  C6  UNL     1      24.861   2.604  52.065  1.00  0.00     0.042 A 
HETATM    3  C7  UNL     1      26.258   2.298  51.674  1.00  0.00     0.256 A 
HETATM    4  O1  UNL     1      27.031   3.076  51.066  1.00  0.00    -0.267 OA
HETATM    5  N2  UNL     1      26.412   0.980  52.161  1.00  0.00    -0.322 N 
HETATM    6  C8  UNL     1      25.283   0.435  52.804  1.00  0.00     0.046 A 
HETATM    7  C9  UNL     1      25.141  -0.801  53.367  1.00  0.00     0.031 A 
HETATM    8  C10 UNL     1      23.930  -1.117  53.947  1.00  0.00     0.020 A 
HETATM    9  C11 UNL     1      22.930  -0.169  53.925  1.00  0.00     0.038 A 
HETATM   10  C13 UNL     1      23.128   1.060  53.343  1.00  0.00     0.033 A 
HETATM   11  C14 UNL     1      24.322   1.421  52.752  1.00  0.00     0.007 A 
HETATM   12  H8  UNL     1      27.367   0.543  51.987  1.00  0.00     0.169 HD
ENDROOT
BRANCH   1  13
HETATM   13  C4  UNL     1      22.964   4.502  51.977  1.00  0.00     0.148 C 
BRANCH  13  14
HETATM   14  N1  UNL     1      21.982   4.238  50.916  1.00  0.00    -0.389 N 
HETATM   15  H4  UNL     1      21.571   5.022  50.334  1.00  0.00     0.159 HD
BRANCH  14  16
HETATM   16  C3  UNL     1      21.464   2.996  50.529  1.00  0.00     0.007 C 
HETATM   17  C2  UNL     1      21.875   2.330  49.461  1.00  0.00    -0.061 C 
HETATM   18  C1  UNL     1      22.944   2.884  48.588  1.00  0.00     0.045 C 
HETATM   19  C18 UNL     1      21.250   1.013  49.143  1.00  0.00     0.036 C 
HETATM   20  C17 UNL     1      21.109   0.289  50.453  1.00  0.00     0.005 C 
HETATM   21  C16 UNL     1      20.113   1.041  51.309  1.00  0.00     0.006 C 
HETATM   22  C15 UNL     1      20.414   2.507  51.432  1.00  0.00     0.057 C 
ENDBRANCH  14  16
ENDBRANCH  13  14
ENDBRANCH   1  13
BRANCH   9  23
HETATM   23  C12 UNL     1      21.644  -0.472  54.531  1.00  0.00     0.176 C 
HETATM   24  O2  UNL     1      21.285  -1.644  54.887  1.00  0.00    -0.646 OA
BRANCH  23  25
HETATM   25  O3  UNL     1      20.686   0.502  54.773  1.00  0.00    -0.773 OA
HETATM   26  H11 UNL     1      19.829   0.301  55.308  1.00  0.00     0.167 HD
ENDBRANCH  23  25
ENDBRANCH   9  23
TORSDOF 5
ENDMDL
MODEL 9
REMARK VINA RESULT:      -8.1      2.859      5.521
REMARK  5 active torsions:
REMARK  status: ('A' for Active; 'I' for Inactive)
REMARK    1  A    between atoms: C3_3  and  N1_4 
REMARK    2  A    between atoms: N1_4  and  C4_5 
REMARK    3  A    between atoms: C4_5  and  C5_6 
REMARK    4  A    between atoms: C11_14  and  C12_15 
REMARK    5  A    between atoms: C12_15  and  O3_17 
ROOT
HETATM    1  C5  UNL     1      26.677   1.097  52.442  1.00  0.00     0.010 C 
HETATM    2  C6  UNL     1      25.996   0.396  53.335  1.00  0.00     0.042 A 
HETATM    3  C7  UNL     1      26.535  -0.310  54.522  1.00  0.00     0.256 A 
HETATM    4  O1  UNL     1      27.741  -0.345  54.863  1.00  0.00    -0.267 OA
HETATM    5  N2  UNL     1      25.365  -0.871  55.081  1.00  0.00    -0.322 N 
HETATM    6  C8  UNL     1      24.170  -0.599  54.386  1.00  0.00     0.046 A 
HETATM    7  C9  UNL     1      22.901  -1.003  54.688  1.00  0.00     0.031 A 
HETATM    8  C10 UNL     1      21.876  -0.609  53.853  1.00  0.00     0.020 A 
HETATM    9  C11 UNL     1      22.189   0.170  52.760  1.00  0.00     0.038 A 
HETATM   10  C13 UNL     1      23.485   0.548  52.504  1.00  0.00     0.033 A 
HETATM   11  C14 UNL     1      24.541   0.179  53.310  1.00  0.00     0.007 A 
HETATM   12  H8  UNL     1      25.515  -1.440  55.967  1.00  0.00     0.169 HD
ENDROOT
BRANCH   1  13
HETATM   13  C4  UNL     1      26.688   1.908  51.226  1.00  0.00     0.148 C 
BRANCH  13  14
HETATM   14  N1  UNL     1      25.881   3.131  51.326  1.00  0.00    -0.389 N 
HETATM   15  H4  UNL     1      25.289   3.337  52.179  1.00  0.00     0.159 HD
BRANCH  14  16
HETATM   16  C3  UNL     1      25.768   4.153  50.374  1.00  0.00     0.007 C 
HETATM   17  C2  UNL     1      24.783   5.038  50.361  1.00  0.00    -0.061 C 
HETATM   18  C1  UNL     1      23.710   4.991  51.391  1.00  0.00     0.045 C 
HETATM   19  C18 UNL     1      24.762   6.084  49.298  1.00  0.00     0.036 C 
HETATM   20  C17 UNL     1      26.180   6.559  49.150  1.00  0.00     0.005 C 
HETATM   21  C16 UNL     1      27.012   5.416  48.610  1.00  0.00     0.006 C 
HETATM   22  C15 UNL     1      26.857   4.142  49.389  1.00  0.00     0.057 C 
ENDBRANCH  14  16
ENDBRANCH  13  14
ENDBRANCH   1  13
BRANCH   9  23
HETATM   23  C12 UNL     1      21.129   0.603  51.864  1.00  0.00     0.176 C 
HETATM   24  O2  UNL     1      21.010   0.202  50.658  1.00  0.00    -0.646 OA
BRANCH  23  25
HETATM   25  O3  UNL     1      20.146   1.503  52.251  1.00  0.00    -0.773 OA
HETATM   26  H11 UNL     1      19.493   1.297  53.020  1.00  0.00     0.167 HD
ENDBRANCH  23  25
ENDBRANCH   9  23
TORSDOF 5
ENDMDL
