MODEL 1
REMARK VINA RESULT:      -8.6      0.000      0.000
REMARK  7 active torsions:
REMARK  status: ('A' for Active; 'I' for Inactive)
REMARK    1  A    between atoms: C3_3  and  C5_5 
REMARK    2  A    between atoms: C7_7  and  N1_8 
REMARK       I    between atoms: N1_8  and  C8_9 
REMARK    3  A    between atoms: C8_9  and  C9_11 
REMARK    4  A    between atoms: C14_16  and  O2_17 
REMARK    5  A    between atoms: C16_19  and  N2_20 
REMARK    6  A    between atoms: N2_20  and  C17_21 
REMARK    7  A    between atoms: C17_21  and  C18_22 
ROOT
HETATM    1  C5  UNL     1      24.283   5.104  50.524  1.00  0.00     0.035 C 
HETATM    2  C6  UNL     1      23.709   3.926  50.704  1.00  0.00     0.030 C 
HETATM    3  C7  UNL     1      24.083   2.515  50.679  1.00  0.00     0.138 C 
HETATM    4  C16 UNL     1      25.514   2.215  51.050  1.00  0.00     0.158 C 
HETATM    5  C23 UNL     1      26.521   2.917  50.253  1.00  0.00     0.019 C 
HETATM    6  C24 UNL     1      26.649   4.195  49.852  1.00  0.00     0.086 C 
HETATM    7  N4  UNL     1      25.671   5.198  50.202  1.00  0.00    -0.366 N 
HETATM    8  H26 UNL     1      26.072   6.160  50.219  1.00  0.00     0.165 HD
ENDROOT
BRANCH   3   9
HETATM    9  N1  UNL     1      23.265   1.756  51.602  1.00  0.00    -0.346 N 
HETATM   10  C8  UNL     1      22.105   1.050  51.269  1.00  0.00     0.255 C 
HETATM   11  O1  UNL     1      21.872   1.171  50.027  1.00  0.00    -0.268 OA
HETATM   12  H10 UNL     1      23.572   1.740  52.598  1.00  0.00     0.163 HD
BRANCH  10  13
HETATM   13  C9  UNL     1      21.229   0.274  52.103  1.00  0.00     0.065 A 
HETATM   14  C10 UNL     1      19.867   0.289  51.787  1.00  0.00     0.020 A 
HETATM   15  C11 UNL     1      18.941  -0.419  52.518  1.00  0.00     0.001 A 
HETATM   16  C12 UNL     1      19.315  -1.181  53.604  1.00  0.00     0.003 A 
HETATM   17  C13 UNL     1      20.649  -1.220  53.946  1.00  0.00     0.038 A 
HETATM   18  C14 UNL     1      21.530  -0.492  53.177  1.00  0.00     0.084 A 
BRANCH  18  19
HETATM   19  O2  UNL     1      22.858  -0.563  53.558  1.00  0.00    -0.355 OA
HETATM   20  C15 UNL     1      23.310  -1.025  54.808  1.00  0.00     0.210 C 
ENDBRANCH  18  19
ENDBRANCH  10  13
ENDBRANCH   3   9
BRANCH   4  21
HETATM   21  N2  UNL     1      25.732   2.318  52.477  1.00  0.00    -0.289 NA
BRANCH  21  22
HETATM   22  C17 UNL     1      26.541   1.522  53.052  1.00  0.00     0.124 C 
BRANCH  22  23
HETATM   23  C18 UNL     1      27.571   0.510  53.236  1.00  0.00    -0.002 A 
HETATM   24  C19 UNL     1      28.831   1.002  53.465  1.00  0.00     0.016 A 
HETATM   25  C20 UNL     1      29.799   0.046  53.637  1.00  0.00     0.020 A 
HETATM   26  C21 UNL     1      29.436  -1.276  53.566  1.00  0.00     0.116 A 
HETATM   27  N3  UNL     1      28.170  -1.718  53.336  1.00  0.00    -0.272 NA
HETATM   28  C22 UNL     1      27.179  -0.806  53.160  1.00  0.00     0.129 A 
ENDBRANCH  22  23
ENDBRANCH  21  22
ENDBRANCH   4  21
BRANCH   1  29
HETATM   29  C3  UNL     1      23.494   6.310  50.652  1.00  0.00    -0.040 C 
HETATM   30  C2  UNL     1      22.175   6.381  50.605  1.00  0.00    -0.022 C 
HETATM   31  C1  UNL     1      21.520   7.690  50.753  1.00  0.00     0.036 C 
HETATM   32  C4  UNL     1      24.252   7.574  50.853  1.00  0.00     0.050 C 
ENDBRANCH   1  29
TORSDOF 7
ENDMDL
MODEL 2
REMARK VINA RESULT:      -8.3      1.895      6.249
REMARK  7 active torsions:
REMARK  status: ('A' for Active; 'I' for Inactive)
REMARK    1  A    between atoms: C3_3  and  C5_5 
REMARK    2  A    between atoms: C7_7  and  N1_8 
REMARK       I    between atoms: N1_8  and  C8_9 
REMARK    3  A    between atoms: C8_9  and  C9_11 
REMARK    4  A    between atoms: C14_16  and  O2_17 
REMARK    5  A    between atoms: C16_19  and  N2_20 
REMARK    6  A    between atoms: N2_20  and  C17_21 
REMARK    7  A    between atoms: C17_21  and  C18_22 
ROOT
HETATM    1  C5  UNL     1      20.290  -0.116  52.891  1.00  0.00     0.035 C 
HETATM    2  C6  UNL     1      21.165   0.836  52.608  1.00  0.00     0.030 C 
HETATM    3  C7  UNL     1      22.470   1.292  53.076  1.00  0.00     0.138 C 
HETATM    4  C16 UNL     1      23.362   0.223  53.655  1.00  0.00     0.158 C 
HETATM    5  C23 UNL     1      22.779  -0.540  54.760  1.00  0.00     0.019 C 
HETATM    6  C24 UNL     1      21.577  -1.116  54.944  1.00  0.00     0.086 C 
HETATM    7  N4  UNL     1      20.547  -1.055  53.935  1.00  0.00    -0.366 N 
HETATM    8  H26 UNL     1      19.879  -1.853  53.996  1.00  0.00     0.165 HD
ENDROOT
BRANCH   3   9
HETATM    9  N1  UNL     1      23.219   1.889  51.989  1.00  0.00    -0.346 N 
HETATM   10  C8  UNL     1      24.085   2.980  52.102  1.00  0.00     0.255 C 
HETATM   11  O1  UNL     1      24.122   3.375  53.308  1.00  0.00    -0.268 OA
HETATM   12  H10 UNL     1      23.095   1.465  51.045  1.00  0.00     0.163 HD
BRANCH  10  13
HETATM   13  C9  UNL     1      24.866   3.643  51.094  1.00  0.00     0.065 A 
HETATM   14  C10 UNL     1      25.908   2.915  50.512  1.00  0.00     0.020 A 
HETATM   15  C11 UNL     1      26.718   3.453  49.538  1.00  0.00     0.001 A 
HETATM   16  C12 UNL     1      26.540   4.743  49.088  1.00  0.00     0.003 A 
HETATM   17  C13 UNL     1      25.523   5.492  49.639  1.00  0.00     0.038 A 
HETATM   18  C14 UNL     1      24.744   4.901  50.609  1.00  0.00     0.084 A 
BRANCH  18  19
HETATM   19  O2  UNL     1      23.736   5.691  51.132  1.00  0.00    -0.355 OA
HETATM   20  C15 UNL     1      22.587   6.095  50.429  1.00  0.00     0.210 C 
ENDBRANCH  18  19
ENDBRANCH  10  13
ENDBRANCH   3   9
BRANCH   4  21
HETATM   21  N2  UNL     1      23.946  -0.608  52.624  1.00  0.00    -0.289 NA
BRANCH  21  22
HETATM   22  C17 UNL     1      25.202  -0.811  52.610  1.00  0.00     0.124 C 
BRANCH  22  23
HETATM   23  C18 UNL     1      26.613  -0.697  52.949  1.00  0.00    -0.002 A 
HETATM   24  C19 UNL     1      27.050   0.581  53.188  1.00  0.00     0.016 A 
HETATM   25  C20 UNL     1      28.379   0.684  53.506  1.00  0.00     0.020 A 
HETATM   26  C21 UNL     1      29.133  -0.462  53.556  1.00  0.00     0.116 A 
HETATM   27  N3  UNL     1      28.655  -1.712  53.312  1.00  0.00    -0.272 NA
HETATM   28  C22 UNL     1      27.344  -1.862  52.992  1.00  0.00     0.129 A 
ENDBRANCH  22  23
ENDBRANCH  21  22
ENDBRANCH   4  21
BRANCH   1  29
HETATM   29  C3  UNL     1      19.060  -0.204  52.134  1.00  0.00    -0.040 C 
HETATM   30  C2  UNL     1      18.833   0.354  50.958  1.00  0.00    -0.022 C 
HETATM   31  C1  UNL     1      17.522   0.170  50.317  1.00  0.00     0.036 C 
HETATM   32  C4  UNL     1      17.963  -0.995  52.753  1.00  0.00     0.050 C 
ENDBRANCH   1  29
TORSDOF 7
ENDMDL
MODEL 3
REMARK VINA RESULT:      -8.2      2.580      5.964
REMARK  7 active torsions:
REMARK  status: ('A' for Active; 'I' for Inactive)
REMARK    1  A    between atoms: C3_3  and  C5_5 
REMARK    2  A    between atoms: C7_7  and  N1_8 
REMARK       I    between atoms: N1_8  and  C8_9 
REMARK    3  A    between atoms: C8_9  and  C9_11 
REMARK    4  A    between atoms: C14_16  and  O2_17 
REMARK    5  A    between atoms: C16_19  and  N2_20 
REMARK    6  A    between atoms: N2_20  and  C17_21 
REMARK    7  A    between atoms: C17_21  and  C18_22 
ROOT
HETATM    1  C5  UNL     1      25.833   5.961  48.868  1.00  0.00     0.035 C 
HETATM    2  C6  UNL     1      25.671   5.201  49.940  1.00  0.00     0.030 C 
HETATM    3  C7  UNL     1      24.575   4.696  50.763  1.00  0.00     0.138 C 
HETATM    4  C16 UNL     1      23.264   4.493  50.046  1.00  0.00     0.158 C 
HETATM    5  C23 UNL     1      22.744   5.677  49.359  1.00  0.00     0.019 C 
HETATM    6  C24 UNL     1      23.309   6.594  48.553  1.00  0.00     0.086 C 
HETATM    7  N4  UNL     1      24.707   6.532  48.202  1.00  0.00    -0.366 N 
HETATM    8  H26 UNL     1      24.912   6.994  47.290  1.00  0.00     0.165 HD
ENDROOT
BRANCH   3   9
HETATM    9  N1  UNL     1      24.921   3.410  51.333  1.00  0.00    -0.346 N 
HETATM   10  C8  UNL     1      24.672   3.011  52.648  1.00  0.00     0.255 C 
HETATM   11  O1  UNL     1      24.091   3.948  53.278  1.00  0.00    -0.268 OA
HETATM   12  H10 UNL     1      25.397   2.730  50.703  1.00  0.00     0.163 HD
BRANCH  10  13
HETATM   13  C9  UNL     1      24.972   1.769  53.307  1.00  0.00     0.065 A 
HETATM   14  C10 UNL     1      24.014   0.755  53.226  1.00  0.00     0.020 A 
HETATM   15  C11 UNL     1      24.200  -0.473  53.819  1.00  0.00     0.001 A 
HETATM   16  C12 UNL     1      25.347  -0.763  54.525  1.00  0.00     0.003 A 
HETATM   17  C13 UNL     1      26.315   0.213  54.627  1.00  0.00     0.038 A 
HETATM   18  C14 UNL     1      26.074   1.422  54.012  1.00  0.00     0.084 A 
BRANCH  18  19
HETATM   19  O2  UNL     1      27.074   2.370  54.141  1.00  0.00    -0.355 OA
HETATM   20  C15 UNL     1      28.296   2.346  53.445  1.00  0.00     0.210 C 
ENDBRANCH  18  19
ENDBRANCH  10  13
ENDBRANCH   3   9
BRANCH   4  21
HETATM   21  N2  UNL     1      23.282   3.306  49.218  1.00  0.00    -0.289 NA
BRANCH  21  22
HETATM   22  C17 UNL     1      22.390   2.412  49.375  1.00  0.00     0.124 C 
BRANCH  22  23
HETATM   23  C18 UNL     1      21.185   1.746  49.846  1.00  0.00    -0.002 A 
HETATM   24  C19 UNL     1      21.375   0.870  50.885  1.00  0.00     0.016 A 
HETATM   25  C20 UNL     1      20.238   0.245  51.325  1.00  0.00     0.020 A 
HETATM   26  C21 UNL     1      19.047   0.537  50.708  1.00  0.00     0.116 A 
HETATM   27  N3  UNL     1      18.906   1.415  49.678  1.00  0.00    -0.272 NA
HETATM   28  C22 UNL     1      20.005   2.058  49.210  1.00  0.00     0.129 A 
ENDBRANCH  22  23
ENDBRANCH  21  22
ENDBRANCH   4  21
BRANCH   1  29
HETATM   29  C3  UNL     1      27.167   6.215  48.369  1.00  0.00    -0.040 C 
HETATM   30  C2  UNL     1      28.201   5.398  48.472  1.00  0.00    -0.022 C 
HETATM   31  C1  UNL     1      29.497   5.806  47.909  1.00  0.00     0.036 C 
HETATM   32  C4  UNL     1      27.375   7.518  47.682  1.00  0.00     0.050 C 
ENDBRANCH   1  29
TORSDOF 7
ENDMDL
MODEL 4
REMARK VINA RESULT:      -8.2      1.957      6.223
REMARK  7 active torsions:
REMARK  status: ('A' for Active; 'I' for Inactive)
REMARK    1  A    between atoms: C3_3  and  C5_5 
REMARK    2  A    between atoms: C7_7  and  N1_8 
REMARK       I    between atoms: N1_8  and  C8_9 
REMARK    3  A    between atoms: C8_9  and  C9_11 
REMARK    4  A    between atoms: C14_16  and  O2_17 
REMARK    5  A    between atoms: C16_19  and  N2_20 
REMARK    6  A    between atoms: N2_20  and  C17_21 
REMARK    7  A    between atoms: C17_21  and  C18_22 
ROOT
HETATM    1  C5  UNL     1      24.316   5.026  50.286  1.00  0.00     0.035 C 
HETATM    2  C6  UNL     1      25.006   4.191  51.047  1.00  0.00     0.030 C 
HETATM    3  C7  UNL     1      24.771   3.298  52.177  1.00  0.00     0.138 C 
HETATM    4  C16 UNL     1      23.384   2.713  52.266  1.00  0.00     0.158 C 
HETATM    5  C23 UNL     1      22.298   3.694  52.291  1.00  0.00     0.019 C 
HETATM    6  C24 UNL     1      22.038   4.796  51.564  1.00  0.00     0.086 C 
HETATM    7  N4  UNL     1      22.920   5.228  50.506  1.00  0.00    -0.366 N 
HETATM    8  H26 UNL     1      22.427   5.788  49.777  1.00  0.00     0.165 HD
ENDROOT
BRANCH   3   9
HETATM    9  N1  UNL     1      25.677   2.169  52.128  1.00  0.00    -0.346 N 
HETATM   10  C8  UNL     1      26.528   1.765  53.161  1.00  0.00     0.255 C 
HETATM   11  O1  UNL     1      26.390   2.538  54.158  1.00  0.00    -0.268 OA
HETATM   12  H10 UNL     1      25.692   1.616  51.245  1.00  0.00     0.163 HD
BRANCH  10  13
HETATM   13  C9  UNL     1      27.458   0.670  53.212  1.00  0.00     0.065 A 
HETATM   14  C10 UNL     1      28.794   0.979  53.483  1.00  0.00     0.020 A 
HETATM   15  C11 UNL     1      29.767   0.008  53.555  1.00  0.00     0.001 A 
HETATM   16  C12 UNL     1      29.467  -1.324  53.363  1.00  0.00     0.003 A 
HETATM   17  C13 UNL     1      28.160  -1.666  53.094  1.00  0.00     0.038 A 
HETATM   18  C14 UNL     1      27.230  -0.652  53.035  1.00  0.00     0.084 A 
BRANCH  18  19
HETATM   19  O2  UNL     1      25.932  -1.045  52.762  1.00  0.00    -0.355 OA
HETATM   20  C15 UNL     1      24.857  -0.944  53.664  1.00  0.00     0.210 C 
ENDBRANCH  18  19
ENDBRANCH  10  13
ENDBRANCH   3   9
BRANCH   4  21
HETATM   21  N2  UNL     1      23.184   1.654  51.299  1.00  0.00    -0.289 NA
BRANCH  21  22
HETATM   22  C17 UNL     1      22.158   0.906  51.383  1.00  0.00     0.124 C 
BRANCH  22  23
HETATM   23  C18 UNL     1      20.894   0.362  51.854  1.00  0.00    -0.002 A 
HETATM   24  C19 UNL     1      19.836   0.528  50.995  1.00  0.00     0.016 A 
HETATM   25  C20 UNL     1      18.646   0.014  51.443  1.00  0.00     0.020 A 
HETATM   26  C21 UNL     1      18.616  -0.599  52.671  1.00  0.00     0.116 A 
HETATM   27  N3  UNL     1      19.693  -0.740  53.490  1.00  0.00    -0.272 NA
HETATM   28  C22 UNL     1      20.893  -0.247  53.088  1.00  0.00     0.129 A 
ENDBRANCH  22  23
ENDBRANCH  21  22
ENDBRANCH   4  21
BRANCH   1  29
HETATM   29  C3  UNL     1      24.986   5.743  49.223  1.00  0.00    -0.040 C 
HETATM   30  C2  UNL     1      24.469   6.726  48.506  1.00  0.00    -0.022 C 
HETATM   31  C1  UNL     1      25.285   7.354  47.455  1.00  0.00     0.036 C 
HETATM   32  C4  UNL     1      26.380   5.321  48.922  1.00  0.00     0.050 C 
ENDBRANCH   1  29
TORSDOF 7
ENDMDL
MODEL 5
REMARK VINA RESULT:      -7.9      3.448      6.728
REMARK  7 active torsions:
REMARK  status: ('A' for Active; 'I' for Inactive)
REMARK    1  A    between atoms: C3_3  and  C5_5 
REMARK    2  A    between atoms: C7_7  and  N1_8 
REMARK       I    between atoms: N1_8  and  C8_9 
REMARK    3  A    between atoms: C8_9  and  C9_11 
REMARK    4  A    between atoms: C14_16  and  O2_17 
REMARK    5  A    between atoms: C16_19  and  N2_20 
REMARK    6  A    between atoms: N2_20  and  C17_21 
REMARK    7  A    between atoms: C17_21  and  C18_22 
ROOT
HETATM    1  C5  UNL     1      26.055   6.046  48.761  1.00  0.00     0.035 C 
HETATM    2  C6  UNL     1      25.839   5.284  49.821  1.00  0.00     0.030 C 
HETATM    3  C7  UNL     1      24.705   4.804  50.605  1.00  0.00     0.138 C 
HETATM    4  C16 UNL     1      23.412   4.643  49.846  1.00  0.00     0.158 C 
HETATM    5  C23 UNL     1      22.946   5.845  49.154  1.00  0.00     0.019 C 
HETATM    6  C24 UNL     1      23.560   6.752  48.373  1.00  0.00     0.086 C 
HETATM    7  N4  UNL     1      24.967   6.653  48.064  1.00  0.00    -0.366 N 
HETATM    8  H26 UNL     1      25.213   7.116  47.163  1.00  0.00     0.165 HD
ENDROOT
BRANCH   3   9
HETATM    9  N1  UNL     1      24.997   3.504  51.175  1.00  0.00    -0.346 N 
HETATM   10  C8  UNL     1      24.632   3.078  52.455  1.00  0.00     0.255 C 
HETATM   11  O1  UNL     1      23.999   4.003  53.051  1.00  0.00    -0.268 OA
HETATM   12  H10 UNL     1      25.526   2.836  50.575  1.00  0.00     0.163 HD
BRANCH  10  13
HETATM   13  C9  UNL     1      24.871   1.821  53.110  1.00  0.00     0.065 A 
HETATM   14  C10 UNL     1      23.895   0.830  52.969  1.00  0.00     0.020 A 
HETATM   15  C11 UNL     1      24.023  -0.408  53.553  1.00  0.00     0.001 A 
HETATM   16  C12 UNL     1      25.128  -0.734  54.310  1.00  0.00     0.003 A 
HETATM   17  C13 UNL     1      26.112   0.218  54.472  1.00  0.00     0.038 A 
HETATM   18  C14 UNL     1      25.929   1.439  53.863  1.00  0.00     0.084 A 
BRANCH  18  19
HETATM   19  O2  UNL     1      26.943   2.361  54.053  1.00  0.00    -0.355 OA
HETATM   20  C15 UNL     1      28.244   2.242  53.532  1.00  0.00     0.210 C 
ENDBRANCH  18  19
ENDBRANCH  10  13
ENDBRANCH   3   9
BRANCH   4  21
HETATM   21  N2  UNL     1      23.422   3.461  49.011  1.00  0.00    -0.289 NA
BRANCH  21  22
HETATM   22  C17 UNL     1      22.439   3.223  48.238  1.00  0.00     0.124 C 
BRANCH  22  23
HETATM   23  C18 UNL     1      21.470   3.382  47.164  1.00  0.00    -0.002 A 
HETATM   24  C19 UNL     1      21.999   3.780  45.962  1.00  0.00     0.016 A 
HETATM   25  C20 UNL     1      21.083   3.929  44.953  1.00  0.00     0.020 A 
HETATM   26  C21 UNL     1      19.760   3.678  45.223  1.00  0.00     0.116 A 
HETATM   27  N3  UNL     1      19.281   3.285  46.435  1.00  0.00    -0.272 NA
HETATM   28  C22 UNL     1      20.152   3.123  47.464  1.00  0.00     0.129 A 
ENDBRANCH  22  23
ENDBRANCH  21  22
ENDBRANCH   4  21
BRANCH   1  29
HETATM   29  C3  UNL     1      27.411   6.267  48.305  1.00  0.00    -0.040 C 
HETATM   30  C2  UNL     1      28.419   5.424  48.439  1.00  0.00    -0.022 C 
HETATM   31  C1  UNL     1      29.743   5.799  47.919  1.00  0.00     0.036 C 
HETATM   32  C4  UNL     1      27.673   7.565  47.628  1.00  0.00     0.050 C 
ENDBRANCH   1  29
TORSDOF 7
ENDMDL
MODEL 6
REMARK VINA RESULT:      -7.6      2.759      6.195
REMARK  7 active torsions:
REMARK  status: ('A' for Active; 'I' for Inactive)
REMARK    1  A    between atoms: C3_3  and  C5_5 
REMARK    2  A    between atoms: C7_7  and  N1_8 
REMARK       I    between atoms: N1_8  and  C8_9 
REMARK    3  A    between atoms: C8_9  and  C9_11 
REMARK    4  A    between atoms: C14_16  and  O2_17 
REMARK    5  A    between atoms: C16_19  and  N2_20 
REMARK    6  A    between atoms: N2_20  and  C17_21 
REMARK    7  A    between atoms: C17_21  and  C18_22 
ROOT
HETATM    1  C5  UNL     1      25.849   2.443  51.916  1.00  0.00     0.035 C 
HETATM    2  C6  UNL     1      24.597   2.172  52.247  1.00  0.00     0.030 C 
HETATM    3  C7  UNL     1      23.256   2.654  51.927  1.00  0.00     0.138 C 
HETATM    4  C16 UNL     1      23.087   3.235  50.546  1.00  0.00     0.158 C 
HETATM    5  C23 UNL     1      24.001   4.330  50.218  1.00  0.00     0.019 C 
HETATM    6  C24 UNL     1      25.325   4.501  50.380  1.00  0.00     0.086 C 
HETATM    7  N4  UNL     1      26.149   3.484  50.987  1.00  0.00    -0.366 N 
HETATM    8  H26 UNL     1      27.143   3.534  50.675  1.00  0.00     0.165 HD
ENDROOT
BRANCH   3   9
HETATM    9  N1  UNL     1      22.292   1.577  52.027  1.00  0.00    -0.346 N 
HETATM   10  C8  UNL     1      20.944   1.721  52.364  1.00  0.00     0.255 C 
HETATM   11  O1  UNL     1      20.683   2.946  52.571  1.00  0.00    -0.268 OA
HETATM   12  H10 UNL     1      22.642   0.615  51.830  1.00  0.00     0.163 HD
BRANCH  10  13
HETATM   13  C9  UNL     1      19.915   0.726  52.490  1.00  0.00     0.065 A 
HETATM   14  C10 UNL     1      18.869   0.767  51.564  1.00  0.00     0.020 A 
HETATM   15  C11 UNL     1      17.833  -0.138  51.593  1.00  0.00     0.001 A 
HETATM   16  C12 UNL     1      17.776  -1.134  52.543  1.00  0.00     0.003 A 
HETATM   17  C13 UNL     1      18.790  -1.206  53.474  1.00  0.00     0.038 A 
HETATM   18  C14 UNL     1      19.801  -0.274  53.395  1.00  0.00     0.084 A 
BRANCH  18  19
HETATM   19  O2  UNL     1      20.796  -0.387  54.350  1.00  0.00    -0.355 OA
HETATM   20  C15 UNL     1      21.698  -1.462  54.446  1.00  0.00     0.210 C 
ENDBRANCH  18  19
ENDBRANCH  10  13
ENDBRANCH   3   9
BRANCH   4  21
HETATM   21  N2  UNL     1      23.033   2.204  49.531  1.00  0.00    -0.289 NA
BRANCH  21  22
HETATM   22  C17 UNL     1      22.202   2.303  48.573  1.00  0.00     0.124 C 
BRANCH  22  23
HETATM   23  C18 UNL     1      21.427   2.880  47.484  1.00  0.00    -0.002 A 
HETATM   24  C19 UNL     1      22.168   3.337  46.424  1.00  0.00     0.016 A 
HETATM   25  C20 UNL     1      21.434   3.880  45.402  1.00  0.00     0.020 A 
HETATM   26  C21 UNL     1      20.067   3.921  45.523  1.00  0.00     0.116 A 
HETATM   27  N3  UNL     1      19.374   3.454  46.597  1.00  0.00    -0.272 NA
HETATM   28  C22 UNL     1      20.059   2.907  47.633  1.00  0.00     0.129 A 
ENDBRANCH  22  23
ENDBRANCH  21  22
ENDBRANCH   4  21
BRANCH   1  29
HETATM   29  C3  UNL     1      26.925   1.675  52.506  1.00  0.00    -0.040 C 
HETATM   30  C2  UNL     1      27.949   2.168  53.181  1.00  0.00    -0.022 C 
HETATM   31  C1  UNL     1      28.964   1.249  53.719  1.00  0.00     0.036 C 
HETATM   32  C4  UNL     1      26.856   0.201  52.325  1.00  0.00     0.050 C 
ENDBRANCH   1  29
TORSDOF 7
ENDMDL
MODEL 7
REMARK VINA RESULT:      -7.5      7.762     11.710
REMARK  7 active torsions:
REMARK  status: ('A' for Active; 'I' for Inactive)
REMARK    1  A    between atoms: C3_3  and  C5_5 
REMARK    2  A    between atoms: C7_7  and  N1_8 
REMARK       I    between atoms: N1_8  and  C8_9 
REMARK    3  A    between atoms: C8_9  and  C9_11 
REMARK    4  A    between atoms: C14_16  and  O2_17 
REMARK    5  A    between atoms: C16_19  and  N2_20 
REMARK    6  A    between atoms: N2_20  and  C17_21 
REMARK    7  A    between atoms: C17_21  and  C18_22 
ROOT
HETATM    1  C5  UNL     1      30.803  10.922  46.994  1.00  0.00     0.035 C 
HETATM    2  C6  UNL     1      31.502   9.814  47.180  1.00  0.00     0.030 C 
HETATM    3  C7  UNL     1      31.472   8.637  48.045  1.00  0.00     0.138 C 
HETATM    4  C16 UNL     1      30.104   8.218  48.524  1.00  0.00     0.158 C 
HETATM    5  C23 UNL     1      29.348   9.257  49.224  1.00  0.00     0.019 C 
HETATM    6  C24 UNL     1      29.114  10.556  48.965  1.00  0.00     0.086 C 
HETATM    7  N4  UNL     1      29.652  11.201  47.792  1.00  0.00    -0.366 N 
HETATM    8  H26 UNL     1      29.082  12.018  47.485  1.00  0.00     0.165 HD
ENDROOT
BRANCH   3   9
HETATM    9  N1  UNL     1      32.023   7.488  47.357  1.00  0.00    -0.346 N 
HETATM   10  C8  UNL     1      33.180   6.797  47.727  1.00  0.00     0.255 C 
HETATM   11  O1  UNL     1      33.682   7.327  48.765  1.00  0.00    -0.268 OA
HETATM   12  H10 UNL     1      31.508   7.154  46.514  1.00  0.00     0.163 HD
BRANCH  10  13
HETATM   13  C9  UNL     1      33.805   5.656  47.117  1.00  0.00     0.065 A 
HETATM   14  C10 UNL     1      34.221   4.626  47.966  1.00  0.00     0.020 A 
HETATM   15  C11 UNL     1      34.830   3.488  47.488  1.00  0.00     0.001 A 
HETATM   16  C12 UNL     1      35.061   3.310  46.141  1.00  0.00     0.003 A 
HETATM   17  C13 UNL     1      34.665   4.304  45.273  1.00  0.00     0.038 A 
HETATM   18  C14 UNL     1      34.059   5.419  45.810  1.00  0.00     0.084 A 
BRANCH  18  19
HETATM   19  O2  UNL     1      33.679   6.390  44.900  1.00  0.00    -0.355 OA
HETATM   20  C15 UNL     1      32.714   6.211  43.892  1.00  0.00     0.210 C 
ENDBRANCH  18  19
ENDBRANCH  10  13
ENDBRANCH   3   9
BRANCH   4  21
HETATM   21  N2  UNL     1      29.349   7.557  47.482  1.00  0.00    -0.289 NA
BRANCH  21  22
HETATM   22  C17 UNL     1      28.332   6.854  47.785  1.00  0.00     0.124 C 
BRANCH  22  23
HETATM   23  C18 UNL     1      27.378   6.097  48.581  1.00  0.00    -0.002 A 
HETATM   24  C19 UNL     1      27.607   4.745  48.628  1.00  0.00     0.016 A 
HETATM   25  C20 UNL     1      26.705   4.035  49.377  1.00  0.00     0.020 A 
HETATM   26  C21 UNL     1      25.684   4.714  49.995  1.00  0.00     0.116 A 
HETATM   27  N3  UNL     1      25.497   6.060  49.920  1.00  0.00    -0.272 NA
HETATM   28  C22 UNL     1      26.366   6.804  49.189  1.00  0.00     0.129 A 
ENDBRANCH  22  23
ENDBRANCH  21  22
ENDBRANCH   4  21
BRANCH   1  29
HETATM   29  C3  UNL     1      31.212  11.861  45.972  1.00  0.00    -0.040 C 
HETATM   30  C2  UNL     1      30.503  12.886  45.533  1.00  0.00    -0.022 C 
HETATM   31  C1  UNL     1      31.064  13.750  44.483  1.00  0.00     0.036 C 
HETATM   32  C4  UNL     1      32.554  11.635  45.372  1.00  0.00     0.050 C 
ENDBRANCH   1  29
TORSDOF 7
ENDMDL
MODEL 8
REMARK VINA RESULT:      -7.3      3.677      6.910
REMARK  7 active torsions:
REMARK  status: ('A' for Active; 'I' for Inactive)
REMARK    1  A    between atoms: C3_3  and  C5_5 
REMARK    2  A    between atoms: C7_7  and  N1_8 
REMARK       I    between atoms: N1_8  and  C8_9 
REMARK    3  A    between atoms: C8_9  and  C9_11 
REMARK    4  A    between atoms: C14_16  and  O2_17 
REMARK    5  A    between atoms: C16_19  and  N2_20 
REMARK    6  A    between atoms: N2_20  and  C17_21 
REMARK    7  A    between atoms: C17_21  and  C18_22 
ROOT
HETATM    1  C5  UNL     1      25.205   5.982  48.873  1.00  0.00     0.035 C 
HETATM    2  C6  UNL     1      24.748   5.197  49.835  1.00  0.00     0.030 C 
HETATM    3  C7  UNL     1      23.464   4.819  50.417  1.00  0.00     0.138 C 
HETATM    4  C16 UNL     1      22.287   4.862  49.475  1.00  0.00     0.158 C 
HETATM    5  C23 UNL     1      22.070   6.148  48.811  1.00  0.00     0.019 C 
HETATM    6  C24 UNL     1      22.893   7.012  48.191  1.00  0.00     0.086 C 
HETATM    7  N4  UNL     1      24.309   6.756  48.076  1.00  0.00    -0.366 N 
HETATM    8  H26 UNL     1      24.737   7.232  47.253  1.00  0.00     0.165 HD
ENDROOT
BRANCH   3   9
HETATM    9  N1  UNL     1      23.516   3.465  50.928  1.00  0.00    -0.346 N 
HETATM   10  C8  UNL     1      23.757   3.107  52.257  1.00  0.00     0.255 C 
HETATM   11  O1  UNL     1      23.922   4.152  52.959  1.00  0.00    -0.268 OA
HETATM   12  H10 UNL     1      23.363   2.697  50.240  1.00  0.00     0.163 HD
BRANCH  10  13
HETATM   13  C9  UNL     1      23.830   1.805  52.861  1.00  0.00     0.065 A 
HETATM   14  C10 UNL     1      25.077   1.391  53.338  1.00  0.00     0.020 A 
HETATM   15  C11 UNL     1      25.259   0.164  53.934  1.00  0.00     0.001 A 
HETATM   16  C12 UNL     1      24.214  -0.721  54.090  1.00  0.00     0.003 A 
HETATM   17  C13 UNL     1      22.969  -0.347  53.632  1.00  0.00     0.038 A 
HETATM   18  C14 UNL     1      22.847   0.893  53.045  1.00  0.00     0.084 A 
BRANCH  18  19
HETATM   19  O2  UNL     1      21.579   1.224  52.602  1.00  0.00    -0.355 OA
HETATM   20  C15 UNL     1      20.392   0.596  53.023  1.00  0.00     0.210 C 
ENDBRANCH  18  19
ENDBRANCH  10  13
ENDBRANCH   3   9
BRANCH   4  21
HETATM   21  N2  UNL     1      22.284   3.735  48.567  1.00  0.00    -0.289 NA
BRANCH  21  22
HETATM   22  C17 UNL     1      21.413   3.670  47.641  1.00  0.00     0.124 C 
BRANCH  22  23
HETATM   23  C18 UNL     1      20.827   3.656  46.309  1.00  0.00    -0.002 A 
HETATM   24  C19 UNL     1      19.461   3.525  46.280  1.00  0.00     0.016 A 
HETATM   25  C20 UNL     1      18.912   3.512  45.023  1.00  0.00     0.020 A 
HETATM   26  C21 UNL     1      19.748   3.626  43.940  1.00  0.00     0.116 A 
HETATM   27  N3  UNL     1      21.100   3.754  44.019  1.00  0.00    -0.272 NA
HETATM   28  C22 UNL     1      21.688   3.772  45.242  1.00  0.00     0.129 A 
ENDBRANCH  22  23
ENDBRANCH  21  22
ENDBRANCH   4  21
BRANCH   1  29
HETATM   29  C3  UNL     1      26.630   6.056  48.628  1.00  0.00    -0.040 C 
HETATM   30  C2  UNL     1      27.462   5.031  48.582  1.00  0.00    -0.022 C 
HETATM   31  C1  UNL     1      28.889   5.275  48.322  1.00  0.00     0.036 C 
HETATM   32  C4  UNL     1      27.189   7.417  48.412  1.00  0.00     0.050 C 
ENDBRANCH   1  29
TORSDOF 7
ENDMDL
MODEL 9
REMARK VINA RESULT:      -7.0      3.488      7.222
REMARK  7 active torsions:
REMARK  status: ('A' for Active; 'I' for Inactive)
REMARK    1  A    between atoms: C3_3  and  C5_5 
REMARK    2  A    between atoms: C7_7  and  N1_8 
REMARK       I    between atoms: N1_8  and  C8_9 
REMARK    3  A    between atoms: C8_9  and  C9_11 
REMARK    4  A    between atoms: C14_16  and  O2_17 
REMARK    5  A    between atoms: C16_19  and  N2_20 
REMARK    6  A    between atoms: N2_20  and  C17_21 
REMARK    7  A    between atoms: C17_21  and  C18_22 
ROOT
HETATM    1  C5  UNL     1      21.465   4.251  49.548  1.00  0.00     0.035 C 
HETATM    2  C6  UNL     1      22.606   4.905  49.399  1.00  0.00     0.030 C 
HETATM    3  C7  UNL     1      23.792   5.221  50.189  1.00  0.00     0.138 C 
HETATM    4  C16 UNL     1      24.157   4.210  51.247  1.00  0.00     0.158 C 
HETATM    5  C23 UNL     1      23.097   3.910  52.209  1.00  0.00     0.019 C 
HETATM    6  C24 UNL     1      21.785   3.643  52.077  1.00  0.00     0.086 C 
HETATM    7  N4  UNL     1      21.147   3.611  50.783  1.00  0.00    -0.366 N 
HETATM    8  H26 UNL     1      20.301   3.001  50.768  1.00  0.00     0.165 HD
ENDROOT
BRANCH   3   9
HETATM    9  N1  UNL     1      24.955   5.340  49.333  1.00  0.00    -0.346 N 
HETATM   10  C8  UNL     1      25.947   6.319  49.441  1.00  0.00     0.255 C 
HETATM   11  O1  UNL     1      25.680   7.095  50.409  1.00  0.00    -0.268 OA
HETATM   12  H10 UNL     1      25.053   4.634  48.573  1.00  0.00     0.163 HD
BRANCH  10  13
HETATM   13  C9  UNL     1      27.129   6.523  48.649  1.00  0.00     0.065 A 
HETATM   14  C10 UNL     1      28.107   5.525  48.693  1.00  0.00     0.020 A 
HETATM   15  C11 UNL     1      29.277   5.619  47.974  1.00  0.00     0.001 A 
HETATM   16  C12 UNL     1      29.541   6.708  47.171  1.00  0.00     0.003 A 
HETATM   17  C13 UNL     1      28.599   7.712  47.103  1.00  0.00     0.038 A 
HETATM   18  C14 UNL     1      27.447   7.562  47.844  1.00  0.00     0.084 A 
BRANCH  18  19
HETATM   19  O2  UNL     1      26.532   8.595  47.743  1.00  0.00    -0.355 OA
HETATM   20  C15 UNL     1      26.706   9.878  48.293  1.00  0.00     0.210 C 
ENDBRANCH  18  19
ENDBRANCH  10  13
ENDBRANCH   3   9
BRANCH   4  21
HETATM   21  N2  UNL     1      24.769   3.030  50.674  1.00  0.00    -0.289 NA
BRANCH  21  22
HETATM   22  C17 UNL     1      25.211   2.113  51.437  1.00  0.00     0.124 C 
BRANCH  22  23
HETATM   23  C18 UNL     1      26.025   1.432  52.433  1.00  0.00    -0.002 A 
HETATM   24  C19 UNL     1      26.567   0.241  52.022  1.00  0.00     0.016 A 
HETATM   25  C20 UNL     1      27.332  -0.398  52.963  1.00  0.00     0.020 A 
HETATM   26  C21 UNL     1      27.484   0.189  54.195  1.00  0.00     0.116 A 
HETATM   27  N3  UNL     1      26.925   1.376  54.559  1.00  0.00    -0.272 NA
HETATM   28  C22 UNL     1      26.160   2.044  53.658  1.00  0.00     0.129 A 
ENDBRANCH  22  23
ENDBRANCH  21  22
ENDBRANCH   4  21
BRANCH   1  29
HETATM   29  C3  UNL     1      20.530   4.187  48.445  1.00  0.00    -0.040 C 
HETATM   30  C2  UNL     1      19.773   3.151  48.131  1.00  0.00    -0.022 C 
HETATM   31  C1  UNL     1      18.870   3.246  46.973  1.00  0.00     0.036 C 
HETATM   32  C4  UNL     1      20.428   5.406  47.599  1.00  0.00     0.050 C 
ENDBRANCH   1  29
TORSDOF 7
ENDMDL
