MODEL 1
REMARK VINA RESULT:      -9.9      0.000      0.000
REMARK  0 active torsions:
REMARK  status: ('A' for Active; 'I' for Inactive)
ROOT
HETATM    1  F1  UNL     1      26.219   0.194  55.363  1.00  0.00    -0.370 F 
HETATM    2  C1  UNL     1      26.493   1.016  54.355  1.00  0.00     0.101 A 
HETATM    3  C2  UNL     1      26.776   1.917  53.372  1.00  0.00     0.118 C 
HETATM    4  C3  UNL     1      26.930   1.470  51.913  1.00  0.00     0.045 C 
HETATM    5  C4  UNL     1      26.107   2.340  51.036  1.00  0.00    -0.048 C 
HETATM    6  C5  UNL     1      26.686   3.194  50.372  1.00  0.00     0.087 C 
HETATM    7  N1  UNL     1      27.069   4.258  49.493  1.00  0.00    -0.388 N 
HETATM    8  C6  UNL     1      27.449   5.314  48.623  1.00  0.00     0.213 C 
HETATM    9  C7  UNL     1      26.237   6.162  48.546  1.00  0.00    -0.085 C 
HETATM   10  C8  UNL     1      25.320   6.813  48.507  1.00  0.00    -0.074 C 
HETATM   11  C9  UNL     1      24.082   7.701  48.489  1.00  0.00     0.369 C 
HETATM   12  N2  UNL     1      23.300   7.129  49.582  1.00  0.00     0.130 N 
HETATM   13  C10 UNL     1      22.314   7.999  50.083  1.00  0.00     0.277 C 
HETATM   14  C11 UNL     1      20.926   7.591  49.605  1.00  0.00     0.030 C 
HETATM   15  C12 UNL     1      21.019   7.182  48.135  1.00  0.00     0.006 C 
HETATM   16  C13 UNL     1      21.811   5.927  48.066  1.00  0.00     0.067 C 
HETATM   17  C14 UNL     1      22.832   5.786  49.195  1.00  0.00     0.388 C 
HETATM   18  O1  UNL     1      23.931   5.078  48.866  1.00  0.00    -0.246 OA
HETATM   19  N3  UNL     1      24.104   3.835  49.212  1.00  0.00    -0.269 N 
HETATM   20  C15 UNL     1      24.012   2.786  50.245  1.00  0.00     0.182 A 
HETATM   21  N4  UNL     1      22.686   2.868  49.953  1.00  0.00    -0.183 NA
HETATM   22  C16 UNL     1      21.761   2.099  50.626  1.00  0.00     0.094 A 
HETATM   23  N5  UNL     1      23.156   2.204  50.742  1.00  0.00     0.000 N 
HETATM   24  C17 UNL     1      23.663   1.381  51.714  1.00  0.00     0.253 A 
HETATM   25  C18 UNL     1      24.696   2.091  51.105  1.00  0.00     0.090 A 
HETATM   26  N6  UNL     1      24.611   0.723  52.621  1.00  0.00     0.110 N 
HETATM   27  C19 UNL     1      24.255  -0.322  53.643  1.00  0.00     0.287 A 
HETATM   28  C20 UNL     1      25.343  -0.020  54.484  1.00  0.00     0.199 A 
HETATM   29 CL1  UNL     1      24.783  -1.276  55.679  1.00  0.00    -0.081 Cl
HETATM   30  H5  UNL     1      26.674   3.421  48.856  1.00  0.00     0.159 HD
HETATM   31  H19 UNL     1      24.408   3.809  48.230  1.00  0.00     0.190 HD
HETATM   32  H21 UNL     1      23.657   0.395  52.762  1.00  0.00     0.349 HD
ENDROOT
TORSDOF 0
ENDMDL
MODEL 2
REMARK VINA RESULT:      -9.7      3.221      5.201
REMARK  0 active torsions:
REMARK  status: ('A' for Active; 'I' for Inactive)
ROOT
HETATM    1  F1  UNL     1      28.253  -0.920  53.149  1.00  0.00    -0.370 F 
HETATM    2  C1  UNL     1      26.925  -0.975  53.125  1.00  0.00     0.101 A 
HETATM    3  C2  UNL     1      25.569  -1.070  53.034  1.00  0.00     0.118 C 
HETATM    4  C3  UNL     1      24.663  -0.497  54.131  1.00  0.00     0.045 C 
HETATM    5  C4  UNL     1      23.604   0.341  53.516  1.00  0.00    -0.048 C 
HETATM    6  C5  UNL     1      22.472  -0.128  53.444  1.00  0.00     0.087 C 
HETATM    7  N1  UNL     1      21.083  -0.396  53.226  1.00  0.00    -0.388 N 
HETATM    8  C6  UNL     1      19.705  -0.663  53.008  1.00  0.00     0.213 C 
HETATM    9  C7  UNL     1      19.356   0.199  51.855  1.00  0.00    -0.085 C 
HETATM   10  C8  UNL     1      19.101   0.842  50.966  1.00  0.00    -0.074 C 
HETATM   11  C9  UNL     1      18.779   1.692  49.745  1.00  0.00     0.369 C 
HETATM   12  N2  UNL     1      20.115   2.090  49.309  1.00  0.00     0.130 N 
HETATM   13  C10 UNL     1      20.165   2.517  47.969  1.00  0.00     0.277 C 
HETATM   14  C11 UNL     1      20.279   4.033  47.877  1.00  0.00     0.030 C 
HETATM   15  C12 UNL     1      19.354   4.654  48.924  1.00  0.00     0.006 C 
HETATM   16  C13 UNL     1      19.905   4.327  50.263  1.00  0.00     0.067 C 
HETATM   17  C14 UNL     1      20.693   3.018  50.298  1.00  0.00     0.388 C 
HETATM   18  O1  UNL     1      20.661   2.380  51.485  1.00  0.00    -0.246 OA
HETATM   19  N3  UNL     1      21.640   2.425  52.342  1.00  0.00    -0.269 N 
HETATM   20  C15 UNL     1      23.091   2.372  52.606  1.00  0.00     0.182 A 
HETATM   21  N4  UNL     1      23.049   3.628  52.084  1.00  0.00    -0.183 NA
HETATM   22  C16 UNL     1      24.197   4.373  51.932  1.00  0.00     0.094 A 
HETATM   23  N5  UNL     1      23.978   3.078  52.426  1.00  0.00     0.000 N 
HETATM   24  C17 UNL     1      25.140   2.466  52.820  1.00  0.00     0.253 A 
HETATM   25  C18 UNL     1      24.056   1.615  53.035  1.00  0.00     0.090 A 
HETATM   26  N6  UNL     1      26.074   1.448  53.318  1.00  0.00     0.110 N 
HETATM   27  C19 UNL     1      27.559   1.630  53.466  1.00  0.00     0.287 A 
HETATM   28  C20 UNL     1      27.847   0.258  53.331  1.00  0.00     0.199 A 
HETATM   29 CL1  UNL     1      29.630   0.606  53.465  1.00  0.00    -0.081 Cl
HETATM   30  H5  UNL     1      21.151   0.432  53.982  1.00  0.00     0.159 HD
HETATM   31  H19 UNL     1      20.832   2.561  52.962  1.00  0.00     0.190 HD
HETATM   32  H21 UNL     1      26.549   2.314  53.069  1.00  0.00     0.349 HD
ENDROOT
TORSDOF 0
ENDMDL
MODEL 3
REMARK VINA RESULT:      -9.4      3.975      6.670
REMARK  0 active torsions:
REMARK  status: ('A' for Active; 'I' for Inactive)
ROOT
HETATM    1  F1  UNL     1      27.167   3.590  49.256  1.00  0.00    -0.370 F 
HETATM    2  C1  UNL     1      26.359   2.897  50.053  1.00  0.00     0.101 A 
HETATM    3  C2  UNL     1      25.528   2.131  50.815  1.00  0.00     0.118 C 
HETATM    4  C3  UNL     1      25.080   2.599  52.206  1.00  0.00     0.045 C 
HETATM    5  C4  UNL     1      23.606   2.470  52.324  1.00  0.00    -0.048 C 
HETATM    6  C5  UNL     1      23.165   1.534  52.984  1.00  0.00     0.087 C 
HETATM    7  N1  UNL     1      22.368   0.566  53.675  1.00  0.00    -0.388 N 
HETATM    8  C6  UNL     1      21.578  -0.395  54.359  1.00  0.00     0.213 C 
HETATM    9  C7  UNL     1      20.295  -0.392  53.618  1.00  0.00    -0.085 C 
HETATM   10  C8  UNL     1      19.330  -0.398  53.039  1.00  0.00    -0.074 C 
HETATM   11  C9  UNL     1      18.041  -0.419  52.228  1.00  0.00     0.369 C 
HETATM   12  N2  UNL     1      18.431   0.346  51.046  1.00  0.00     0.130 N 
HETATM   13  C10 UNL     1      17.595   0.129  49.935  1.00  0.00     0.277 C 
HETATM   14  C11 UNL     1      16.655   1.308  49.715  1.00  0.00     0.030 C 
HETATM   15  C12 UNL     1      16.142   1.781  51.075  1.00  0.00     0.006 C 
HETATM   16  C13 UNL     1      17.292   2.364  51.813  1.00  0.00     0.067 C 
HETATM   17  C14 UNL     1      18.639   1.755  51.425  1.00  0.00     0.388 C 
HETATM   18  O1  UNL     1      19.554   1.753  52.415  1.00  0.00    -0.246 OA
HETATM   19  N3  UNL     1      20.520   2.623  52.490  1.00  0.00    -0.269 N 
HETATM   20  C15 UNL     1      21.581   3.394  51.815  1.00  0.00     0.182 A 
HETATM   21  N4  UNL     1      20.520   4.115  51.364  1.00  0.00    -0.183 NA
HETATM   22  C16 UNL     1      20.696   5.176  50.503  1.00  0.00     0.094 A 
HETATM   23  N5  UNL     1      21.606   4.287  51.094  1.00  0.00     0.000 N 
HETATM   24  C17 UNL     1      22.902   4.545  50.726  1.00  0.00     0.253 A 
HETATM   25  C18 UNL     1      22.862   3.461  51.602  1.00  0.00     0.090 A 
HETATM   26  N6  UNL     1      24.360   4.426  50.600  1.00  0.00     0.110 N 
HETATM   27  C19 UNL     1      25.241   5.345  49.799  1.00  0.00     0.287 A 
HETATM   28  C20 UNL     1      26.239   4.374  49.588  1.00  0.00     0.199 A 
HETATM   29 CL1  UNL     1      27.194   5.558  48.586  1.00  0.00    -0.081 Cl
HETATM   30  H5  UNL     1      22.217   1.554  54.188  1.00  0.00     0.159 HD
HETATM   31  H19 UNL     1      20.201   2.600  53.468  1.00  0.00     0.190 HD
HETATM   32  H21 UNL     1      23.993   5.214  50.069  1.00  0.00     0.349 HD
ENDROOT
TORSDOF 0
ENDMDL
MODEL 4
REMARK VINA RESULT:      -8.8      3.729      7.407
REMARK  0 active torsions:
REMARK  status: ('A' for Active; 'I' for Inactive)
ROOT
HETATM    1  F1  UNL     1      24.120   8.775  50.117  1.00  0.00    -0.370 F 
HETATM    2  C1  UNL     1      23.242   7.787  49.975  1.00  0.00     0.101 A 
HETATM    3  C2  UNL     1      22.303   6.802  49.891  1.00  0.00     0.118 C 
HETATM    4  C3  UNL     1      22.371   5.740  48.786  1.00  0.00     0.045 C 
HETATM    5  C4  UNL     1      22.229   4.389  49.384  1.00  0.00    -0.048 C 
HETATM    6  C5  UNL     1      21.151   3.817  49.254  1.00  0.00     0.087 C 
HETATM    7  N1  UNL     1      20.037   2.918  49.266  1.00  0.00    -0.388 N 
HETATM    8  C6  UNL     1      18.932   2.026  49.279  1.00  0.00     0.213 C 
HETATM    9  C7  UNL     1      19.153   1.206  50.492  1.00  0.00    -0.085 C 
HETATM   10  C8  UNL     1      19.316   0.599  51.427  1.00  0.00    -0.074 C 
HETATM   11  C9  UNL     1      19.534  -0.194  52.709  1.00  0.00     0.369 C 
HETATM   12  N2  UNL     1      20.592   0.581  53.352  1.00  0.00     0.130 N 
HETATM   13  C10 UNL     1      20.700   0.346  54.735  1.00  0.00     0.277 C 
HETATM   14  C11 UNL     1      21.903  -0.534  55.052  1.00  0.00     0.030 C 
HETATM   15  C12 UNL     1      21.985  -1.641  54.001  1.00  0.00     0.006 C 
HETATM   16  C13 UNL     1      22.330  -1.006  52.704  1.00  0.00     0.067 C 
HETATM   17  C14 UNL     1      21.839   0.436  52.579  1.00  0.00     0.388 C 
HETATM   18  O1  UNL     1      21.554   0.819  51.318  1.00  0.00    -0.246 OA
HETATM   19  N3  UNL     1      22.360   1.547  50.599  1.00  0.00    -0.269 N 
HETATM   20  C15 UNL     1      23.278   2.698  50.503  1.00  0.00     0.182 A 
HETATM   21  N4  UNL     1      24.106   1.864  51.188  1.00  0.00    -0.183 NA
HETATM   22  C16 UNL     1      25.362   2.273  51.579  1.00  0.00     0.094 A 
HETATM   23  N5  UNL     1      24.335   2.931  50.885  1.00  0.00     0.000 N 
HETATM   24  C17 UNL     1      24.672   4.217  50.549  1.00  0.00     0.253 A 
HETATM   25  C18 UNL     1      23.389   3.925  50.089  1.00  0.00     0.090 A 
HETATM   26  N6  UNL     1      24.579   5.586  50.027  1.00  0.00     0.110 N 
HETATM   27  C19 UNL     1      25.674   6.614  50.083  1.00  0.00     0.287 A 
HETATM   28  C20 UNL     1      24.791   7.710  50.056  1.00  0.00     0.199 A 
HETATM   29 CL1  UNL     1      26.196   8.862  50.184  1.00  0.00    -0.081 Cl
HETATM   30  H5  UNL     1      20.846   2.443  48.647  1.00  0.00     0.159 HD
HETATM   31  H19 UNL     1      22.071   0.837  49.912  1.00  0.00     0.190 HD
HETATM   32  H21 UNL     1      25.486   5.399  50.450  1.00  0.00     0.349 HD
ENDROOT
TORSDOF 0
ENDMDL
MODEL 5
REMARK VINA RESULT:      -8.5      1.392      1.589
REMARK  0 active torsions:
REMARK  status: ('A' for Active; 'I' for Inactive)
ROOT
HETATM    1  F1  UNL     1      24.405   0.368  54.312  1.00  0.00    -0.370 F 
HETATM    2  C1  UNL     1      24.992   1.213  53.470  1.00  0.00     0.101 A 
HETATM    3  C2  UNL     1      25.595   2.132  52.664  1.00  0.00     0.118 C 
HETATM    4  C3  UNL     1      25.967   1.787  51.216  1.00  0.00     0.045 C 
HETATM    5  C4  UNL     1      25.473   2.852  50.307  1.00  0.00    -0.048 C 
HETATM    6  C5  UNL     1      26.293   3.648  49.860  1.00  0.00     0.087 C 
HETATM    7  N1  UNL     1      26.996   4.701  49.192  1.00  0.00    -0.388 N 
HETATM    8  C6  UNL     1      27.693   5.747  48.531  1.00  0.00     0.213 C 
HETATM    9  C7  UNL     1      26.660   6.789  48.330  1.00  0.00    -0.085 C 
HETATM   10  C8  UNL     1      25.876   7.586  48.199  1.00  0.00    -0.074 C 
HETATM   11  C9  UNL     1      24.812   8.666  48.055  1.00  0.00     0.369 C 
HETATM   12  N2  UNL     1      23.753   8.146  48.915  1.00  0.00     0.130 N 
HETATM   13  C10 UNL     1      22.827   9.125  49.322  1.00  0.00     0.277 C 
HETATM   14  C11 UNL     1      21.517   8.996  48.556  1.00  0.00     0.030 C 
HETATM   15  C12 UNL     1      21.838   8.699  47.091  1.00  0.00     0.006 C 
HETATM   16  C13 UNL     1      22.432   7.339  47.027  1.00  0.00     0.067 C 
HETATM   17  C14 UNL     1      23.177   6.937  48.300  1.00  0.00     0.388 C 
HETATM   18  O1  UNL     1      24.202   6.084  48.099  1.00  0.00    -0.246 OA
HETATM   19  N3  UNL     1      24.116   4.805  48.329  1.00  0.00    -0.269 N 
HETATM   20  C15 UNL     1      23.666   3.705  49.203  1.00  0.00     0.182 A 
HETATM   21  N4  UNL     1      22.452   4.032  48.685  1.00  0.00    -0.183 NA
HETATM   22  C16 UNL     1      21.308   3.376  49.086  1.00  0.00     0.094 A 
HETATM   23  N5  UNL     1      22.652   3.236  49.466  1.00  0.00     0.000 N 
HETATM   24  C17 UNL     1      22.828   2.262  50.414  1.00  0.00     0.253 A 
HETATM   25  C18 UNL     1      24.055   2.838  50.089  1.00  0.00     0.090 A 
HETATM   26  N6  UNL     1      23.469   1.382  51.400  1.00  0.00     0.110 N 
HETATM   27  C19 UNL     1      22.767   0.332  52.214  1.00  0.00     0.287 A 
HETATM   28  C20 UNL     1      23.699   0.377  53.269  1.00  0.00     0.199 A 
HETATM   29 CL1  UNL     1      22.733  -0.861  54.192  1.00  0.00    -0.081 Cl
HETATM   30  H5  UNL     1      26.615   3.997  48.404  1.00  0.00     0.159 HD
HETATM   31  H19 UNL     1      24.602   4.810  47.422  1.00  0.00     0.190 HD
HETATM   32  H21 UNL     1      22.468   1.209  51.326  1.00  0.00     0.349 HD
ENDROOT
TORSDOF 0
ENDMDL
MODEL 6
REMARK VINA RESULT:      -8.4      4.669      6.454
REMARK  0 active torsions:
REMARK  status: ('A' for Active; 'I' for Inactive)
ROOT
HETATM    1  F1  UNL     1      24.919   1.206  53.520  1.00  0.00    -0.370 F 
HETATM    2  C1  UNL     1      24.041   1.694  52.650  1.00  0.00     0.101 A 
HETATM    3  C2  UNL     1      23.137   2.259  51.800  1.00  0.00     0.118 C 
HETATM    4  C3  UNL     1      22.652   1.510  50.553  1.00  0.00     0.045 C 
HETATM    5  C4  UNL     1      21.170   1.551  50.492  1.00  0.00    -0.048 C 
HETATM    6  C5  UNL     1      20.651   2.320  49.690  1.00  0.00     0.087 C 
HETATM    7  N1  UNL     1      19.773   3.099  48.869  1.00  0.00    -0.388 N 
HETATM    8  C6  UNL     1      18.903   3.873  48.056  1.00  0.00     0.213 C 
HETATM    9  C7  UNL     1      17.657   3.959  48.853  1.00  0.00    -0.085 C 
HETATM   10  C8  UNL     1      16.720   4.037  49.472  1.00  0.00    -0.074 C 
HETATM   11  C9  UNL     1      15.470   4.161  50.332  1.00  0.00     0.369 C 
HETATM   12  N2  UNL     1      15.953   3.659  51.617  1.00  0.00     0.130 N 
HETATM   13  C10 UNL     1      15.157   4.052  52.709  1.00  0.00     0.277 C 
HETATM   14  C11 UNL     1      14.292   2.900  53.203  1.00  0.00     0.030 C 
HETATM   15  C12 UNL     1      13.744   2.149  51.990  1.00  0.00     0.006 C 
HETATM   16  C13 UNL     1      14.888   1.483  51.317  1.00  0.00     0.067 C 
HETATM   17  C14 UNL     1      16.218   2.214  51.505  1.00  0.00     0.388 C 
HETATM   18  O1  UNL     1      17.085   2.061  50.486  1.00  0.00    -0.246 OA
HETATM   19  N3  UNL     1      18.092   1.236  50.527  1.00  0.00    -0.269 N 
HETATM   20  C15 UNL     1      19.221   0.657  51.280  1.00  0.00     0.182 A 
HETATM   21  N4  UNL     1      18.221  -0.007  51.919  1.00  0.00    -0.183 NA
HETATM   22  C16 UNL     1      18.491  -0.870  52.958  1.00  0.00     0.094 A 
HETATM   23  N5  UNL     1      19.326  -0.075  52.157  1.00  0.00     0.000 N 
HETATM   24  C17 UNL     1      20.648  -0.200  52.497  1.00  0.00     0.253 A 
HETATM   25  C18 UNL     1      20.512   0.688  51.431  1.00  0.00     0.090 A 
HETATM   26  N6  UNL     1      22.102   0.003  52.518  1.00  0.00     0.110 N 
HETATM   27  C19 UNL     1      23.066  -0.703  53.431  1.00  0.00     0.287 A 
HETATM   28  C20 UNL     1      24.020   0.333  53.397  1.00  0.00     0.199 A 
HETATM   29 CL1  UNL     1      25.081  -0.590  54.555  1.00  0.00    -0.081 Cl
HETATM   30  H5  UNL     1      19.652   2.024  48.566  1.00  0.00     0.159 HD
HETATM   31  H19 UNL     1      17.728   1.053  49.583  1.00  0.00     0.190 HD
HETATM   32  H21 UNL     1      21.802  -0.681  53.211  1.00  0.00     0.349 HD
ENDROOT
TORSDOF 0
ENDMDL
MODEL 7
REMARK VINA RESULT:      -8.3      6.286      9.349
REMARK  0 active torsions:
REMARK  status: ('A' for Active; 'I' for Inactive)
ROOT
HETATM    1  F1  UNL     1      24.359   6.392  48.670  1.00  0.00    -0.370 F 
HETATM    2  C1  UNL     1      25.275   7.354  48.725  1.00  0.00     0.101 A 
HETATM    3  C2  UNL     1      26.186   8.368  48.714  1.00  0.00     0.118 C 
HETATM    4  C3  UNL     1      27.205   8.524  49.850  1.00  0.00     0.045 C 
HETATM    5  C4  UNL     1      28.565   8.690  49.280  1.00  0.00    -0.048 C 
HETATM    6  C5  UNL     1      29.053   9.816  49.283  1.00  0.00     0.087 C 
HETATM    7  N1  UNL     1      29.871  10.984  49.151  1.00  0.00    -0.388 N 
HETATM    8  C6  UNL     1      30.681  12.143  49.019  1.00  0.00     0.213 C 
HETATM    9  C7  UNL     1      31.563  11.829  47.871  1.00  0.00    -0.085 C 
HETATM   10  C8  UNL     1      32.217  11.592  46.986  1.00  0.00    -0.074 C 
HETATM   11  C9  UNL     1      33.074  11.272  45.768  1.00  0.00     0.369 C 
HETATM   12  N2  UNL     1      32.403  10.083  45.248  1.00  0.00     0.130 N 
HETATM   13  C10 UNL     1      32.701   9.815  43.899  1.00  0.00     0.277 C 
HETATM   14  C11 UNL     1      33.676   8.651  43.771  1.00  0.00     0.030 C 
HETATM   15  C12 UNL     1      34.743   8.790  44.856  1.00  0.00     0.006 C 
HETATM   16  C13 UNL     1      34.083   8.569  46.168  1.00  0.00     0.067 C 
HETATM   17  C14 UNL     1      32.605   8.962  46.183  1.00  0.00     0.388 C 
HETATM   18  O1  UNL     1      32.153   9.377  47.382  1.00  0.00    -0.246 OA
HETATM   19  N3  UNL     1      31.456   8.619  48.180  1.00  0.00    -0.269 N 
HETATM   20  C15 UNL     1      30.371   7.637  48.361  1.00  0.00     0.182 A 
HETATM   21  N4  UNL     1      31.288   6.792  47.818  1.00  0.00    -0.183 NA
HETATM   22  C16 UNL     1      30.986   5.469  47.584  1.00  0.00     0.094 A 
HETATM   23  N5  UNL     1      30.229   6.524  48.116  1.00  0.00     0.000 N 
HETATM   24  C17 UNL     1      28.958   6.137  48.455  1.00  0.00     0.253 A 
HETATM   25  C18 UNL     1      29.139   7.488  48.749  1.00  0.00     0.090 A 
HETATM   26  N6  UNL     1      27.566   6.193  48.918  1.00  0.00     0.110 N 
HETATM   27  C19 UNL     1      26.621   5.024  48.976  1.00  0.00     0.287 A 
HETATM   28  C20 UNL     1      25.465   5.818  48.852  1.00  0.00     0.199 A 
HETATM   29 CL1  UNL     1      24.423   4.324  48.876  1.00  0.00    -0.081 Cl
HETATM   30  H5  UNL     1      30.376  10.301  49.886  1.00  0.00     0.159 HD
HETATM   31  H19 UNL     1      32.115   9.048  48.843  1.00  0.00     0.190 HD
HETATM   32  H21 UNL     1      27.834   5.255  48.625  1.00  0.00     0.349 HD
ENDROOT
TORSDOF 0
ENDMDL
MODEL 8
REMARK VINA RESULT:      -7.9      5.826      9.304
REMARK  0 active torsions:
REMARK  status: ('A' for Active; 'I' for Inactive)
ROOT
HETATM    1  F1  UNL     1      23.476   9.124  45.875  1.00  0.00    -0.370 F 
HETATM    2  C1  UNL     1      24.757   9.369  46.136  1.00  0.00     0.101 A 
HETATM    3  C2  UNL     1      26.083   9.617  46.327  1.00  0.00     0.118 C 
HETATM    4  C3  UNL     1      26.650   9.830  47.736  1.00  0.00     0.045 C 
HETATM    5  C4  UNL     1      27.848   8.974  47.927  1.00  0.00    -0.048 C 
HETATM    6  C5  UNL     1      28.949   9.514  47.883  1.00  0.00     0.087 C 
HETATM    7  N1  UNL     1      30.341   9.850  47.886  1.00  0.00    -0.388 N 
HETATM    8  C6  UNL     1      31.721  10.182  47.888  1.00  0.00     0.213 C 
HETATM    9  C7  UNL     1      32.390   8.922  47.488  1.00  0.00    -0.085 C 
HETATM   10  C8  UNL     1      32.890   7.967  47.164  1.00  0.00    -0.074 C 
HETATM   11  C9  UNL     1      33.552   6.678  46.695  1.00  0.00     0.369 C 
HETATM   12  N2  UNL     1      32.396   5.909  46.240  1.00  0.00     0.130 N 
HETATM   13  C10 UNL     1      32.729   4.860  45.363  1.00  0.00     0.277 C 
HETATM   14  C11 UNL     1      32.661   3.511  46.068  1.00  0.00     0.030 C 
HETATM   15  C12 UNL     1      33.261   3.662  47.465  1.00  0.00     0.006 C 
HETATM   16  C13 UNL     1      32.352   4.530  48.255  1.00  0.00     0.067 C 
HETATM   17  C14 UNL     1      31.573   5.534  47.404  1.00  0.00     0.388 C 
HETATM   18  O1  UNL     1      31.264   6.681  48.040  1.00  0.00    -0.246 OA
HETATM   19  N3  UNL     1      30.083   6.923  48.534  1.00  0.00    -0.269 N 
HETATM   20  C15 UNL     1      28.617   6.874  48.383  1.00  0.00     0.182 A 
HETATM   21  N4  UNL     1      28.817   5.552  48.635  1.00  0.00    -0.183 NA
HETATM   22  C16 UNL     1      27.765   4.662  48.639  1.00  0.00     0.094 A 
HETATM   23  N5  UNL     1      27.823   6.044  48.405  1.00  0.00     0.000 N 
HETATM   24  C17 UNL     1      26.591   6.580  48.130  1.00  0.00     0.253 A 
HETATM   25  C18 UNL     1      27.562   7.580  48.106  1.00  0.00     0.090 A 
HETATM   26  N6  UNL     1      25.544   7.547  47.778  1.00  0.00     0.110 N 
HETATM   27  C19 UNL     1      24.079   7.234  47.649  1.00  0.00     0.287 A 
HETATM   28  C20 UNL     1      23.827   8.283  46.743  1.00  0.00     0.199 A 
HETATM   29 CL1  UNL     1      22.082   7.775  46.622  1.00  0.00    -0.081 Cl
HETATM   30  H5  UNL     1      30.071   9.521  48.926  1.00  0.00     0.159 HD
HETATM   31  H19 UNL     1      30.687   7.250  49.300  1.00  0.00     0.190 HD
HETATM   32  H21 UNL     1      25.167   6.612  47.924  1.00  0.00     0.349 HD
ENDROOT
TORSDOF 0
ENDMDL
MODEL 9
REMARK VINA RESULT:      -7.8      4.753      7.324
REMARK  0 active torsions:
REMARK  status: ('A' for Active; 'I' for Inactive)
ROOT
HETATM    1  F1  UNL     1      22.689   5.416  51.253  1.00  0.00    -0.370 F 
HETATM    2  C1  UNL     1      23.951   5.371  50.836  1.00  0.00     0.101 A 
HETATM    3  C2  UNL     1      25.265   5.351  50.477  1.00  0.00     0.118 C 
HETATM    4  C3  UNL     1      25.695   4.876  49.083  1.00  0.00     0.045 C 
HETATM    5  C4  UNL     1      26.621   5.867  48.482  1.00  0.00    -0.048 C 
HETATM    6  C5  UNL     1      27.817   5.593  48.458  1.00  0.00     0.087 C 
HETATM    7  N1  UNL     1      29.238   5.555  48.288  1.00  0.00    -0.388 N 
HETATM    8  C6  UNL     1      30.648   5.519  48.122  1.00  0.00     0.213 C 
HETATM    9  C7  UNL     1      31.036   6.948  48.080  1.00  0.00    -0.085 C 
HETATM   10  C8  UNL     1      31.328   8.035  48.069  1.00  0.00    -0.074 C 
HETATM   11  C9  UNL     1      31.711   9.509  48.086  1.00  0.00     0.369 C 
HETATM   12  N2  UNL     1      30.467  10.126  48.540  1.00  0.00     0.130 N 
HETATM   13  C10 UNL     1      30.640  11.421  49.063  1.00  0.00     0.277 C 
HETATM   14  C11 UNL     1      30.166  12.481  48.078  1.00  0.00     0.030 C 
HETATM   15  C12 UNL     1      30.615  12.074  46.674  1.00  0.00     0.006 C 
HETATM   16  C13 UNL     1      29.854  10.857  46.292  1.00  0.00     0.067 C 
HETATM   17  C14 UNL     1      29.445   9.993  47.485  1.00  0.00     0.388 C 
HETATM   18  O1  UNL     1      29.348   8.677  47.211  1.00  0.00    -0.246 OA
HETATM   19  N3  UNL     1      28.210   8.076  47.009  1.00  0.00    -0.269 N 
HETATM   20  C15 UNL     1      26.803   7.870  47.401  1.00  0.00     0.182 A 
HETATM   21  N4  UNL     1      26.648   9.084  46.806  1.00  0.00    -0.183 NA
HETATM   22  C16 UNL     1      25.420   9.709  46.775  1.00  0.00     0.094 A 
HETATM   23  N5  UNL     1      25.836   8.485  47.322  1.00  0.00     0.000 N 
HETATM   24  C17 UNL     1      24.811   7.810  47.932  1.00  0.00     0.253 A 
HETATM   25  C18 UNL     1      25.989   7.071  48.024  1.00  0.00     0.090 A 
HETATM   26  N6  UNL     1      24.076   6.789  48.689  1.00  0.00     0.110 N 
HETATM   27  C19 UNL     1      22.605   6.825  48.997  1.00  0.00     0.287 A 
HETATM   28  C20 UNL     1      22.722   6.038  50.159  1.00  0.00     0.199 A 
HETATM   29 CL1  UNL     1      20.933   6.199  50.462  1.00  0.00    -0.081 Cl
HETATM   30  H5  UNL     1      28.776   5.523  47.265  1.00  0.00     0.159 HD
HETATM   31  H19 UNL     1      28.778   7.679  46.249  1.00  0.00     0.190 HD
HETATM   32  H21 UNL     1      23.471   7.551  48.390  1.00  0.00     0.349 HD
ENDROOT
TORSDOF 0
ENDMDL
