MODEL 1
REMARK VINA RESULT:      -6.8      0.000      0.000
REMARK  6 active torsions:
REMARK  status: ('A' for Active; 'I' for Inactive)
REMARK       I    between atoms: C3_3  and  N1_5 
REMARK    1  A    between atoms: N1_5  and  C4_6 
REMARK    2  A    between atoms: C4_6  and  C6_8 
REMARK    3  A    between atoms: C9_14  and  N4_15 
REMARK    4  A    between atoms: N4_15  and  C10_16 
REMARK    5  A    between atoms: C11_17  and  C12_18 
REMARK    6  A    between atoms: C13_19  and  C14_20 
ROOT
HETATM    1  C1  UNL     1      29.771  -1.036  53.664  1.00  0.00     0.022 C 
HETATM    2  C2  UNL     1      28.851  -0.280  53.582  1.00  0.00    -0.016 C 
HETATM    3  C3  UNL     1      27.746   0.654  53.472  1.00  0.00     0.299 C 
HETATM    4  O1  UNL     1      27.445   1.518  54.372  1.00  0.00    -0.258 OA
HETATM    5  N1  UNL     1      26.845   0.797  52.436  1.00  0.00    -0.320 N 
HETATM    6  H2  UNL     1      27.172   0.223  51.648  1.00  0.00     0.169 HD
ENDROOT
BRANCH   5   7
HETATM    7  C4  UNL     1      25.746   1.525  52.008  1.00  0.00     0.016 C 
HETATM    8  C5  UNL     1      26.456   2.319  51.133  1.00  0.00     0.063 C 
BRANCH   7   9
HETATM    9  C6  UNL     1      24.359   1.390  52.387  1.00  0.00     0.068 C 
HETATM   10  C7  UNL     1      23.846   0.530  53.263  1.00  0.00     0.148 A 
HETATM   11  O2  UNL     1      24.632  -0.428  53.998  1.00  0.00    -0.208 OA
HETATM   12  C9  UNL     1      22.377   0.637  53.438  1.00  0.00     0.161 A 
HETATM   13  N2  UNL     1      23.881  -1.185  54.828  1.00  0.00    -0.121 NA
HETATM   14  C8  UNL     1      22.636  -1.120  55.003  1.00  0.00     0.265 A 
HETATM   15  N3  UNL     1      21.762  -0.172  54.299  1.00  0.00    -0.220 NA
BRANCH  12  16
HETATM   16  N4  UNL     1      21.489   1.589  52.669  1.00  0.00    -0.371 N 
HETATM   17  H7  UNL     1      22.221   2.305  52.710  1.00  0.00     0.161 HD
BRANCH  16  18
HETATM   18  C10 UNL     1      20.225   0.806  52.457  1.00  0.00     0.072 C 
HETATM   19  C11 UNL     1      19.050   0.449  51.875  1.00  0.00     0.092 C 
BRANCH  19  20
HETATM   20  C12 UNL     1      18.641  -0.681  52.739  1.00  0.00    -0.018 C 
HETATM   21  C13 UNL     1      17.368  -0.811  52.375  1.00  0.00     0.014 C 
BRANCH  21  22
HETATM   22  C14 UNL     1      16.870   0.095  51.359  1.00  0.00     0.001 C 
HETATM   23  C15 UNL     1      16.634  -0.456  50.184  1.00  0.00     0.032 C 
HETATM   24 BR1  UNL     1      16.377   1.874  50.965  1.00  0.00    -0.052 Br
ENDBRANCH  21  22
ENDBRANCH  19  20
ENDBRANCH  16  18
ENDBRANCH  12  16
ENDBRANCH   7   9
ENDBRANCH   5   7
TORSDOF 6
ENDMDL
MODEL 2
REMARK VINA RESULT:      -6.6      4.225      7.132
REMARK  6 active torsions:
REMARK  status: ('A' for Active; 'I' for Inactive)
REMARK       I    between atoms: C3_3  and  N1_5 
REMARK    1  A    between atoms: N1_5  and  C4_6 
REMARK    2  A    between atoms: C4_6  and  C6_8 
REMARK    3  A    between atoms: C9_14  and  N4_15 
REMARK    4  A    between atoms: N4_15  and  C10_16 
REMARK    5  A    between atoms: C11_17  and  C12_18 
REMARK    6  A    between atoms: C13_19  and  C14_20 
ROOT
HETATM    1  C1  UNL     1      29.947  -0.670  53.628  1.00  0.00     0.022 C 
HETATM    2  C2  UNL     1      28.944  -0.024  53.644  1.00  0.00    -0.016 C 
HETATM    3  C3  UNL     1      27.729   0.769  53.646  1.00  0.00     0.299 C 
HETATM    4  O1  UNL     1      27.647   1.956  54.127  1.00  0.00    -0.258 OA
HETATM    5  N1  UNL     1      26.483   0.430  53.155  1.00  0.00    -0.320 N 
HETATM    6  H2  UNL     1      26.577  -0.448  52.630  1.00  0.00     0.169 HD
ENDROOT
BRANCH   5   7
HETATM    7  C4  UNL     1      25.188   0.893  52.988  1.00  0.00     0.016 C 
HETATM    8  C5  UNL     1      24.595  -0.149  53.669  1.00  0.00     0.063 C 
BRANCH   7   9
HETATM    9  C6  UNL     1      24.727   2.097  52.336  1.00  0.00     0.068 C 
HETATM   10  C7  UNL     1      23.748   2.200  51.441  1.00  0.00     0.148 A 
HETATM   11  O2  UNL     1      22.969   1.082  50.974  1.00  0.00    -0.208 OA
HETATM   12  C9  UNL     1      23.509   3.580  50.952  1.00  0.00     0.161 A 
HETATM   13  N2  UNL     1      22.034   1.446  50.068  1.00  0.00    -0.121 NA
HETATM   14  C8  UNL     1      21.803   2.604  49.635  1.00  0.00     0.265 A 
HETATM   15  N3  UNL     1      22.545   3.798  50.059  1.00  0.00    -0.220 NA
BRANCH  12  16
HETATM   16  N4  UNL     1      24.317   4.789  51.368  1.00  0.00    -0.371 N 
HETATM   17  H7  UNL     1      23.675   4.948  52.151  1.00  0.00     0.161 HD
BRANCH  16  18
HETATM   18  C10 UNL     1      25.401   4.868  50.332  1.00  0.00     0.072 C 
HETATM   19  C11 UNL     1      26.143   5.404  49.327  1.00  0.00     0.092 C 
BRANCH  19  20
HETATM   20  C12 UNL     1      27.117   4.316  49.088  1.00  0.00    -0.018 C 
HETATM   21  C13 UNL     1      28.054   4.978  48.415  1.00  0.00     0.014 C 
BRANCH  21  22
HETATM   22  C14 UNL     1      27.830   6.391  48.178  1.00  0.00     0.001 C 
HETATM   23  C15 UNL     1      28.919   7.135  48.161  1.00  0.00     0.032 C 
HETATM   24 BR1  UNL     1      26.540   7.731  47.859  1.00  0.00    -0.052 Br
ENDBRANCH  21  22
ENDBRANCH  19  20
ENDBRANCH  16  18
ENDBRANCH  12  16
ENDBRANCH   7   9
ENDBRANCH   5   7
TORSDOF 6
ENDMDL
MODEL 3
REMARK VINA RESULT:      -6.5      3.170      4.817
REMARK  6 active torsions:
REMARK  status: ('A' for Active; 'I' for Inactive)
REMARK       I    between atoms: C3_3  and  N1_5 
REMARK    1  A    between atoms: N1_5  and  C4_6 
REMARK    2  A    between atoms: C4_6  and  C6_8 
REMARK    3  A    between atoms: C9_14  and  N4_15 
REMARK    4  A    between atoms: N4_15  and  C10_16 
REMARK    5  A    between atoms: C11_17  and  C12_18 
REMARK    6  A    between atoms: C13_19  and  C14_20 
ROOT
HETATM    1  C1  UNL     1      30.139  -0.750  53.795  1.00  0.00     0.022 C 
HETATM    2  C2  UNL     1      29.024  -0.377  54.000  1.00  0.00    -0.016 C 
HETATM    3  C3  UNL     1      27.667   0.082  54.228  1.00  0.00     0.299 C 
HETATM    4  O1  UNL     1      27.364   1.279  54.582  1.00  0.00    -0.258 OA
HETATM    5  N1  UNL     1      26.491  -0.631  54.117  1.00  0.00    -0.320 N 
HETATM    6  H2  UNL     1      26.708  -1.537  53.684  1.00  0.00     0.169 HD
ENDROOT
BRANCH   5   7
HETATM    7  C4  UNL     1      25.113  -0.535  54.241  1.00  0.00     0.016 C 
HETATM    8  C5  UNL     1      25.065  -1.078  55.507  1.00  0.00     0.063 C 
BRANCH   7   9
HETATM    9  C6  UNL     1      24.149   0.003  53.310  1.00  0.00     0.068 C 
HETATM   10  C7  UNL     1      22.823  -0.067  53.396  1.00  0.00     0.148 A 
HETATM   11  O2  UNL     1      22.125  -0.713  54.479  1.00  0.00    -0.208 OA
HETATM   12  C9  UNL     1      22.101   0.587  52.278  1.00  0.00     0.161 A 
HETATM   13  N2  UNL     1      20.783  -0.647  54.340  1.00  0.00    -0.121 NA
HETATM   14  C8  UNL     1      20.138  -0.100  53.408  1.00  0.00     0.265 A 
HETATM   15  N3  UNL     1      20.770   0.583  52.270  1.00  0.00    -0.220 NA
BRANCH  12  16
HETATM   16  N4  UNL     1      22.771   1.244  51.092  1.00  0.00    -0.371 N 
HETATM   17  H7  UNL     1      22.950   0.322  50.682  1.00  0.00     0.161 HD
BRANCH  16  18
HETATM   18  C10 UNL     1      22.704   2.710  51.411  1.00  0.00     0.072 C 
HETATM   19  C11 UNL     1      23.162   3.970  51.635  1.00  0.00     0.092 C 
BRANCH  19  20
HETATM   20  C12 UNL     1      21.897   4.681  51.923  1.00  0.00    -0.018 C 
HETATM   21  C13 UNL     1      22.130   5.839  51.311  1.00  0.00     0.014 C 
BRANCH  21  22
HETATM   22  C14 UNL     1      23.404   5.991  50.636  1.00  0.00     0.001 C 
HETATM   23  C15 UNL     1      24.241   6.837  51.204  1.00  0.00     0.032 C 
HETATM   24 BR1  UNL     1      24.461   5.453  49.168  1.00  0.00    -0.052 Br
ENDBRANCH  21  22
ENDBRANCH  19  20
ENDBRANCH  16  18
ENDBRANCH  12  16
ENDBRANCH   7   9
ENDBRANCH   5   7
TORSDOF 6
ENDMDL
MODEL 4
REMARK VINA RESULT:      -6.5      6.414      8.407
REMARK  6 active torsions:
REMARK  status: ('A' for Active; 'I' for Inactive)
REMARK       I    between atoms: C3_3  and  N1_5 
REMARK    1  A    between atoms: N1_5  and  C4_6 
REMARK    2  A    between atoms: C4_6  and  C6_8 
REMARK    3  A    between atoms: C9_14  and  N4_15 
REMARK    4  A    between atoms: N4_15  and  C10_16 
REMARK    5  A    between atoms: C11_17  and  C12_18 
REMARK    6  A    between atoms: C13_19  and  C14_20 
ROOT
HETATM    1  C1  UNL     1      34.086   4.960  47.549  1.00  0.00     0.022 C 
HETATM    2  C2  UNL     1      32.989   5.163  47.972  1.00  0.00    -0.016 C 
HETATM    3  C3  UNL     1      31.659   5.430  48.486  1.00  0.00     0.299 C 
HETATM    4  O1  UNL     1      31.374   5.504  49.736  1.00  0.00    -0.258 OA
HETATM    5  N1  UNL     1      30.494   5.649  47.778  1.00  0.00    -0.320 N 
HETATM    6  H2  UNL     1      30.740   5.749  46.785  1.00  0.00     0.169 HD
ENDROOT
BRANCH   5   7
HETATM    7  C4  UNL     1      29.142   5.920  47.914  1.00  0.00     0.016 C 
HETATM    8  C5  UNL     1      29.200   7.152  47.298  1.00  0.00     0.063 C 
BRANCH   7   9
HETATM    9  C6  UNL     1      28.101   5.102  48.489  1.00  0.00     0.068 C 
HETATM   10  C7  UNL     1      27.022   5.519  49.147  1.00  0.00     0.148 A 
HETATM   11  O2  UNL     1      26.718   6.907  49.386  1.00  0.00    -0.208 OA
HETATM   12  C9  UNL     1      26.133   4.429  49.619  1.00  0.00     0.161 A 
HETATM   13  N2  UNL     1      25.565   7.072  50.072  1.00  0.00    -0.121 NA
HETATM   14  C8  UNL     1      24.787   6.173  50.485  1.00  0.00     0.265 A 
HETATM   15  N3  UNL     1      25.019   4.737  50.281  1.00  0.00    -0.220 NA
BRANCH  12  16
HETATM   16  N4  UNL     1      26.414   2.954  49.439  1.00  0.00    -0.371 N 
HETATM   17  H7  UNL     1      26.430   3.082  48.422  1.00  0.00     0.161 HD
BRANCH  16  18
HETATM   18  C10 UNL     1      26.425   2.419  50.843  1.00  0.00     0.072 C 
HETATM   19  C11 UNL     1      26.607   1.517  51.842  1.00  0.00     0.092 C 
BRANCH  19  20
HETATM   20  C12 UNL     1      26.188   2.313  53.017  1.00  0.00    -0.018 C 
HETATM   21  C13 UNL     1      26.479   1.462  53.998  1.00  0.00     0.014 C 
BRANCH  21  22
HETATM   22  C14 UNL     1      27.055   0.185  53.622  1.00  0.00     0.001 C 
HETATM   23  C15 UNL     1      28.269  -0.039  54.085  1.00  0.00     0.032 C 
HETATM   24 BR1  UNL     1      26.788  -1.425  52.674  1.00  0.00    -0.052 Br
ENDBRANCH  21  22
ENDBRANCH  19  20
ENDBRANCH  16  18
ENDBRANCH  12  16
ENDBRANCH   7   9
ENDBRANCH   5   7
TORSDOF 6
ENDMDL
MODEL 5
REMARK VINA RESULT:      -6.2      2.535      3.184
REMARK  6 active torsions:
REMARK  status: ('A' for Active; 'I' for Inactive)
REMARK       I    between atoms: C3_3  and  N1_5 
REMARK    1  A    between atoms: N1_5  and  C4_6 
REMARK    2  A    between atoms: C4_6  and  C6_8 
REMARK    3  A    between atoms: C9_14  and  N4_15 
REMARK    4  A    between atoms: N4_15  and  C10_16 
REMARK    5  A    between atoms: C11_17  and  C12_18 
REMARK    6  A    between atoms: C13_19  and  C14_20 
ROOT
HETATM    1  C1  UNL     1      29.532  -1.030  53.638  1.00  0.00     0.022 C 
HETATM    2  C2  UNL     1      28.692  -0.190  53.519  1.00  0.00    -0.016 C 
HETATM    3  C3  UNL     1      27.686   0.843  53.367  1.00  0.00     0.299 C 
HETATM    4  O1  UNL     1      27.426   1.730  54.259  1.00  0.00    -0.258 OA
HETATM    5  N1  UNL     1      26.851   1.075  52.292  1.00  0.00    -0.320 N 
HETATM    6  H2  UNL     1      27.158   0.475  51.516  1.00  0.00     0.169 HD
ENDROOT
BRANCH   5   7
HETATM    7  C4  UNL     1      25.845   1.904  51.820  1.00  0.00     0.016 C 
HETATM    8  C5  UNL     1      26.662   2.614  50.966  1.00  0.00     0.063 C 
BRANCH   7   9
HETATM    9  C6  UNL     1      24.440   1.912  52.151  1.00  0.00     0.068 C 
HETATM   10  C7  UNL     1      23.779   1.010  52.873  1.00  0.00     0.148 A 
HETATM   11  O2  UNL     1      24.396  -0.152  53.460  1.00  0.00    -0.208 OA
HETATM   12  C9  UNL     1      22.334   1.297  53.038  1.00  0.00     0.161 A 
HETATM   13  N2  UNL     1      23.516  -0.912  54.149  1.00  0.00    -0.121 NA
HETATM   14  C8  UNL     1      22.287  -0.698  54.311  1.00  0.00     0.265 A 
HETATM   15  N3  UNL     1      21.580   0.462  53.751  1.00  0.00    -0.220 NA
BRANCH  12  16
HETATM   16  N4  UNL     1      21.616   2.473  52.414  1.00  0.00    -0.371 N 
HETATM   17  H7  UNL     1      21.643   2.966  53.312  1.00  0.00     0.161 HD
BRANCH  16  18
HETATM   18  C10 UNL     1      21.379   2.036  50.997  1.00  0.00     0.072 C 
HETATM   19  C11 UNL     1      20.790   2.006  49.773  1.00  0.00     0.092 C 
BRANCH  19  20
HETATM   20  C12 UNL     1      21.590   0.956  49.103  1.00  0.00    -0.018 C 
HETATM   21  C13 UNL     1      22.006   1.622  48.029  1.00  0.00     0.014 C 
BRANCH  21  22
HETATM   22  C14 UNL     1      21.588   3.005  47.899  1.00  0.00     0.001 C 
HETATM   23  C15 UNL     1      22.565   3.890  47.933  1.00  0.00     0.032 C 
HETATM   24 BR1  UNL     1      20.122   4.174  47.687  1.00  0.00    -0.052 Br
ENDBRANCH  21  22
ENDBRANCH  19  20
ENDBRANCH  16  18
ENDBRANCH  12  16
ENDBRANCH   7   9
ENDBRANCH   5   7
TORSDOF 6
ENDMDL
MODEL 6
REMARK VINA RESULT:      -6.2      2.497      6.460
REMARK  6 active torsions:
REMARK  status: ('A' for Active; 'I' for Inactive)
REMARK       I    between atoms: C3_3  and  N1_5 
REMARK    1  A    between atoms: N1_5  and  C4_6 
REMARK    2  A    between atoms: C4_6  and  C6_8 
REMARK    3  A    between atoms: C9_14  and  N4_15 
REMARK    4  A    between atoms: N4_15  and  C10_16 
REMARK    5  A    between atoms: C11_17  and  C12_18 
REMARK    6  A    between atoms: C13_19  and  C14_20 
ROOT
HETATM    1  C1  UNL     1      18.108   0.305  51.535  1.00  0.00     0.022 C 
HETATM    2  C2  UNL     1      19.282   0.202  51.723  1.00  0.00    -0.016 C 
HETATM    3  C3  UNL     1      20.711   0.097  51.952  1.00  0.00     0.299 C 
HETATM    4  O1  UNL     1      21.589   0.093  51.016  1.00  0.00    -0.258 OA
HETATM    5  N1  UNL     1      21.380  -0.012  53.154  1.00  0.00    -0.320 N 
HETATM    6  H2  UNL     1      20.704   0.149  53.910  1.00  0.00     0.169 HD
ENDROOT
BRANCH   5   7
HETATM    7  C4  UNL     1      22.640  -0.120  53.722  1.00  0.00     0.016 C 
HETATM    8  C5  UNL     1      22.324  -1.200  54.518  1.00  0.00     0.063 C 
BRANCH   7   9
HETATM    9  C6  UNL     1      23.826   0.663  53.467  1.00  0.00     0.068 C 
HETATM   10  C7  UNL     1      25.064   0.211  53.286  1.00  0.00     0.148 A 
HETATM   11  O2  UNL     1      25.417  -1.186  53.315  1.00  0.00    -0.208 OA
HETATM   12  C9  UNL     1      26.073   1.270  53.042  1.00  0.00     0.161 A 
HETATM   13  N2  UNL     1      26.736  -1.389  53.101  1.00  0.00    -0.121 NA
HETATM   14  C8  UNL     1      27.618  -0.517  52.888  1.00  0.00     0.265 A 
HETATM   15  N3  UNL     1      27.344   0.926  52.839  1.00  0.00    -0.220 NA
BRANCH  12  16
HETATM   16  N4  UNL     1      25.778   2.753  53.041  1.00  0.00    -0.371 N 
HETATM   17  H7  UNL     1      25.961   2.789  54.049  1.00  0.00     0.161 HD
BRANCH  16  18
HETATM   18  C10 UNL     1      25.415   3.044  51.614  1.00  0.00     0.072 C 
HETATM   19  C11 UNL     1      24.762   2.908  50.430  1.00  0.00     0.092 C 
BRANCH  19  20
HETATM   20  C12 UNL     1      25.413   3.968  49.628  1.00  0.00    -0.018 C 
HETATM   21  C13 UNL     1      24.365   4.432  48.951  1.00  0.00     0.014 C 
BRANCH  21  22
HETATM   22  C14 UNL     1      23.079   3.814  49.209  1.00  0.00     0.001 C 
HETATM   23  C15 UNL     1      22.625   3.041  48.242  1.00  0.00     0.032 C 
HETATM   24 BR1  UNL     1      21.659   3.630  50.439  1.00  0.00    -0.052 Br
ENDBRANCH  21  22
ENDBRANCH  19  20
ENDBRANCH  16  18
ENDBRANCH  12  16
ENDBRANCH   7   9
ENDBRANCH   5   7
TORSDOF 6
ENDMDL
MODEL 7
REMARK VINA RESULT:      -6.1      3.755      7.590
REMARK  6 active torsions:
REMARK  status: ('A' for Active; 'I' for Inactive)
REMARK       I    between atoms: C3_3  and  N1_5 
REMARK    1  A    between atoms: N1_5  and  C4_6 
REMARK    2  A    between atoms: C4_6  and  C6_8 
REMARK    3  A    between atoms: C9_14  and  N4_15 
REMARK    4  A    between atoms: N4_15  and  C10_16 
REMARK    5  A    between atoms: C11_17  and  C12_18 
REMARK    6  A    between atoms: C13_19  and  C14_20 
ROOT
HETATM    1  C1  UNL     1      20.153  -0.777  53.688  1.00  0.00     0.022 C 
HETATM    2  C2  UNL     1      20.508   0.075  52.931  1.00  0.00    -0.016 C 
HETATM    3  C3  UNL     1      20.957   1.113  52.022  1.00  0.00     0.299 C 
HETATM    4  O1  UNL     1      20.710   2.363  52.182  1.00  0.00    -0.258 OA
HETATM    5  N1  UNL     1      21.701   0.978  50.867  1.00  0.00    -0.320 N 
HETATM    6  H2  UNL     1      22.036   0.008  50.817  1.00  0.00     0.169 HD
ENDROOT
BRANCH   5   7
HETATM    7  C4  UNL     1      22.279   1.685  49.825  1.00  0.00     0.016 C 
HETATM    8  C5  UNL     1      21.319   1.344  48.897  1.00  0.00     0.063 C 
BRANCH   7   9
HETATM    9  C6  UNL     1      23.469   2.504  49.828  1.00  0.00     0.068 C 
HETATM   10  C7  UNL     1      23.557   3.791  50.156  1.00  0.00     0.148 A 
HETATM   11  O2  UNL     1      22.434   4.588  50.579  1.00  0.00    -0.208 OA
HETATM   12  C9  UNL     1      24.926   4.355  50.058  1.00  0.00     0.161 A 
HETATM   13  N2  UNL     1      22.782   5.863  50.860  1.00  0.00    -0.121 NA
HETATM   14  C8  UNL     1      23.930   6.373  50.790  1.00  0.00     0.265 A 
HETATM   15  N3  UNL     1      25.128   5.633  50.372  1.00  0.00    -0.220 NA
BRANCH  12  16
HETATM   16  N4  UNL     1      26.138   3.587  49.581  1.00  0.00    -0.371 N 
HETATM   17  H7  UNL     1      26.043   4.013  48.654  1.00  0.00     0.161 HD
BRANCH  16  18
HETATM   18  C10 UNL     1      26.539   2.773  50.778  1.00  0.00     0.072 C 
HETATM   19  C11 UNL     1      26.503   1.749  51.671  1.00  0.00     0.092 C 
BRANCH  19  20
HETATM   20  C12 UNL     1      27.600   2.138  52.586  1.00  0.00    -0.018 C 
HETATM   21  C13 UNL     1      27.501   1.174  53.499  1.00  0.00     0.014 C 
BRANCH  21  22
HETATM   22  C14 UNL     1      26.471   0.174  53.302  1.00  0.00     0.001 C 
HETATM   23  C15 UNL     1      26.908  -1.022  52.960  1.00  0.00     0.032 C 
HETATM   24 BR1  UNL     1      24.616  -0.176  53.326  1.00  0.00    -0.052 Br
ENDBRANCH  21  22
ENDBRANCH  19  20
ENDBRANCH  16  18
ENDBRANCH  12  16
ENDBRANCH   7   9
ENDBRANCH   5   7
TORSDOF 6
ENDMDL
MODEL 8
REMARK VINA RESULT:      -6.0      5.899      8.426
REMARK  6 active torsions:
REMARK  status: ('A' for Active; 'I' for Inactive)
REMARK       I    between atoms: C3_3  and  N1_5 
REMARK    1  A    between atoms: N1_5  and  C4_6 
REMARK    2  A    between atoms: C4_6  and  C6_8 
REMARK    3  A    between atoms: C9_14  and  N4_15 
REMARK    4  A    between atoms: N4_15  and  C10_16 
REMARK    5  A    between atoms: C11_17  and  C12_18 
REMARK    6  A    between atoms: C13_19  and  C14_20 
ROOT
HETATM    1  C1  UNL     1      31.036   8.049  45.401  1.00  0.00     0.022 C 
HETATM    2  C2  UNL     1      30.295   7.826  46.309  1.00  0.00    -0.016 C 
HETATM    3  C3  UNL     1      29.387   7.574  47.413  1.00  0.00     0.299 C 
HETATM    4  O1  UNL     1      29.713   7.686  48.650  1.00  0.00    -0.258 OA
HETATM    5  N1  UNL     1      28.063   7.188  47.363  1.00  0.00    -0.320 N 
HETATM    6  H2  UNL     1      27.751   7.250  46.386  1.00  0.00     0.169 HD
ENDROOT
BRANCH   5   7
HETATM    7  C4  UNL     1      26.961   6.881  48.147  1.00  0.00     0.016 C 
HETATM    8  C5  UNL     1      26.259   8.022  47.824  1.00  0.00     0.063 C 
BRANCH   7   9
HETATM    9  C6  UNL     1      26.717   5.712  48.959  1.00  0.00     0.068 C 
HETATM   10  C7  UNL     1      25.557   5.087  49.139  1.00  0.00     0.148 A 
HETATM   11  O2  UNL     1      24.322   5.498  48.519  1.00  0.00    -0.208 OA
HETATM   12  C9  UNL     1      25.629   3.908  50.036  1.00  0.00     0.161 A 
HETATM   13  N2  UNL     1      23.285   4.699  48.855  1.00  0.00    -0.121 NA
HETATM   14  C8  UNL     1      23.311   3.693  49.610  1.00  0.00     0.265 A 
HETATM   15  N3  UNL     1      24.524   3.204  50.278  1.00  0.00    -0.220 NA
BRANCH  12  16
HETATM   16  N4  UNL     1      26.880   3.449  50.751  1.00  0.00    -0.371 N 
HETATM   17  H7  UNL     1      27.377   4.279  50.412  1.00  0.00     0.161 HD
BRANCH  16  18
HETATM   18  C10 UNL     1      26.476   2.144  51.375  1.00  0.00     0.072 C 
HETATM   19  C11 UNL     1      26.597   0.850  51.769  1.00  0.00     0.092 C 
BRANCH  19  20
HETATM   20  C12 UNL     1      25.277   0.626  52.401  1.00  0.00    -0.018 C 
HETATM   21  C13 UNL     1      25.552  -0.434  53.158  1.00  0.00     0.014 C 
BRANCH  21  22
HETATM   22  C14 UNL     1      26.907  -0.947  53.118  1.00  0.00     0.001 C 
HETATM   23  C15 UNL     1      27.047  -2.114  52.520  1.00  0.00     0.032 C 
HETATM   24 BR1  UNL     1      28.705  -0.634  53.599  1.00  0.00    -0.052 Br
ENDBRANCH  21  22
ENDBRANCH  19  20
ENDBRANCH  16  18
ENDBRANCH  12  16
ENDBRANCH   7   9
ENDBRANCH   5   7
TORSDOF 6
ENDMDL
MODEL 9
REMARK VINA RESULT:      -6.0      3.458      5.804
REMARK  6 active torsions:
REMARK  status: ('A' for Active; 'I' for Inactive)
REMARK       I    between atoms: C3_3  and  N1_5 
REMARK    1  A    between atoms: N1_5  and  C4_6 
REMARK    2  A    between atoms: C4_6  and  C6_8 
REMARK    3  A    between atoms: C9_14  and  N4_15 
REMARK    4  A    between atoms: N4_15  and  C10_16 
REMARK    5  A    between atoms: C11_17  and  C12_18 
REMARK    6  A    between atoms: C13_19  and  C14_20 
ROOT
HETATM    1  C1  UNL     1      27.135  -1.876  52.565  1.00  0.00     0.022 C 
HETATM    2  C2  UNL     1      26.225  -1.196  52.930  1.00  0.00    -0.016 C 
HETATM    3  C3  UNL     1      25.116  -0.362  53.354  1.00  0.00     0.299 C 
HETATM    4  O1  UNL     1      25.244   0.848  53.763  1.00  0.00    -0.258 OA
HETATM    5  N1  UNL     1      23.774  -0.679  53.399  1.00  0.00    -0.320 N 
HETATM    6  H2  UNL     1      23.644  -1.582  52.928  1.00  0.00     0.169 HD
ENDROOT
BRANCH   5   7
HETATM    7  C4  UNL     1      22.521  -0.179  53.718  1.00  0.00     0.016 C 
HETATM    8  C5  UNL     1      22.226  -1.162  54.639  1.00  0.00     0.063 C 
BRANCH   7   9
HETATM    9  C6  UNL     1      21.857   1.004  53.221  1.00  0.00     0.068 C 
HETATM   10  C7  UNL     1      20.714   1.058  52.543  1.00  0.00     0.148 A 
HETATM   11  O2  UNL     1      19.933  -0.102  52.196  1.00  0.00    -0.208 OA
HETATM   12  C9  UNL     1      20.288   2.429  52.169  1.00  0.00     0.161 A 
HETATM   13  N2  UNL     1      18.812   0.215  51.510  1.00  0.00    -0.121 NA
HETATM   14  C8  UNL     1      18.421   1.364  51.179  1.00  0.00     0.265 A 
HETATM   15  N3  UNL     1      19.152   2.599  51.496  1.00  0.00    -0.220 NA
BRANCH  12  16
HETATM   16  N4  UNL     1      21.080   3.683  52.464  1.00  0.00    -0.371 N 
HETATM   17  H7  UNL     1      20.585   3.786  53.356  1.00  0.00     0.161 HD
BRANCH  16  18
HETATM   18  C10 UNL     1      21.948   3.852  51.251  1.00  0.00     0.072 C 
HETATM   19  C11 UNL     1      23.091   3.869  50.515  1.00  0.00     0.092 C 
BRANCH  19  20
HETATM   20  C12 UNL     1      22.565   4.268  49.191  1.00  0.00    -0.018 C 
HETATM   21  C13 UNL     1      23.694   4.623  48.583  1.00  0.00     0.014 C 
BRANCH  21  22
HETATM   22  C14 UNL     1      24.925   4.503  49.341  1.00  0.00     0.001 C 
HETATM   23  C15 UNL     1      25.456   5.644  49.732  1.00  0.00     0.032 C 
HETATM   24 BR1  UNL     1      26.196   3.311  50.065  1.00  0.00    -0.052 Br
ENDBRANCH  21  22
ENDBRANCH  19  20
ENDBRANCH  16  18
ENDBRANCH  12  16
ENDBRANCH   7   9
ENDBRANCH   5   7
TORSDOF 6
ENDMDL
