MODEL 1
REMARK VINA RESULT:      -7.4      0.000      0.000
REMARK  11 active torsions:
REMARK  status: ('A' for Active; 'I' for Inactive)
REMARK    1  A    between atoms: C2_2  and  S1_3 
REMARK    2  A    between atoms: S1_3  and  C3_4 
REMARK    3  A    between atoms: C3_4  and  N1_5 
REMARK    4  A    between atoms: C3_4  and  C4_6 
REMARK    5  A    between atoms: C4_6  and  C5_8 
REMARK    6  A    between atoms: C6_9  and  C7_10 
REMARK    7  A    between atoms: C7_10  and  C8_11 
REMARK    8  A    between atoms: N2_13  and  C10_14 
REMARK    9  A    between atoms: C10_14  and  C11_15 
REMARK   10  A    between atoms: C11_15  and  O2_16 
REMARK   11  A    between atoms: C12_18  and  C13_19 
ROOT
HETATM    1  C8  UNL     1      26.080   0.747  52.580  1.00  0.00    -0.006 A 
HETATM    2  C9  UNL     1      27.452   0.494  52.726  1.00  0.00     0.122 A 
HETATM    3  N2  UNL     1      27.675  -0.567  53.542  1.00  0.00    -0.278 N 
HETATM    4  N3  UNL     1      26.502  -0.998  53.918  1.00  0.00    -0.172 NA
HETATM    5  C12 UNL     1      25.520  -0.230  53.359  1.00  0.00     0.095 A 
ENDROOT
BRANCH   1   6
HETATM    6  C7  UNL     1      25.562   1.844  51.738  1.00  0.00     0.070 C 
BRANCH   6   7
HETATM    7  C6  UNL     1      26.594   2.352  50.809  1.00  0.00    -0.018 C 
HETATM    8  C5  UNL     1      26.326   3.519  50.223  1.00  0.00     0.049 C 
BRANCH   8   9
HETATM    9  C4  UNL     1      26.937   4.431  49.284  1.00  0.00     0.181 C 
HETATM   10  O1  UNL     1      27.953   4.537  48.553  1.00  0.00    -0.290 OA
BRANCH   9  11
HETATM   11  C3  UNL     1      26.783   5.741  48.613  1.00  0.00     0.211 C 
BRANCH  11  12
HETATM   12  S1  UNL     1      25.144   6.467  48.861  1.00  0.00    -0.137 SA
BRANCH  12  13
HETATM   13  C2  UNL     1      24.964   7.147  50.529  1.00  0.00     0.072 C 
HETATM   14  C1  UNL     1      23.967   6.333  51.330  1.00  0.00     0.016 C 
ENDBRANCH  12  13
ENDBRANCH  11  12
BRANCH  11  15
HETATM   15  N1  UNL     1      27.744   6.698  49.063  1.00  0.00    -0.412 N 
HETATM   16  H7  UNL     1      28.471   6.337  49.686  1.00  0.00     0.151 HD
HETATM   17  H8  UNL     1      27.415   7.654  49.213  1.00  0.00     0.151 HD
ENDBRANCH  11  15
ENDBRANCH   9  11
ENDBRANCH   8   9
ENDBRANCH   6   7
ENDBRANCH   1   6
BRANCH   5  18
HETATM   18  C13 UNL     1      24.105  -0.437  53.596  1.00  0.00    -0.002 A 
HETATM   19  C14 UNL     1      23.848  -1.058  54.829  1.00  0.00     0.033 A 
HETATM   20  C15 UNL     1      22.578  -1.362  55.266  1.00  0.00     0.117 A 
HETATM   21  N4  UNL     1      21.511  -1.067  54.503  1.00  0.00    -0.273 NA
HETATM   22  C16 UNL     1      21.721  -0.464  53.298  1.00  0.00     0.117 A 
HETATM   23  C17 UNL     1      22.986  -0.157  52.853  1.00  0.00     0.033 A 
ENDBRANCH   5  18
BRANCH   3  24
HETATM   24  C10 UNL     1      29.026  -1.046  53.858  1.00  0.00     0.176 C 
BRANCH  24  25
HETATM   25  C11 UNL     1      29.351  -2.275  53.038  1.00  0.00     0.185 C 
BRANCH  25  26
HETATM   26  O2  UNL     1      28.546  -3.351  53.450  1.00  0.00    -0.399 OA
HETATM   27  H18 UNL     1      27.773  -3.403  52.808  1.00  0.00     0.209 HD
ENDBRANCH  25  26
ENDBRANCH  24  25
ENDBRANCH   3  24
TORSDOF 11
ENDMDL
MODEL 2
REMARK VINA RESULT:      -7.0      2.348      4.502
REMARK  11 active torsions:
REMARK  status: ('A' for Active; 'I' for Inactive)
REMARK    1  A    between atoms: C2_2  and  S1_3 
REMARK    2  A    between atoms: S1_3  and  C3_4 
REMARK    3  A    between atoms: C3_4  and  N1_5 
REMARK    4  A    between atoms: C3_4  and  C4_6 
REMARK    5  A    between atoms: C4_6  and  C5_8 
REMARK    6  A    between atoms: C6_9  and  C7_10 
REMARK    7  A    between atoms: C7_10  and  C8_11 
REMARK    8  A    between atoms: N2_13  and  C10_14 
REMARK    9  A    between atoms: C10_14  and  C11_15 
REMARK   10  A    between atoms: C11_15  and  O2_16 
REMARK   11  A    between atoms: C12_18  and  C13_19 
ROOT
HETATM    1  C8  UNL     1      25.019   0.897  52.444  1.00  0.00    -0.006 A 
HETATM    2  C9  UNL     1      23.644   0.836  52.709  1.00  0.00     0.122 A 
HETATM    3  N2  UNL     1      23.364  -0.088  53.663  1.00  0.00    -0.278 N 
HETATM    4  N3  UNL     1      24.505  -0.615  54.013  1.00  0.00    -0.172 NA
HETATM    5  C12 UNL     1      25.522  -0.046  53.301  1.00  0.00     0.095 A 
ENDROOT
BRANCH   1   6
HETATM    6  C7  UNL     1      25.595   1.827  51.452  1.00  0.00     0.070 C 
BRANCH   6   7
HETATM    7  C6  UNL     1      24.724   3.003  51.238  1.00  0.00    -0.018 C 
HETATM    8  C5  UNL     1      25.288   4.041  50.620  1.00  0.00     0.049 C 
BRANCH   8   9
HETATM    9  C4  UNL     1      24.932   5.368  50.177  1.00  0.00     0.181 C 
HETATM   10  O1  UNL     1      24.953   6.088  49.148  1.00  0.00    -0.290 OA
BRANCH   9  11
HETATM   11  C3  UNL     1      24.350   6.659  50.608  1.00  0.00     0.211 C 
BRANCH  11  12
HETATM   12  S1  UNL     1      22.590   6.802  50.213  1.00  0.00    -0.137 SA
BRANCH  12  13
HETATM   13  C2  UNL     1      21.767   5.190  50.255  1.00  0.00     0.072 C 
HETATM   14  C1  UNL     1      21.527   4.753  51.686  1.00  0.00     0.016 C 
ENDBRANCH  12  13
ENDBRANCH  11  12
BRANCH  11  15
HETATM   15  N1  UNL     1      24.489   6.875  52.015  1.00  0.00    -0.412 N 
HETATM   16  H7  UNL     1      24.731   7.829  52.294  1.00  0.00     0.151 HD
HETATM   17  H8  UNL     1      24.862   6.103  52.570  1.00  0.00     0.151 HD
ENDBRANCH  11  15
ENDBRANCH   9  11
ENDBRANCH   8   9
ENDBRANCH   6   7
ENDBRANCH   1   6
BRANCH   5  18
HETATM   18  C13 UNL     1      26.913  -0.427  53.442  1.00  0.00    -0.002 A 
HETATM   19  C14 UNL     1      27.629   0.443  54.281  1.00  0.00     0.033 A 
HETATM   20  C15 UNL     1      28.969   0.285  54.557  1.00  0.00     0.117 A 
HETATM   21  N4  UNL     1      29.656  -0.736  54.016  1.00  0.00    -0.273 NA
HETATM   22  C16 UNL     1      28.995  -1.602  53.196  1.00  0.00     0.117 A 
HETATM   23  C17 UNL     1      27.657  -1.453  52.914  1.00  0.00     0.033 A 
ENDBRANCH   5  18
BRANCH   3  24
HETATM   24  C10 UNL     1      21.996  -0.348  54.129  1.00  0.00     0.176 C 
BRANCH  24  25
HETATM   25  C11 UNL     1      21.882  -1.763  54.652  1.00  0.00     0.185 C 
BRANCH  25  26
HETATM   26  O2  UNL     1      22.717  -1.926  55.771  1.00  0.00    -0.399 OA
HETATM   27  H18 UNL     1      22.862  -1.012  56.166  1.00  0.00     0.209 HD
ENDBRANCH  25  26
ENDBRANCH  24  25
ENDBRANCH   3  24
TORSDOF 11
ENDMDL
MODEL 3
REMARK VINA RESULT:      -7.0      2.613      3.037
REMARK  11 active torsions:
REMARK  status: ('A' for Active; 'I' for Inactive)
REMARK    1  A    between atoms: C2_2  and  S1_3 
REMARK    2  A    between atoms: S1_3  and  C3_4 
REMARK    3  A    between atoms: C3_4  and  N1_5 
REMARK    4  A    between atoms: C3_4  and  C4_6 
REMARK    5  A    between atoms: C4_6  and  C5_8 
REMARK    6  A    between atoms: C6_9  and  C7_10 
REMARK    7  A    between atoms: C7_10  and  C8_11 
REMARK    8  A    between atoms: N2_13  and  C10_14 
REMARK    9  A    between atoms: C10_14  and  C11_15 
REMARK   10  A    between atoms: C11_15  and  O2_16 
REMARK   11  A    between atoms: C12_18  and  C13_19 
ROOT
HETATM    1  C8  UNL     1      25.322   1.252  53.474  1.00  0.00    -0.006 A 
HETATM    2  C9  UNL     1      26.663   0.847  53.409  1.00  0.00     0.122 A 
HETATM    3  N2  UNL     1      26.767  -0.491  53.206  1.00  0.00    -0.278 N 
HETATM    4  N3  UNL     1      25.548  -0.951  53.140  1.00  0.00    -0.172 NA
HETATM    5  C12 UNL     1      24.654   0.069  53.297  1.00  0.00     0.095 A 
ENDROOT
BRANCH   1   6
HETATM    6  C7  UNL     1      24.928   2.660  53.680  1.00  0.00     0.070 C 
BRANCH   6   7
HETATM    7  C6  UNL     1      24.354   3.250  52.450  1.00  0.00    -0.018 C 
HETATM    8  C5  UNL     1      23.506   4.262  52.632  1.00  0.00     0.049 C 
BRANCH   8   9
HETATM    9  C4  UNL     1      22.698   5.160  51.840  1.00  0.00     0.181 C 
HETATM   10  O1  UNL     1      21.497   5.391  51.556  1.00  0.00    -0.290 OA
BRANCH   9  11
HETATM   11  C3  UNL     1      22.745   6.311  50.913  1.00  0.00     0.211 C 
BRANCH  11  12
HETATM   12  S1  UNL     1      22.618   5.820  49.176  1.00  0.00    -0.137 SA
BRANCH  12  13
HETATM   13  C2  UNL     1      23.786   4.496  48.774  1.00  0.00     0.072 C 
HETATM   14  C1  UNL     1      23.088   3.151  48.782  1.00  0.00     0.016 C 
ENDBRANCH  12  13
ENDBRANCH  11  12
BRANCH  11  15
HETATM   15  N1  UNL     1      21.702   7.256  51.164  1.00  0.00    -0.412 N 
HETATM   16  H7  UNL     1      20.943   6.927  51.768  1.00  0.00     0.151 HD
HETATM   17  H8  UNL     1      21.468   7.904  50.410  1.00  0.00     0.151 HD
ENDBRANCH  11  15
ENDBRANCH   9  11
ENDBRANCH   8   9
ENDBRANCH   6   7
ENDBRANCH   1   6
BRANCH   5  18
HETATM   18  C13 UNL     1      23.216  -0.114  53.293  1.00  0.00    -0.002 A 
HETATM   19  C14 UNL     1      22.765  -0.880  54.380  1.00  0.00     0.033 A 
HETATM   20  C15 UNL     1      21.438  -1.191  54.580  1.00  0.00     0.117 A 
HETATM   21  N4  UNL     1      20.504  -0.760  53.715  1.00  0.00    -0.273 NA
HETATM   22  C16 UNL     1      20.903  -0.013  52.646  1.00  0.00     0.117 A 
HETATM   23  C17 UNL     1      22.226   0.303  52.438  1.00  0.00     0.033 A 
ENDBRANCH   5  18
BRANCH   3  24
HETATM   24  C10 UNL     1      28.063  -1.172  53.095  1.00  0.00     0.176 C 
BRANCH  24  25
HETATM   25  C11 UNL     1      27.862  -2.621  52.712  1.00  0.00     0.185 C 
BRANCH  25  26
HETATM   26  O2  UNL     1      28.722  -3.438  53.465  1.00  0.00    -0.399 OA
HETATM   27  H18 UNL     1      29.060  -4.158  52.848  1.00  0.00     0.209 HD
ENDBRANCH  25  26
ENDBRANCH  24  25
ENDBRANCH   3  24
TORSDOF 11
ENDMDL
MODEL 4
REMARK VINA RESULT:      -6.8      2.929      5.053
REMARK  11 active torsions:
REMARK  status: ('A' for Active; 'I' for Inactive)
REMARK    1  A    between atoms: C2_2  and  S1_3 
REMARK    2  A    between atoms: S1_3  and  C3_4 
REMARK    3  A    between atoms: C3_4  and  N1_5 
REMARK    4  A    between atoms: C3_4  and  C4_6 
REMARK    5  A    between atoms: C4_6  and  C5_8 
REMARK    6  A    between atoms: C6_9  and  C7_10 
REMARK    7  A    between atoms: C7_10  and  C8_11 
REMARK    8  A    between atoms: N2_13  and  C10_14 
REMARK    9  A    between atoms: C10_14  and  C11_15 
REMARK   10  A    between atoms: C11_15  and  O2_16 
REMARK   11  A    between atoms: C12_18  and  C13_19 
ROOT
HETATM    1  C8  UNL     1      24.281   0.626  52.782  1.00  0.00    -0.006 A 
HETATM    2  C9  UNL     1      22.923   0.377  53.027  1.00  0.00     0.122 A 
HETATM    3  N2  UNL     1      22.757  -0.481  54.066  1.00  0.00    -0.278 N 
HETATM    4  N3  UNL     1      23.954  -0.786  54.489  1.00  0.00    -0.172 NA
HETATM    5  C12 UNL     1      24.894  -0.138  53.740  1.00  0.00     0.095 A 
ENDROOT
BRANCH   1   6
HETATM    6  C7  UNL     1      24.740   1.532  51.710  1.00  0.00     0.070 C 
BRANCH   6   7
HETATM    7  C6  UNL     1      23.746   2.592  51.430  1.00  0.00    -0.018 C 
HETATM    8  C5  UNL     1      24.171   3.845  51.590  1.00  0.00     0.049 C 
BRANCH   8   9
HETATM    9  C4  UNL     1      23.662   5.191  51.466  1.00  0.00     0.181 C 
HETATM   10  O1  UNL     1      22.579   5.811  51.332  1.00  0.00    -0.290 OA
BRANCH   9  11
HETATM   11  C3  UNL     1      24.049   6.618  51.419  1.00  0.00     0.211 C 
BRANCH  11  12
HETATM   12  S1  UNL     1      25.391   6.943  50.249  1.00  0.00    -0.137 SA
BRANCH  12  13
HETATM   13  C2  UNL     1      25.415   5.723  48.911  1.00  0.00     0.072 C 
HETATM   14  C1  UNL     1      26.664   4.868  48.994  1.00  0.00     0.016 C 
ENDBRANCH  12  13
ENDBRANCH  11  12
BRANCH  11  15
HETATM   15  N1  UNL     1      22.956   7.466  51.057  1.00  0.00    -0.412 N 
HETATM   16  H7  UNL     1      22.030   7.031  51.085  1.00  0.00     0.151 HD
HETATM   17  H8  UNL     1      23.132   8.173  50.341  1.00  0.00     0.151 HD
ENDBRANCH  11  15
ENDBRANCH   9  11
ENDBRANCH   8   9
ENDBRANCH   6   7
ENDBRANCH   1   6
BRANCH   5  18
HETATM   18  C13 UNL     1      26.322  -0.280  53.944  1.00  0.00    -0.002 A 
HETATM   19  C14 UNL     1      26.908  -1.194  53.052  1.00  0.00     0.033 A 
HETATM   20  C15 UNL     1      28.251  -1.497  53.063  1.00  0.00     0.117 A 
HETATM   21  N4  UNL     1      29.069  -0.911  53.954  1.00  0.00    -0.273 NA
HETATM   22  C16 UNL     1      28.538  -0.018  54.836  1.00  0.00     0.117 A 
HETATM   23  C17 UNL     1      27.197   0.291  54.834  1.00  0.00     0.033 A 
ENDBRANCH   5  18
BRANCH   3  24
HETATM   24  C10 UNL     1      21.431  -0.904  54.533  1.00  0.00     0.176 C 
BRANCH  24  25
HETATM   25  C11 UNL     1      20.350  -0.239  53.710  1.00  0.00     0.185 C 
BRANCH  25  26
HETATM   26  O2  UNL     1      19.143  -0.946  53.847  1.00  0.00    -0.399 OA
HETATM   27  H18 UNL     1      19.383  -1.901  54.056  1.00  0.00     0.209 HD
ENDBRANCH  25  26
ENDBRANCH  24  25
ENDBRANCH   3  24
TORSDOF 11
ENDMDL
MODEL 5
REMARK VINA RESULT:      -6.7      2.356      4.453
REMARK  11 active torsions:
REMARK  status: ('A' for Active; 'I' for Inactive)
REMARK    1  A    between atoms: C2_2  and  S1_3 
REMARK    2  A    between atoms: S1_3  and  C3_4 
REMARK    3  A    between atoms: C3_4  and  N1_5 
REMARK    4  A    between atoms: C3_4  and  C4_6 
REMARK    5  A    between atoms: C4_6  and  C5_8 
REMARK    6  A    between atoms: C6_9  and  C7_10 
REMARK    7  A    between atoms: C7_10  and  C8_11 
REMARK    8  A    between atoms: N2_13  and  C10_14 
REMARK    9  A    between atoms: C10_14  and  C11_15 
REMARK   10  A    between atoms: C11_15  and  O2_16 
REMARK   11  A    between atoms: C12_18  and  C13_19 
ROOT
HETATM    1  C8  UNL     1      25.614   0.888  52.137  1.00  0.00    -0.006 A 
HETATM    2  C9  UNL     1      24.235   1.039  52.342  1.00  0.00     0.122 A 
HETATM    3  N2  UNL     1      23.775   0.168  53.276  1.00  0.00    -0.278 N 
HETATM    4  N3  UNL     1      24.805  -0.528  53.673  1.00  0.00    -0.172 NA
HETATM    5  C12 UNL     1      25.928  -0.122  53.008  1.00  0.00     0.095 A 
ENDROOT
BRANCH   1   6
HETATM    6  C7  UNL     1      26.368   1.718  51.178  1.00  0.00     0.070 C 
BRANCH   6   7
HETATM    7  C6  UNL     1      25.634   2.956  50.834  1.00  0.00    -0.018 C 
HETATM    8  C5  UNL     1      26.220   3.749  49.936  1.00  0.00     0.049 C 
BRANCH   8   9
HETATM    9  C4  UNL     1      25.971   5.006  49.269  1.00  0.00     0.181 C 
HETATM   10  O1  UNL     1      25.063   5.618  48.656  1.00  0.00    -0.290 OA
BRANCH   9  11
HETATM   11  C3  UNL     1      26.577   6.303  48.896  1.00  0.00     0.211 C 
BRANCH  11  12
HETATM   12  S1  UNL     1      26.043   7.661  49.967  1.00  0.00    -0.137 SA
BRANCH  12  13
HETATM   13  C2  UNL     1      25.579   9.123  49.005  1.00  0.00     0.072 C 
HETATM   14  C1  UNL     1      25.923   8.927  47.542  1.00  0.00     0.016 C 
ENDBRANCH  12  13
ENDBRANCH  11  12
BRANCH  11  15
HETATM   15  N1  UNL     1      28.005   6.268  48.935  1.00  0.00    -0.412 N 
HETATM   16  H7  UNL     1      28.416   5.894  49.794  1.00  0.00     0.151 HD
HETATM   17  H8  UNL     1      28.503   7.019  48.453  1.00  0.00     0.151 HD
ENDBRANCH  11  15
ENDBRANCH   9  11
ENDBRANCH   8   9
ENDBRANCH   6   7
ENDBRANCH   1   6
BRANCH   5  18
HETATM   18  C13 UNL     1      27.237  -0.711  53.207  1.00  0.00    -0.002 A 
HETATM   19  C14 UNL     1      27.284  -2.063  52.832  1.00  0.00     0.033 A 
HETATM   20  C15 UNL     1      28.421  -2.832  52.939  1.00  0.00     0.117 A 
HETATM   21  N4  UNL     1      29.556  -2.298  53.421  1.00  0.00    -0.273 NA
HETATM   22  C16 UNL     1      29.550  -0.988  53.797  1.00  0.00     0.117 A 
HETATM   23  C17 UNL     1      28.419  -0.211  53.694  1.00  0.00     0.033 A 
ENDBRANCH   5  18
BRANCH   3  24
HETATM   24  C10 UNL     1      22.365   0.121  53.681  1.00  0.00     0.176 C 
BRANCH  24  25
HETATM   25  C11 UNL     1      22.165  -0.920  54.760  1.00  0.00     0.185 C 
BRANCH  25  26
HETATM   26  O2  UNL     1      20.805  -1.267  54.842  1.00  0.00    -0.399 OA
HETATM   27  H18 UNL     1      20.562  -1.713  53.973  1.00  0.00     0.209 HD
ENDBRANCH  25  26
ENDBRANCH  24  25
ENDBRANCH   3  24
TORSDOF 11
ENDMDL
MODEL 6
REMARK VINA RESULT:      -6.6      3.149      7.004
REMARK  11 active torsions:
REMARK  status: ('A' for Active; 'I' for Inactive)
REMARK    1  A    between atoms: C2_2  and  S1_3 
REMARK    2  A    between atoms: S1_3  and  C3_4 
REMARK    3  A    between atoms: C3_4  and  N1_5 
REMARK    4  A    between atoms: C3_4  and  C4_6 
REMARK    5  A    between atoms: C4_6  and  C5_8 
REMARK    6  A    between atoms: C6_9  and  C7_10 
REMARK    7  A    between atoms: C7_10  and  C8_11 
REMARK    8  A    between atoms: N2_13  and  C10_14 
REMARK    9  A    between atoms: C10_14  and  C11_15 
REMARK   10  A    between atoms: C11_15  and  O2_16 
REMARK   11  A    between atoms: C12_18  and  C13_19 
ROOT
HETATM    1  C8  UNL     1      25.358   2.859  52.033  1.00  0.00    -0.006 A 
HETATM    2  C9  UNL     1      25.268   3.834  51.029  1.00  0.00     0.122 A 
HETATM    3  N2  UNL     1      26.290   3.727  50.142  1.00  0.00    -0.278 N 
HETATM    4  N3  UNL     1      27.024   2.725  50.543  1.00  0.00    -0.172 NA
HETATM    5  C12 UNL     1      26.494   2.180  51.677  1.00  0.00     0.095 A 
ENDROOT
BRANCH   1   6
HETATM    6  C7  UNL     1      24.366   2.748  53.121  1.00  0.00     0.070 C 
BRANCH   6   7
HETATM    7  C6  UNL     1      23.100   2.150  52.644  1.00  0.00    -0.018 C 
HETATM    8  C5  UNL     1      22.683   1.068  53.302  1.00  0.00     0.049 C 
BRANCH   8   9
HETATM    9  C4  UNL     1      21.584   0.132  53.271  1.00  0.00     0.181 C 
HETATM   10  O1  UNL     1      21.357  -1.099  53.167  1.00  0.00    -0.290 OA
BRANCH   9  11
HETATM   11  C3  UNL     1      20.110   0.013  53.337  1.00  0.00     0.211 C 
BRANCH  11  12
HETATM   12  S1  UNL     1      19.326   0.088  51.708  1.00  0.00    -0.137 SA
BRANCH  12  13
HETATM   13  C2  UNL     1      20.035   1.407  50.690  1.00  0.00     0.072 C 
HETATM   14  C1  UNL     1      21.033   0.838  49.702  1.00  0.00     0.016 C 
ENDBRANCH  12  13
ENDBRANCH  11  12
BRANCH  11  15
HETATM   15  N1  UNL     1      19.690  -1.206  53.955  1.00  0.00    -0.412 N 
HETATM   16  H7  UNL     1      18.785  -1.570  53.646  1.00  0.00     0.151 HD
HETATM   17  H8  UNL     1      19.956  -1.350  54.930  1.00  0.00     0.151 HD
ENDBRANCH  11  15
ENDBRANCH   9  11
ENDBRANCH   8   9
ENDBRANCH   6   7
ENDBRANCH   1   6
BRANCH   5  18
HETATM   18  C13 UNL     1      27.085   1.062  52.385  1.00  0.00    -0.002 A 
HETATM   19  C14 UNL     1      26.476  -0.163  52.066  1.00  0.00     0.033 A 
HETATM   20  C15 UNL     1      26.865  -1.361  52.621  1.00  0.00     0.117 A 
HETATM   21  N4  UNL     1      27.870  -1.399  53.513  1.00  0.00    -0.273 NA
HETATM   22  C16 UNL     1      28.486  -0.230  53.848  1.00  0.00     0.117 A 
HETATM   23  C17 UNL     1      28.104   0.972  53.300  1.00  0.00     0.033 A 
ENDBRANCH   5  18
BRANCH   3  24
HETATM   24  C10 UNL     1      26.428   4.625  48.989  1.00  0.00     0.176 C 
BRANCH  24  25
HETATM   25  C11 UNL     1      25.828   5.977  49.304  1.00  0.00     0.185 C 
BRANCH  25  26
HETATM   26  O2  UNL     1      26.826   6.842  49.785  1.00  0.00    -0.399 OA
HETATM   27  H18 UNL     1      26.541   7.139  50.704  1.00  0.00     0.209 HD
ENDBRANCH  25  26
ENDBRANCH  24  25
ENDBRANCH   3  24
TORSDOF 11
ENDMDL
MODEL 7
REMARK VINA RESULT:      -6.6      3.521      6.470
REMARK  11 active torsions:
REMARK  status: ('A' for Active; 'I' for Inactive)
REMARK    1  A    between atoms: C2_2  and  S1_3 
REMARK    2  A    between atoms: S1_3  and  C3_4 
REMARK    3  A    between atoms: C3_4  and  N1_5 
REMARK    4  A    between atoms: C3_4  and  C4_6 
REMARK    5  A    between atoms: C4_6  and  C5_8 
REMARK    6  A    between atoms: C6_9  and  C7_10 
REMARK    7  A    between atoms: C7_10  and  C8_11 
REMARK    8  A    between atoms: N2_13  and  C10_14 
REMARK    9  A    between atoms: C10_14  and  C11_15 
REMARK   10  A    between atoms: C11_15  and  O2_16 
REMARK   11  A    between atoms: C12_18  and  C13_19 
ROOT
HETATM    1  C8  UNL     1      23.485   2.269  51.746  1.00  0.00    -0.006 A 
HETATM    2  C9  UNL     1      23.680   3.593  51.329  1.00  0.00     0.122 A 
HETATM    3  N2  UNL     1      22.592   4.361  51.592  1.00  0.00    -0.278 N 
HETATM    4  N3  UNL     1      21.715   3.577  52.158  1.00  0.00    -0.172 NA
HETATM    5  C12 UNL     1      22.218   2.312  52.266  1.00  0.00     0.095 A 
ENDROOT
BRANCH   1   6
HETATM    6  C7  UNL     1      24.518   1.226  51.584  1.00  0.00     0.070 C 
BRANCH   6   7
HETATM    7  C6  UNL     1      25.877   1.768  51.804  1.00  0.00    -0.018 C 
HETATM    8  C5  UNL     1      26.421   1.510  52.993  1.00  0.00     0.049 C 
BRANCH   8   9
HETATM    9  C4  UNL     1      27.647   1.775  53.710  1.00  0.00     0.181 C 
HETATM   10  O1  UNL     1      28.318   2.733  54.166  1.00  0.00    -0.290 OA
BRANCH   9  11
HETATM   11  C3  UNL     1      28.830   1.143  54.333  1.00  0.00     0.211 C 
BRANCH  11  12
HETATM   12  S1  UNL     1      29.670  -0.018  53.227  1.00  0.00    -0.137 SA
BRANCH  12  13
HETATM   13  C2  UNL     1      29.049  -1.705  53.441  1.00  0.00     0.072 C 
HETATM   14  C1  UNL     1      27.697  -1.862  52.775  1.00  0.00     0.016 C 
ENDBRANCH  12  13
ENDBRANCH  11  12
BRANCH  11  15
HETATM   15  N1  UNL     1      29.801   2.104  54.756  1.00  0.00    -0.412 N 
HETATM   16  H7  UNL     1      29.467   3.069  54.826  1.00  0.00     0.151 HD
HETATM   17  H8  UNL     1      30.767   1.951  54.462  1.00  0.00     0.151 HD
ENDBRANCH  11  15
ENDBRANCH   9  11
ENDBRANCH   8   9
ENDBRANCH   6   7
ENDBRANCH   1   6
BRANCH   5  18
HETATM   18  C13 UNL     1      21.483   1.200  52.834  1.00  0.00    -0.002 A 
HETATM   19  C14 UNL     1      20.264   0.966  52.178  1.00  0.00     0.033 A 
HETATM   20  C15 UNL     1      19.392  -0.034  52.548  1.00  0.00     0.117 A 
HETATM   21  N4  UNL     1      19.688  -0.842  53.580  1.00  0.00    -0.273 NA
HETATM   22  C16 UNL     1      20.864  -0.645  54.243  1.00  0.00     0.117 A 
HETATM   23  C17 UNL     1      21.741   0.351  53.882  1.00  0.00     0.033 A 
ENDBRANCH   5  18
BRANCH   3  24
HETATM   24  C10 UNL     1      22.537   5.789  51.258  1.00  0.00     0.176 C 
BRANCH  24  25
HETATM   25  C11 UNL     1      23.936   6.341  51.089  1.00  0.00     0.185 C 
BRANCH  25  26
HETATM   26  O2  UNL     1      24.384   6.885  52.305  1.00  0.00    -0.399 OA
HETATM   27  H18 UNL     1      25.144   7.508  52.086  1.00  0.00     0.209 HD
ENDBRANCH  25  26
ENDBRANCH  24  25
ENDBRANCH   3  24
TORSDOF 11
ENDMDL
MODEL 8
REMARK VINA RESULT:      -6.6      3.701      6.728
REMARK  11 active torsions:
REMARK  status: ('A' for Active; 'I' for Inactive)
REMARK    1  A    between atoms: C2_2  and  S1_3 
REMARK    2  A    between atoms: S1_3  and  C3_4 
REMARK    3  A    between atoms: C3_4  and  N1_5 
REMARK    4  A    between atoms: C3_4  and  C4_6 
REMARK    5  A    between atoms: C4_6  and  C5_8 
REMARK    6  A    between atoms: C6_9  and  C7_10 
REMARK    7  A    between atoms: C7_10  and  C8_11 
REMARK    8  A    between atoms: N2_13  and  C10_14 
REMARK    9  A    between atoms: C10_14  and  C11_15 
REMARK   10  A    between atoms: C11_15  and  O2_16 
REMARK   11  A    between atoms: C12_18  and  C13_19 
ROOT
HETATM    1  C8  UNL     1      22.856   2.426  51.266  1.00  0.00    -0.006 A 
HETATM    2  C9  UNL     1      22.825   2.642  49.880  1.00  0.00     0.122 A 
HETATM    3  N2  UNL     1      22.075   1.702  49.250  1.00  0.00    -0.278 N 
HETATM    4  N3  UNL     1      21.629   0.901  50.178  1.00  0.00    -0.172 NA
HETATM    5  C12 UNL     1      22.079   1.306  51.402  1.00  0.00     0.095 A 
ENDROOT
BRANCH   1   6
HETATM    6  C7  UNL     1      23.595   3.310  52.189  1.00  0.00     0.070 C 
BRANCH   6   7
HETATM    7  C6  UNL     1      25.012   2.901  52.317  1.00  0.00    -0.018 C 
HETATM    8  C5  UNL     1      25.300   2.117  53.355  1.00  0.00     0.049 C 
BRANCH   8   9
HETATM    9  C4  UNL     1      26.446   1.456  53.934  1.00  0.00     0.181 C 
HETATM   10  O1  UNL     1      27.528   1.718  54.516  1.00  0.00    -0.290 OA
BRANCH   9  11
HETATM   11  C3  UNL     1      27.057   0.136  54.206  1.00  0.00     0.211 C 
BRANCH  11  12
HETATM   12  S1  UNL     1      28.787   0.256  54.722  1.00  0.00    -0.137 SA
BRANCH  12  13
HETATM   13  C2  UNL     1      29.851  -0.829  53.737  1.00  0.00     0.072 C 
HETATM   14  C1  UNL     1      29.066  -2.020  53.227  1.00  0.00     0.016 C 
ENDBRANCH  12  13
ENDBRANCH  11  12
BRANCH  11  15
HETATM   15  N1  UNL     1      26.360  -0.587  55.223  1.00  0.00    -0.412 N 
HETATM   16  H7  UNL     1      26.640  -1.564  55.343  1.00  0.00     0.151 HD
HETATM   17  H8  UNL     1      25.378  -0.348  55.375  1.00  0.00     0.151 HD
ENDBRANCH  11  15
ENDBRANCH   9  11
ENDBRANCH   8   9
ENDBRANCH   6   7
ENDBRANCH   1   6
BRANCH   5  18
HETATM   18  C13 UNL     1      21.776   0.615  52.640  1.00  0.00    -0.002 A 
HETATM   19  C14 UNL     1      22.655  -0.451  52.893  1.00  0.00     0.033 A 
HETATM   20  C15 UNL     1      22.557  -1.257  54.006  1.00  0.00     0.117 A 
HETATM   21  N4  UNL     1      21.587  -1.043  54.912  1.00  0.00    -0.273 NA
HETATM   22  C16 UNL     1      20.714  -0.017  54.701  1.00  0.00     0.117 A 
HETATM   23  C17 UNL     1      20.804   0.793  53.593  1.00  0.00     0.033 A 
ENDBRANCH   5  18
BRANCH   3  24
HETATM   24  C10 UNL     1      21.876   1.701  47.795  1.00  0.00     0.176 C 
BRANCH  24  25
HETATM   25  C11 UNL     1      21.430   3.068  47.327  1.00  0.00     0.185 C 
BRANCH  25  26
HETATM   26  O2  UNL     1      22.022   3.364  46.087  1.00  0.00    -0.399 OA
HETATM   27  H18 UNL     1      21.677   4.267  45.804  1.00  0.00     0.209 HD
ENDBRANCH  25  26
ENDBRANCH  24  25
ENDBRANCH   3  24
TORSDOF 11
ENDMDL
MODEL 9
REMARK VINA RESULT:      -6.5      2.013      2.330
REMARK  11 active torsions:
REMARK  status: ('A' for Active; 'I' for Inactive)
REMARK    1  A    between atoms: C2_2  and  S1_3 
REMARK    2  A    between atoms: S1_3  and  C3_4 
REMARK    3  A    between atoms: C3_4  and  N1_5 
REMARK    4  A    between atoms: C3_4  and  C4_6 
REMARK    5  A    between atoms: C4_6  and  C5_8 
REMARK    6  A    between atoms: C6_9  and  C7_10 
REMARK    7  A    between atoms: C7_10  and  C8_11 
REMARK    8  A    between atoms: N2_13  and  C10_14 
REMARK    9  A    between atoms: C10_14  and  C11_15 
REMARK   10  A    between atoms: C11_15  and  O2_16 
REMARK   11  A    between atoms: C12_18  and  C13_19 
ROOT
HETATM    1  C8  UNL     1      25.630   1.122  52.280  1.00  0.00    -0.006 A 
HETATM    2  C9  UNL     1      27.021   1.281  52.344  1.00  0.00     0.122 A 
HETATM    3  N2  UNL     1      27.543   0.643  53.424  1.00  0.00    -0.278 N 
HETATM    4  N3  UNL     1      26.539   0.088  54.046  1.00  0.00    -0.172 NA
HETATM    5  C12 UNL     1      25.373   0.356  53.386  1.00  0.00     0.095 A 
ENDROOT
BRANCH   1   6
HETATM    6  C7  UNL     1      24.814   1.710  51.199  1.00  0.00     0.070 C 
BRANCH   6   7
HETATM    7  C6  UNL     1      24.461   3.117  51.485  1.00  0.00    -0.018 C 
HETATM    8  C5  UNL     1      24.527   3.956  50.451  1.00  0.00     0.049 C 
BRANCH   8   9
HETATM    9  C4  UNL     1      24.307   5.355  50.170  1.00  0.00     0.181 C 
HETATM   10  O1  UNL     1      24.446   6.195  49.247  1.00  0.00    -0.290 OA
BRANCH   9  11
HETATM   11  C3  UNL     1      23.808   6.627  50.739  1.00  0.00     0.211 C 
BRANCH  11  12
HETATM   12  S1  UNL     1      22.014   6.633  50.978  1.00  0.00    -0.137 SA
BRANCH  12  13
HETATM   13  C2  UNL     1      21.230   5.224  50.154  1.00  0.00     0.072 C 
HETATM   14  C1  UNL     1      20.732   4.222  51.176  1.00  0.00     0.016 C 
ENDBRANCH  12  13
ENDBRANCH  11  12
BRANCH  11  15
HETATM   15  N1  UNL     1      24.406   6.929  52.002  1.00  0.00    -0.412 N 
HETATM   16  H7  UNL     1      24.578   6.127  52.613  1.00  0.00     0.151 HD
HETATM   17  H8  UNL     1      24.152   7.818  52.437  1.00  0.00     0.151 HD
ENDBRANCH  11  15
ENDBRANCH   9  11
ENDBRANCH   8   9
ENDBRANCH   6   7
ENDBRANCH   1   6
BRANCH   5  18
HETATM   18  C13 UNL     1      24.073  -0.103  53.833  1.00  0.00    -0.002 A 
HETATM   19  C14 UNL     1      24.156  -0.989  54.920  1.00  0.00     0.033 A 
HETATM   20  C15 UNL     1      23.050  -1.560  55.509  1.00  0.00     0.117 A 
HETATM   21  N4  UNL     1      21.819  -1.281  55.048  1.00  0.00    -0.273 NA
HETATM   22  C16 UNL     1      21.697  -0.426  53.993  1.00  0.00     0.117 A 
HETATM   23  C17 UNL     1      22.796   0.150  53.398  1.00  0.00     0.033 A 
ENDBRANCH   5  18
BRANCH   3  24
HETATM   24  C10 UNL     1      28.980   0.648  53.722  1.00  0.00     0.176 C 
BRANCH  24  25
HETATM   25  C11 UNL     1      29.473  -0.764  53.945  1.00  0.00     0.185 C 
BRANCH  25  26
HETATM   26  O2  UNL     1      28.607  -1.676  53.316  1.00  0.00    -0.399 OA
HETATM   27  H18 UNL     1      28.827  -1.662  52.333  1.00  0.00     0.209 HD
ENDBRANCH  25  26
ENDBRANCH  24  25
ENDBRANCH   3  24
TORSDOF 11
ENDMDL
