MODEL 1
REMARK VINA RESULT:      -8.0      0.000      0.000
REMARK  6 active torsions:
REMARK  status: ('A' for Active; 'I' for Inactive)
REMARK    1  A    between atoms: C5_6  and  N1_7 
REMARK    2  A    between atoms: N1_7  and  C6_8 
REMARK    3  A    between atoms: C9_13  and  N4_14 
REMARK    4  A    between atoms: N4_14  and  C10_15 
REMARK    5  A    between atoms: C10_15  and  C11_16 
REMARK    6  A    between atoms: C12_17  and  C13_18 
ROOT
HETATM    1  C6  UNL     1      26.714   0.342  53.570  1.00  0.00     0.157 A 
HETATM    2  N2  UNL     1      27.593  -0.303  54.346  1.00  0.00    -0.222 NA
HETATM    3  C7  UNL     1      28.694   0.282  54.827  1.00  0.00     0.235 A 
HETATM    4  N3  UNL     1      28.948   1.584  54.530  1.00  0.00    -0.252 NA
HETATM    5  C8  UNL     1      28.066   2.250  53.744  1.00  0.00     0.151 A 
HETATM    6  C9  UNL     1      26.929   1.662  53.242  1.00  0.00     0.092 A 
ENDROOT
BRANCH   6   7
HETATM    7  N4  UNL     1      26.087   2.466  52.418  1.00  0.00    -0.382 N 
HETATM    8  H7  UNL     1      25.410   3.197  52.737  1.00  0.00     0.160 HD
BRANCH   7   9
HETATM    9  C10 UNL     1      26.086   2.343  50.977  1.00  0.00     0.147 C 
BRANCH   9  10
HETATM   10  C11 UNL     1      26.787   3.453  50.286  1.00  0.00    -0.005 C 
HETATM   11  C12 UNL     1      26.411   4.373  49.428  1.00  0.00     0.028 C 
BRANCH  11  12
HETATM   12  C13 UNL     1      27.356   5.353  48.913  1.00  0.00     0.044 C 
HETATM   13  C14 UNL     1      28.479   5.313  48.263  1.00  0.00     0.020 C 
HETATM   14  C15 UNL     1      28.599   6.589  48.085  1.00  0.00     0.103 C 
HETATM   15  N5  UNL     1      27.452   6.780  48.904  1.00  0.00    -0.364 N 
HETATM   16  H13 UNL     1      26.826   7.492  49.377  1.00  0.00     0.165 HD
ENDBRANCH  11  12
ENDBRANCH   9  10
ENDBRANCH   7   9
ENDBRANCH   6   7
BRANCH   1  17
HETATM   17  N1  UNL     1      25.548  -0.286  53.061  1.00  0.00    -0.339 N 
HETATM   18  H4  UNL     1      25.606  -0.813  52.160  1.00  0.00     0.167 HD
BRANCH  17  19
HETATM   19  C5  UNL     1      24.232  -0.328  53.587  1.00  0.00     0.035 A 
HETATM   20  C4  UNL     1      23.873  -1.082  54.692  1.00  0.00     0.029 A 
HETATM   21  C3  UNL     1      22.608  -1.145  55.219  1.00  0.00     0.004 A 
HETATM   22  C2  UNL     1      21.592  -0.420  54.634  1.00  0.00     0.019 A 
HETATM   23  C1  UNL     1      21.878   0.358  53.524  1.00  0.00     0.013 A 
HETATM   24 BR1  UNL     1      20.452   1.344  52.741  1.00  0.00    -0.051 Br
HETATM   25  C16 UNL     1      23.172   0.365  53.060  1.00  0.00     0.048 A 
ENDBRANCH  17  19
ENDBRANCH   1  17
TORSDOF 6
ENDMDL
MODEL 2
REMARK VINA RESULT:      -7.8      3.039      6.102
REMARK  6 active torsions:
REMARK  status: ('A' for Active; 'I' for Inactive)
REMARK    1  A    between atoms: C5_6  and  N1_7 
REMARK    2  A    between atoms: N1_7  and  C6_8 
REMARK    3  A    between atoms: C9_13  and  N4_14 
REMARK    4  A    between atoms: N4_14  and  C10_15 
REMARK    5  A    between atoms: C10_15  and  C11_16 
REMARK    6  A    between atoms: C12_17  and  C13_18 
ROOT
HETATM    1  C6  UNL     1      26.962   1.242  52.837  1.00  0.00     0.157 A 
HETATM    2  N2  UNL     1      27.878   2.217  52.808  1.00  0.00    -0.222 NA
HETATM    3  C7  UNL     1      28.874   2.298  53.695  1.00  0.00     0.235 A 
HETATM    4  N3  UNL     1      28.980   1.360  54.674  1.00  0.00    -0.252 NA
HETATM    5  C8  UNL     1      28.058   0.366  54.716  1.00  0.00     0.151 A 
HETATM    6  C9  UNL     1      27.029   0.269  53.811  1.00  0.00     0.092 A 
ENDROOT
BRANCH   6   7
HETATM    7  N4  UNL     1      26.118  -0.817  53.969  1.00  0.00    -0.382 N 
HETATM    8  H7  UNL     1      26.018  -1.648  53.342  1.00  0.00     0.160 HD
BRANCH   7   9
HETATM    9  C10 UNL     1      25.190  -0.881  55.076  1.00  0.00     0.147 C 
BRANCH   9  10
HETATM   10  C11 UNL     1      23.772  -0.720  54.672  1.00  0.00    -0.005 C 
HETATM   11  C12 UNL     1      22.653  -1.311  55.023  1.00  0.00     0.028 C 
BRANCH  11  12
HETATM   12  C13 UNL     1      21.379  -0.924  54.433  1.00  0.00     0.044 C 
HETATM   13  C14 UNL     1      20.889   0.153  53.898  1.00  0.00     0.020 C 
HETATM   14  C15 UNL     1      19.764  -0.362  53.520  1.00  0.00     0.103 C 
HETATM   15  N5  UNL     1      20.122  -1.562  54.194  1.00  0.00    -0.364 N 
HETATM   16  H13 UNL     1      19.801  -2.529  54.487  1.00  0.00     0.165 HD
ENDBRANCH  11  12
ENDBRANCH   9  10
ENDBRANCH   7   9
ENDBRANCH   6   7
BRANCH   1  17
HETATM   17  N1  UNL     1      25.906   1.164  51.893  1.00  0.00    -0.339 N 
HETATM   18  H4  UNL     1      26.015   0.547  51.057  1.00  0.00     0.167 HD
BRANCH  17  19
HETATM   19  C5  UNL     1      24.648   1.819  51.878  1.00  0.00     0.035 A 
HETATM   20  C4  UNL     1      24.386   2.991  52.566  1.00  0.00     0.029 A 
HETATM   21  C3  UNL     1      23.180   3.642  52.574  1.00  0.00     0.004 A 
HETATM   22  C2  UNL     1      22.124   3.122  51.856  1.00  0.00     0.019 A 
HETATM   23  C1  UNL     1      22.311   1.950  51.142  1.00  0.00     0.013 A 
HETATM   24 BR1  UNL     1      20.833   1.260  50.165  1.00  0.00    -0.051 Br
HETATM   25  C16 UNL     1      23.554   1.362  51.189  1.00  0.00     0.048 A 
ENDBRANCH  17  19
ENDBRANCH   1  17
TORSDOF 6
ENDMDL
MODEL 3
REMARK VINA RESULT:      -7.7      2.695      6.079
REMARK  6 active torsions:
REMARK  status: ('A' for Active; 'I' for Inactive)
REMARK    1  A    between atoms: C5_6  and  N1_7 
REMARK    2  A    between atoms: N1_7  and  C6_8 
REMARK    3  A    between atoms: C9_13  and  N4_14 
REMARK    4  A    between atoms: N4_14  and  C10_15 
REMARK    5  A    between atoms: C10_15  and  C11_16 
REMARK    6  A    between atoms: C12_17  and  C13_18 
ROOT
HETATM    1  C6  UNL     1      27.458   1.243  52.789  1.00  0.00     0.157 A 
HETATM    2  N2  UNL     1      28.392   2.183  52.972  1.00  0.00    -0.222 NA
HETATM    3  C7  UNL     1      29.185   2.213  54.047  1.00  0.00     0.235 A 
HETATM    4  N3  UNL     1      29.054   1.258  55.005  1.00  0.00    -0.252 NA
HETATM    5  C8  UNL     1      28.111   0.299  54.834  1.00  0.00     0.151 A 
HETATM    6  C9  UNL     1      27.288   0.254  53.734  1.00  0.00     0.092 A 
ENDROOT
BRANCH   6   7
HETATM    7  N4  UNL     1      26.329  -0.799  53.677  1.00  0.00    -0.382 N 
HETATM    8  H7  UNL     1      26.394  -1.678  53.113  1.00  0.00     0.160 HD
BRANCH   7   9
HETATM    9  C10 UNL     1      25.100  -0.755  54.438  1.00  0.00     0.147 C 
BRANCH   9  10
HETATM   10  C11 UNL     1      23.931  -0.290  53.652  1.00  0.00    -0.005 C 
HETATM   11  C12 UNL     1      22.632  -0.352  53.830  1.00  0.00     0.028 C 
BRANCH  11  12
HETATM   12  C13 UNL     1      21.709   0.210  52.853  1.00  0.00     0.044 C 
HETATM   13  C14 UNL     1      21.616   0.221  51.558  1.00  0.00     0.020 C 
HETATM   14  C15 UNL     1      20.467   0.812  51.492  1.00  0.00     0.103 C 
HETATM   15  N5  UNL     1      20.513   0.993  52.902  1.00  0.00    -0.364 N 
HETATM   16  H13 UNL     1      20.037   1.428  53.743  1.00  0.00     0.165 HD
ENDBRANCH  11  12
ENDBRANCH   9  10
ENDBRANCH   7   9
ENDBRANCH   6   7
BRANCH   1  17
HETATM   17  N1  UNL     1      26.618   1.219  51.647  1.00  0.00    -0.339 N 
HETATM   18  H4  UNL     1      26.451   0.312  51.156  1.00  0.00     0.167 HD
BRANCH  17  19
HETATM   19  C5  UNL     1      25.920   2.276  51.007  1.00  0.00     0.035 A 
HETATM   20  C4  UNL     1      24.541   2.398  51.014  1.00  0.00     0.029 A 
HETATM   21  C3  UNL     1      23.841   3.404  50.400  1.00  0.00     0.004 A 
HETATM   22  C2  UNL     1      24.525   4.386  49.715  1.00  0.00     0.019 A 
HETATM   23  C1  UNL     1      25.909   4.329  49.665  1.00  0.00     0.013 A 
HETATM   24 BR1  UNL     1      26.819   5.699  48.710  1.00  0.00    -0.051 Br
HETATM   25  C16 UNL     1      26.532   3.285  50.308  1.00  0.00     0.048 A 
ENDBRANCH  17  19
ENDBRANCH   1  17
TORSDOF 6
ENDMDL
MODEL 4
REMARK VINA RESULT:      -7.6      1.969      2.611
REMARK  6 active torsions:
REMARK  status: ('A' for Active; 'I' for Inactive)
REMARK    1  A    between atoms: C5_6  and  N1_7 
REMARK    2  A    between atoms: N1_7  and  C6_8 
REMARK    3  A    between atoms: C9_13  and  N4_14 
REMARK    4  A    between atoms: N4_14  and  C10_15 
REMARK    5  A    between atoms: C10_15  and  C11_16 
REMARK    6  A    between atoms: C12_17  and  C13_18 
ROOT
HETATM    1  C6  UNL     1      26.702   0.488  53.475  1.00  0.00     0.157 A 
HETATM    2  N2  UNL     1      27.473  -0.238  54.293  1.00  0.00    -0.222 NA
HETATM    3  C7  UNL     1      28.594   0.240  54.840  1.00  0.00     0.235 A 
HETATM    4  N3  UNL     1      28.985   1.513  54.568  1.00  0.00    -0.252 NA
HETATM    5  C8  UNL     1      28.214   2.261  53.739  1.00  0.00     0.151 A 
HETATM    6  C9  UNL     1      27.058   1.783  53.170  1.00  0.00     0.092 A 
ENDROOT
BRANCH   6   7
HETATM    7  N4  UNL     1      26.342   2.664  52.307  1.00  0.00    -0.382 N 
HETATM    8  H7  UNL     1      25.514   3.252  52.558  1.00  0.00     0.160 HD
BRANCH   7   9
HETATM    9  C10 UNL     1      26.711   2.842  50.920  1.00  0.00     0.147 C 
BRANCH   9  10
HETATM   10  C11 UNL     1      25.560   3.139  50.032  1.00  0.00    -0.005 C 
HETATM   11  C12 UNL     1      24.266   2.934  50.121  1.00  0.00     0.028 C 
BRANCH  11  12
HETATM   12  C13 UNL     1      23.364   3.348  49.056  1.00  0.00     0.044 C 
HETATM   13  C14 UNL     1      23.031   4.474  48.501  1.00  0.00     0.020 C 
HETATM   14  C15 UNL     1      22.285   3.973  47.571  1.00  0.00     0.103 C 
HETATM   15  N5  UNL     1      22.455   2.693  48.168  1.00  0.00    -0.364 N 
HETATM   16  H13 UNL     1      22.170   1.672  48.142  1.00  0.00     0.165 HD
ENDBRANCH  11  12
ENDBRANCH   9  10
ENDBRANCH   7   9
ENDBRANCH   6   7
BRANCH   1  17
HETATM   17  N1  UNL     1      25.514  -0.028  52.896  1.00  0.00    -0.339 N 
HETATM   18  H4  UNL     1      25.550  -0.427  51.931  1.00  0.00     0.167 HD
BRANCH  17  19
HETATM   19  C5  UNL     1      24.200  -0.101  53.425  1.00  0.00     0.035 A 
HETATM   20  C4  UNL     1      23.840  -0.940  54.465  1.00  0.00     0.029 A 
HETATM   21  C3  UNL     1      22.578  -1.036  54.993  1.00  0.00     0.004 A 
HETATM   22  C2  UNL     1      21.566  -0.254  54.477  1.00  0.00     0.019 A 
HETATM   23  C1  UNL     1      21.853   0.611  53.434  1.00  0.00     0.013 A 
HETATM   24 BR1  UNL     1      20.433   1.673  52.745  1.00  0.00    -0.051 Br
HETATM   25  C16 UNL     1      23.145   0.644  52.964  1.00  0.00     0.048 A 
ENDBRANCH  17  19
ENDBRANCH   1  17
TORSDOF 6
ENDMDL
MODEL 5
REMARK VINA RESULT:      -7.5      2.138      5.791
REMARK  6 active torsions:
REMARK  status: ('A' for Active; 'I' for Inactive)
REMARK    1  A    between atoms: C5_6  and  N1_7 
REMARK    2  A    between atoms: N1_7  and  C6_8 
REMARK    3  A    between atoms: C9_13  and  N4_14 
REMARK    4  A    between atoms: N4_14  and  C10_15 
REMARK    5  A    between atoms: C10_15  and  C11_16 
REMARK    6  A    between atoms: C12_17  and  C13_18 
ROOT
HETATM    1  C6  UNL     1      27.430   1.409  52.655  1.00  0.00     0.157 A 
HETATM    2  N2  UNL     1      28.403   2.272  52.967  1.00  0.00    -0.222 NA
HETATM    3  C7  UNL     1      29.123   2.173  54.088  1.00  0.00     0.235 A 
HETATM    4  N3  UNL     1      28.874   1.161  54.960  1.00  0.00    -0.252 NA
HETATM    5  C8  UNL     1      27.889   0.278  54.657  1.00  0.00     0.151 A 
HETATM    6  C9  UNL     1      27.141   0.366  53.508  1.00  0.00     0.092 A 
ENDROOT
BRANCH   6   7
HETATM    7  N4  UNL     1      26.127  -0.617  53.311  1.00  0.00    -0.382 N 
HETATM    8  H7  UNL     1      26.147  -1.411  52.630  1.00  0.00     0.160 HD
BRANCH   7   9
HETATM    9  C10 UNL     1      24.901  -0.615  54.078  1.00  0.00     0.147 C 
BRANCH   9  10
HETATM   10  C11 UNL     1      23.706  -0.230  53.287  1.00  0.00    -0.005 C 
HETATM   11  C12 UNL     1      22.979   0.860  53.211  1.00  0.00     0.028 C 
BRANCH  11  12
HETATM   12  C13 UNL     1      21.833   0.940  52.316  1.00  0.00     0.044 C 
HETATM   13  C14 UNL     1      21.611   0.691  51.061  1.00  0.00     0.020 C 
HETATM   14  C15 UNL     1      20.334   0.893  51.087  1.00  0.00     0.103 C 
HETATM   15  N5  UNL     1      20.462   1.328  52.436  1.00  0.00    -0.364 N 
HETATM   16  H13 UNL     1      19.959   1.745  53.270  1.00  0.00     0.165 HD
ENDBRANCH  11  12
ENDBRANCH   9  10
ENDBRANCH   7   9
ENDBRANCH   6   7
BRANCH   1  17
HETATM   17  N1  UNL     1      26.668   1.522  51.464  1.00  0.00    -0.339 N 
HETATM   18  H4  UNL     1      26.524   0.675  50.869  1.00  0.00     0.167 HD
BRANCH  17  19
HETATM   19  C5  UNL     1      26.026   2.653  50.898  1.00  0.00     0.035 A 
HETATM   20  C4  UNL     1      26.580   3.423  49.890  1.00  0.00     0.029 A 
HETATM   21  C3  UNL     1      25.986   4.523  49.328  1.00  0.00     0.004 A 
HETATM   22  C2  UNL     1      24.743   4.924  49.772  1.00  0.00     0.019 A 
HETATM   23  C1  UNL     1      24.126   4.200  50.779  1.00  0.00     0.013 A 
HETATM   24 BR1  UNL     1      22.413   4.781  51.367  1.00  0.00    -0.051 Br
HETATM   25  C16 UNL     1      24.792   3.110  51.287  1.00  0.00     0.048 A 
ENDBRANCH  17  19
ENDBRANCH   1  17
TORSDOF 6
ENDMDL
MODEL 6
REMARK VINA RESULT:      -7.3      3.080      7.392
REMARK  6 active torsions:
REMARK  status: ('A' for Active; 'I' for Inactive)
REMARK    1  A    between atoms: C5_6  and  N1_7 
REMARK    2  A    between atoms: N1_7  and  C6_8 
REMARK    3  A    between atoms: C9_13  and  N4_14 
REMARK    4  A    between atoms: N4_14  and  C10_15 
REMARK    5  A    between atoms: C10_15  and  C11_16 
REMARK    6  A    between atoms: C12_17  and  C13_18 
ROOT
HETATM    1  C6  UNL     1      26.835   2.087  51.907  1.00  0.00     0.157 A 
HETATM    2  N2  UNL     1      28.052   2.374  52.381  1.00  0.00    -0.222 NA
HETATM    3  C7  UNL     1      28.407   2.141  53.648  1.00  0.00     0.235 A 
HETATM    4  N3  UNL     1      27.509   1.588  54.506  1.00  0.00    -0.252 NA
HETATM    5  C8  UNL     1      26.270   1.292  54.039  1.00  0.00     0.151 A 
HETATM    6  C9  UNL     1      25.891   1.526  52.740  1.00  0.00     0.092 A 
ENDROOT
BRANCH   6   7
HETATM    7  N4  UNL     1      24.556   1.181  52.375  1.00  0.00    -0.382 N 
HETATM    8  H7  UNL     1      24.251   0.338  51.835  1.00  0.00     0.160 HD
BRANCH   7   9
HETATM    9  C10 UNL     1      23.427   2.008  52.738  1.00  0.00     0.147 C 
BRANCH   9  10
HETATM   10  C11 UNL     1      22.136   1.278  52.753  1.00  0.00    -0.005 C 
HETATM   11  C12 UNL     1      21.540   0.500  53.627  1.00  0.00     0.028 C 
BRANCH  11  12
HETATM   12  C13 UNL     1      20.237  -0.087  53.347  1.00  0.00     0.044 C 
HETATM   13  C14 UNL     1      19.327   0.056  52.432  1.00  0.00     0.020 C 
HETATM   14  C15 UNL     1      18.557  -0.904  52.830  1.00  0.00     0.103 C 
HETATM   15  N5  UNL     1      19.402  -1.071  53.963  1.00  0.00    -0.364 N 
HETATM   16  H13 UNL     1      19.541  -1.582  54.881  1.00  0.00     0.165 HD
ENDBRANCH  11  12
ENDBRANCH   9  10
ENDBRANCH   7   9
ENDBRANCH   6   7
BRANCH   1  17
HETATM   17  N1  UNL     1      26.465   2.340  50.561  1.00  0.00    -0.339 N 
HETATM   18  H4  UNL     1      26.371   1.537  49.899  1.00  0.00     0.167 HD
BRANCH  17  19
HETATM   19  C5  UNL     1      26.183   3.568  49.910  1.00  0.00     0.035 A 
HETATM   20  C4  UNL     1      24.906   4.083  49.764  1.00  0.00     0.029 A 
HETATM   21  C3  UNL     1      24.605   5.264  49.136  1.00  0.00     0.004 A 
HETATM   22  C2  UNL     1      25.621   6.023  48.595  1.00  0.00     0.019 A 
HETATM   23  C1  UNL     1      26.926   5.570  48.702  1.00  0.00     0.013 A 
HETATM   24 BR1  UNL     1      28.302   6.642  47.943  1.00  0.00    -0.051 Br
HETATM   25  C16 UNL     1      27.140   4.376  49.349  1.00  0.00     0.048 A 
ENDBRANCH  17  19
ENDBRANCH   1  17
TORSDOF 6
ENDMDL
MODEL 7
REMARK VINA RESULT:      -7.2      2.414      5.169
REMARK  6 active torsions:
REMARK  status: ('A' for Active; 'I' for Inactive)
REMARK    1  A    between atoms: C5_6  and  N1_7 
REMARK    2  A    between atoms: N1_7  and  C6_8 
REMARK    3  A    between atoms: C9_13  and  N4_14 
REMARK    4  A    between atoms: N4_14  and  C10_15 
REMARK    5  A    between atoms: C10_15  and  C11_16 
REMARK    6  A    between atoms: C12_17  and  C13_18 
ROOT
HETATM    1  C6  UNL     1      22.957   2.898  51.463  1.00  0.00     0.157 A 
HETATM    2  N2  UNL     1      22.024   3.644  52.065  1.00  0.00    -0.222 NA
HETATM    3  C7  UNL     1      22.037   4.980  52.033  1.00  0.00     0.235 A 
HETATM    4  N3  UNL     1      23.029   5.627  51.365  1.00  0.00    -0.252 NA
HETATM    5  C8  UNL     1      23.983   4.883  50.751  1.00  0.00     0.151 A 
HETATM    6  C9  UNL     1      23.983   3.509  50.775  1.00  0.00     0.092 A 
ENDROOT
BRANCH   6   7
HETATM    7  N4  UNL     1      25.047   2.843  50.099  1.00  0.00    -0.382 N 
HETATM    8  H7  UNL     1      24.959   2.132  49.337  1.00  0.00     0.160 HD
BRANCH   7   9
HETATM    9  C10 UNL     1      26.434   3.101  50.418  1.00  0.00     0.147 C 
BRANCH   9  10
HETATM   10  C11 UNL     1      26.925   2.341  51.593  1.00  0.00    -0.005 C 
HETATM   11  C12 UNL     1      26.613   1.180  52.120  1.00  0.00     0.028 C 
BRANCH  11  12
HETATM   12  C13 UNL     1      27.290   0.686  53.311  1.00  0.00     0.044 C 
HETATM   13  C14 UNL     1      28.300  -0.094  53.553  1.00  0.00     0.020 C 
HETATM   14  C15 UNL     1      28.328   0.085  54.835  1.00  0.00     0.103 C 
HETATM   15  N5  UNL     1      27.132   0.848  54.723  1.00  0.00    -0.364 N 
HETATM   16  H13 UNL     1      26.370   1.358  55.253  1.00  0.00     0.165 HD
ENDBRANCH  11  12
ENDBRANCH   9  10
ENDBRANCH   7   9
ENDBRANCH   6   7
BRANCH   1  17
HETATM   17  N1  UNL     1      22.938   1.481  51.504  1.00  0.00    -0.339 N 
HETATM   18  H4  UNL     1      23.418   0.943  50.747  1.00  0.00     0.167 HD
BRANCH  17  19
HETATM   19  C5  UNL     1      22.344   0.604  52.448  1.00  0.00     0.035 A 
HETATM   20  C4  UNL     1      23.039   0.017  53.491  1.00  0.00     0.029 A 
HETATM   21  C3  UNL     1      22.492  -0.837  54.414  1.00  0.00     0.004 A 
HETATM   22  C2  UNL     1      21.153  -1.159  54.331  1.00  0.00     0.019 A 
HETATM   23  C1  UNL     1      20.394  -0.607  53.312  1.00  0.00     0.013 A 
HETATM   24 BR1  UNL     1      18.552  -1.074  53.227  1.00  0.00    -0.051 Br
HETATM   25  C16 UNL     1      21.022   0.240  52.429  1.00  0.00     0.048 A 
ENDBRANCH  17  19
ENDBRANCH   1  17
TORSDOF 6
ENDMDL
MODEL 8
REMARK VINA RESULT:      -7.1      3.319      7.405
REMARK  6 active torsions:
REMARK  status: ('A' for Active; 'I' for Inactive)
REMARK    1  A    between atoms: C5_6  and  N1_7 
REMARK    2  A    between atoms: N1_7  and  C6_8 
REMARK    3  A    between atoms: C9_13  and  N4_14 
REMARK    4  A    between atoms: N4_14  and  C10_15 
REMARK    5  A    between atoms: C10_15  and  C11_16 
REMARK    6  A    between atoms: C12_17  and  C13_18 
ROOT
HETATM    1  C6  UNL     1      24.970   1.204  53.435  1.00  0.00     0.157 A 
HETATM    2  N2  UNL     1      26.231   1.585  53.672  1.00  0.00    -0.222 NA
HETATM    3  C7  UNL     1      27.154   0.755  54.167  1.00  0.00     0.235 A 
HETATM    4  N3  UNL     1      26.819  -0.532  54.448  1.00  0.00    -0.252 NA
HETATM    5  C8  UNL     1      25.544  -0.932  54.213  1.00  0.00     0.151 A 
HETATM    6  C9  UNL     1      24.584  -0.091  53.703  1.00  0.00     0.092 A 
ENDROOT
BRANCH   6   7
HETATM    7  N4  UNL     1      23.277  -0.628  53.512  1.00  0.00    -0.382 N 
HETATM    8  H7  UNL     1      22.827  -0.874  52.600  1.00  0.00     0.160 HD
BRANCH   7   9
HETATM    9  C10 UNL     1      22.395  -0.905  54.624  1.00  0.00     0.147 C 
BRANCH   9  10
HETATM   10  C11 UNL     1      20.980  -1.101  54.225  1.00  0.00    -0.005 C 
HETATM   11  C12 UNL     1      20.163  -0.456  53.425  1.00  0.00     0.028 C 
BRANCH  11  12
HETATM   12  C13 UNL     1      18.790  -0.902  53.232  1.00  0.00     0.044 C 
HETATM   13  C14 UNL     1      17.893  -0.781  52.300  1.00  0.00     0.020 C 
HETATM   14  C15 UNL     1      17.009  -1.559  52.837  1.00  0.00     0.103 C 
HETATM   15  N5  UNL     1      17.841  -1.660  53.986  1.00  0.00    -0.364 N 
HETATM   16  H13 UNL     1      17.925  -2.038  54.973  1.00  0.00     0.165 HD
ENDBRANCH  11  12
ENDBRANCH   9  10
ENDBRANCH   7   9
ENDBRANCH   6   7
BRANCH   1  17
HETATM   17  N1  UNL     1      23.996   2.092  52.911  1.00  0.00    -0.339 N 
HETATM   18  H4  UNL     1      23.304   2.530  53.560  1.00  0.00     0.167 HD
BRANCH  17  19
HETATM   19  C5  UNL     1      23.775   2.517  51.575  1.00  0.00     0.035 A 
HETATM   20  C4  UNL     1      22.921   1.873  50.697  1.00  0.00     0.029 A 
HETATM   21  C3  UNL     1      22.693   2.259  49.402  1.00  0.00     0.004 A 
HETATM   22  C2  UNL     1      23.344   3.365  48.899  1.00  0.00     0.019 A 
HETATM   23  C1  UNL     1      24.215   4.061  49.721  1.00  0.00     0.013 A 
HETATM   24 BR1  UNL     1      25.097   5.582  48.993  1.00  0.00    -0.051 Br
HETATM   25  C16 UNL     1      24.386   3.606  51.007  1.00  0.00     0.048 A 
ENDBRANCH  17  19
ENDBRANCH   1  17
TORSDOF 6
ENDMDL
MODEL 9
REMARK VINA RESULT:      -7.0      2.563      5.990
REMARK  6 active torsions:
REMARK  status: ('A' for Active; 'I' for Inactive)
REMARK    1  A    between atoms: C5_6  and  N1_7 
REMARK    2  A    between atoms: N1_7  and  C6_8 
REMARK    3  A    between atoms: C9_13  and  N4_14 
REMARK    4  A    between atoms: N4_14  and  C10_15 
REMARK    5  A    between atoms: C10_15  and  C11_16 
REMARK    6  A    between atoms: C12_17  and  C13_18 
ROOT
HETATM    1  C6  UNL     1      23.444   4.857  50.454  1.00  0.00     0.157 A 
HETATM    2  N2  UNL     1      22.514   5.481  49.722  1.00  0.00    -0.222 NA
HETATM    3  C7  UNL     1      22.810   6.170  48.616  1.00  0.00     0.235 A 
HETATM    4  N3  UNL     1      24.102   6.251  48.199  1.00  0.00    -0.252 NA
HETATM    5  C8  UNL     1      25.055   5.624  48.932  1.00  0.00     0.151 A 
HETATM    6  C9  UNL     1      24.767   4.911  50.071  1.00  0.00     0.092 A 
ENDROOT
BRANCH   6   7
HETATM    7  N4  UNL     1      25.860   4.307  50.759  1.00  0.00    -0.382 N 
HETATM    8  H7  UNL     1      26.439   4.736  51.517  1.00  0.00     0.160 HD
BRANCH   7   9
HETATM    9  C10 UNL     1      26.301   2.962  50.460  1.00  0.00     0.147 C 
BRANCH   9  10
HETATM   10  C11 UNL     1      26.860   2.246  51.632  1.00  0.00    -0.005 C 
HETATM   11  C12 UNL     1      26.881   0.987  52.004  1.00  0.00     0.028 C 
BRANCH  11  12
HETATM   12  C13 UNL     1      27.525   0.578  53.245  1.00  0.00     0.044 C 
HETATM   13  C14 UNL     1      28.379  -0.335  53.594  1.00  0.00     0.020 C 
HETATM   14  C15 UNL     1      28.521   0.050  54.821  1.00  0.00     0.103 C 
HETATM   15  N5  UNL     1      27.490   1.006  54.609  1.00  0.00    -0.364 N 
HETATM   16  H13 UNL     1      26.875   1.742  55.059  1.00  0.00     0.165 HD
ENDBRANCH  11  12
ENDBRANCH   9  10
ENDBRANCH   7   9
ENDBRANCH   6   7
BRANCH   1  17
HETATM   17  N1  UNL     1      23.123   4.129  51.628  1.00  0.00    -0.339 N 
HETATM   18  H4  UNL     1      23.153   4.616  52.553  1.00  0.00     0.167 HD
BRANCH  17  19
HETATM   19  C5  UNL     1      22.747   2.770  51.784  1.00  0.00     0.035 A 
HETATM   20  C4  UNL     1      21.703   2.181  51.092  1.00  0.00     0.029 A 
HETATM   21  C3  UNL     1      21.315   0.872  51.226  1.00  0.00     0.004 A 
HETATM   22  C2  UNL     1      21.989   0.052  52.105  1.00  0.00     0.019 A 
HETATM   23  C1  UNL     1      23.046   0.573  52.833  1.00  0.00     0.013 A 
HETATM   24 BR1  UNL     1      23.952  -0.587  54.038  1.00  0.00    -0.051 Br
HETATM   25  C16 UNL     1      23.370   1.896  52.637  1.00  0.00     0.048 A 
ENDBRANCH  17  19
ENDBRANCH   1  17
TORSDOF 6
ENDMDL
