MODEL 1
REMARK VINA RESULT:      -9.4      0.000      0.000
REMARK  4 active torsions:
REMARK  status: ('A' for Active; 'I' for Inactive)
REMARK       I    between atoms: C1_2  and  N1_3 
REMARK    1  A    between atoms: C1_2  and  C16_22 
REMARK    2  A    between atoms: N1_3  and  C2_4 
REMARK    3  A    between atoms: N2_8  and  C6_9 
REMARK    4  A    between atoms: C9_13  and  C10_14 
ROOT
HETATM    1  C2  UNL     1      27.585   5.732  48.698  1.00  0.00     0.041 C 
HETATM    2  C3  UNL     1      26.529   6.466  48.367  1.00  0.00    -0.002 C 
HETATM    3  C4  UNL     1      25.832   6.828  49.434  1.00  0.00     0.008 C 
HETATM    4  C5  UNL     1      25.288   5.676  50.162  1.00  0.00     0.170 C 
HETATM    5  N2  UNL     1      26.034   4.451  49.939  1.00  0.00    -0.205 N 
HETATM    6  C15 UNL     1      27.125   4.372  48.974  1.00  0.00     0.199 C 
ENDROOT
BRANCH   5   7
HETATM    7  C6  UNL     1      25.687   3.294  50.684  1.00  0.00     0.725 A 
HETATM    8  N3  UNL     1      24.418   2.867  50.807  1.00  0.00    -0.075 NA
HETATM    9  C7  UNL     1      24.032   1.799  51.488  1.00  0.00     0.139 A 
HETATM   10  C8  UNL     1      25.031   1.066  52.124  1.00  0.00     0.053 A 
HETATM   11  C9  UNL     1      26.348   1.463  52.029  1.00  0.00     0.089 A 
HETATM   12  N5  UNL     1      26.624   2.563  51.311  1.00  0.00    -0.062 NA
BRANCH  11  13
HETATM   13  C10 UNL     1      27.420   0.722  52.682  1.00  0.00     0.011 A 
HETATM   14  C11 UNL     1      28.535   1.267  53.244  1.00  0.00     0.017 A 
HETATM   15  C12 UNL     1      29.479   0.441  53.834  1.00  0.00     0.020 A 
HETATM   16  C13 UNL     1      29.374  -0.920  53.898  1.00  0.00     0.116 A 
HETATM   17  N4  UNL     1      28.254  -1.454  53.332  1.00  0.00    -0.272 NA
HETATM   18  C14 UNL     1      27.342  -0.654  52.761  1.00  0.00     0.130 A 
ENDBRANCH  11  13
ENDBRANCH   5   7
BRANCH   1  19
HETATM   19  N1  UNL     1      28.885   6.307  48.734  1.00  0.00    -0.324 N 
HETATM   20  C1  UNL     1      30.113   5.761  48.278  1.00  0.00     0.256 C 
HETATM   21  O1  UNL     1      30.023   4.606  47.774  1.00  0.00    -0.267 OA
HETATM   22  H1  UNL     1      28.957   7.261  49.151  1.00  0.00     0.169 HD
BRANCH  20  23
HETATM   23  C16 UNL     1      31.375   6.481  48.385  1.00  0.00     0.032 A 
HETATM   24  C17 UNL     1      31.588   7.834  48.389  1.00  0.00     0.020 A 
HETATM   25  C18 UNL     1      32.842   8.384  48.496  1.00  0.00     0.043 A 
HETATM   26  C19 UNL     1      33.972   7.574  48.608  1.00  0.00     0.116 A 
HETATM   27  F1  UNL     1      35.151   8.234  48.707  1.00  0.00    -0.206 F 
HETATM   28  C20 UNL     1      33.802   6.210  48.609  1.00  0.00     0.043 A 
HETATM   29  C21 UNL     1      32.533   5.703  48.499  1.00  0.00     0.020 A 
ENDBRANCH  20  23
ENDBRANCH   1  19
TORSDOF 4
ENDMDL
MODEL 2
REMARK VINA RESULT:      -9.4      3.723      7.013
REMARK  4 active torsions:
REMARK  status: ('A' for Active; 'I' for Inactive)
REMARK       I    between atoms: C1_2  and  N1_3 
REMARK    1  A    between atoms: C1_2  and  C16_22 
REMARK    2  A    between atoms: N1_3  and  C2_4 
REMARK    3  A    between atoms: N2_8  and  C6_9 
REMARK    4  A    between atoms: C9_13  and  C10_14 
ROOT
HETATM    1  C2  UNL     1      26.481   2.021  52.615  1.00  0.00     0.041 C 
HETATM    2  C3  UNL     1      27.417   1.113  52.862  1.00  0.00    -0.002 C 
HETATM    3  C4  UNL     1      27.180  -0.021  52.219  1.00  0.00     0.008 C 
HETATM    4  C5  UNL     1      25.919  -0.645  52.634  1.00  0.00     0.170 C 
HETATM    5  N2  UNL     1      24.966   0.300  53.189  1.00  0.00    -0.205 N 
HETATM    6  C15 UNL     1      25.308   1.697  53.426  1.00  0.00     0.199 C 
ENDROOT
BRANCH   5   7
HETATM    7  C6  UNL     1      23.661  -0.156  53.511  1.00  0.00     0.725 A 
HETATM    8  N3  UNL     1      23.401  -0.892  54.605  1.00  0.00    -0.075 NA
HETATM    9  C7  UNL     1      22.208  -1.347  54.958  1.00  0.00     0.139 A 
HETATM   10  C8  UNL     1      21.144  -1.029  54.118  1.00  0.00     0.053 A 
HETATM   11  C9  UNL     1      21.357  -0.275  52.983  1.00  0.00     0.089 A 
HETATM   12  N5  UNL     1      22.610   0.132  52.724  1.00  0.00    -0.062 NA
BRANCH  11  13
HETATM   13  C10 UNL     1      20.268   0.076  52.082  1.00  0.00     0.011 A 
HETATM   14  C11 UNL     1      18.943  -0.143  52.313  1.00  0.00     0.017 A 
HETATM   15  C12 UNL     1      18.008   0.243  51.365  1.00  0.00     0.020 A 
HETATM   16  C13 UNL     1      18.322   0.846  50.179  1.00  0.00     0.116 A 
HETATM   17  N4  UNL     1      19.652   1.060  49.959  1.00  0.00    -0.272 NA
HETATM   18  C14 UNL     1      20.555   0.685  50.876  1.00  0.00     0.130 A 
ENDBRANCH  11  13
ENDBRANCH   5   7
BRANCH   1  19
HETATM   19  N1  UNL     1      26.720   3.076  51.694  1.00  0.00    -0.324 N 
HETATM   20  C1  UNL     1      26.004   3.408  50.513  1.00  0.00     0.256 C 
HETATM   21  O1  UNL     1      25.023   2.653  50.261  1.00  0.00    -0.267 OA
HETATM   22  H1  UNL     1      27.531   3.699  51.903  1.00  0.00     0.169 HD
BRANCH  20  23
HETATM   23  C16 UNL     1      26.376   4.532  49.665  1.00  0.00     0.032 A 
HETATM   24  C17 UNL     1      27.542   4.733  48.975  1.00  0.00     0.020 A 
HETATM   25  C18 UNL     1      27.764   5.849  48.207  1.00  0.00     0.043 A 
HETATM   26  C19 UNL     1      26.793   6.845  48.094  1.00  0.00     0.116 A 
HETATM   27  F1  UNL     1      27.129   7.896  47.308  1.00  0.00    -0.206 F 
HETATM   28  C20 UNL     1      25.607   6.683  48.771  1.00  0.00     0.043 A 
HETATM   29  C21 UNL     1      25.428   5.553  49.526  1.00  0.00     0.020 A 
ENDBRANCH  20  23
ENDBRANCH   1  19
TORSDOF 4
ENDMDL
MODEL 3
REMARK VINA RESULT:      -9.3      3.697      7.930
REMARK  4 active torsions:
REMARK  status: ('A' for Active; 'I' for Inactive)
REMARK       I    between atoms: C1_2  and  N1_3 
REMARK    1  A    between atoms: C1_2  and  C16_22 
REMARK    2  A    between atoms: N1_3  and  C2_4 
REMARK    3  A    between atoms: N2_8  and  C6_9 
REMARK    4  A    between atoms: C9_13  and  C10_14 
ROOT
HETATM    1  C2  UNL     1      24.158   2.063  52.877  1.00  0.00     0.041 C 
HETATM    2  C3  UNL     1      23.003   1.495  52.551  1.00  0.00    -0.002 C 
HETATM    3  C4  UNL     1      22.793   1.533  51.244  1.00  0.00     0.008 C 
HETATM    4  C5  UNL     1      22.706   2.905  50.731  1.00  0.00     0.170 C 
HETATM    5  N2  UNL     1      23.390   3.874  51.568  1.00  0.00    -0.205 N 
HETATM    6  C15 UNL     1      23.975   3.513  52.854  1.00  0.00     0.199 C 
ENDROOT
BRANCH   5   7
HETATM    7  C6  UNL     1      23.490   5.217  51.117  1.00  0.00     0.725 A 
HETATM    8  N3  UNL     1      22.447   6.065  51.136  1.00  0.00    -0.075 NA
HETATM    9  C7  UNL     1      22.476   7.325  50.728  1.00  0.00     0.139 A 
HETATM   10  C8  UNL     1      23.693   7.798  50.243  1.00  0.00     0.053 A 
HETATM   11  C9  UNL     1      24.793   6.967  50.203  1.00  0.00     0.089 A 
HETATM   12  N5  UNL     1      24.647   5.707  50.643  1.00  0.00    -0.062 NA
BRANCH  11  13
HETATM   13  C10 UNL     1      26.082   7.428  49.702  1.00  0.00     0.011 A 
HETATM   14  C11 UNL     1      26.851   6.785  48.778  1.00  0.00     0.017 A 
HETATM   15  C12 UNL     1      28.061   7.337  48.390  1.00  0.00     0.020 A 
HETATM   16  C13 UNL     1      28.558   8.514  48.876  1.00  0.00     0.116 A 
HETATM   17  N4  UNL     1      27.780   9.148  49.800  1.00  0.00    -0.272 NA
HETATM   18  C14 UNL     1      26.610   8.612  50.175  1.00  0.00     0.130 A 
ENDBRANCH  11  13
ENDBRANCH   5   7
BRANCH   1  19
HETATM   19  N1  UNL     1      25.298   1.267  53.177  1.00  0.00    -0.324 N 
HETATM   20  C1  UNL     1      26.456   1.038  52.388  1.00  0.00     0.256 C 
HETATM   21  O1  UNL     1      26.461   1.629  51.272  1.00  0.00    -0.267 OA
HETATM   22  H1  UNL     1      25.292   0.779  54.099  1.00  0.00     0.169 HD
BRANCH  20  23
HETATM   23  C16 UNL     1      27.551   0.189  52.838  1.00  0.00     0.032 A 
HETATM   24  C17 UNL     1      27.629  -1.179  52.830  1.00  0.00     0.020 A 
HETATM   25  C18 UNL     1      28.730  -1.858  53.290  1.00  0.00     0.043 A 
HETATM   26  C19 UNL     1      29.836  -1.173  53.793  1.00  0.00     0.116 A 
HETATM   27  F1  UNL     1      30.859  -1.954  54.216  1.00  0.00    -0.206 F 
HETATM   28  C20 UNL     1      29.798   0.201  53.820  1.00  0.00     0.043 A 
HETATM   29  C21 UNL     1      28.679   0.840  53.351  1.00  0.00     0.020 A 
ENDBRANCH  20  23
ENDBRANCH   1  19
TORSDOF 4
ENDMDL
MODEL 4
REMARK VINA RESULT:      -9.3      2.201      3.207
REMARK  4 active torsions:
REMARK  status: ('A' for Active; 'I' for Inactive)
REMARK       I    between atoms: C1_2  and  N1_3 
REMARK    1  A    between atoms: C1_2  and  C16_22 
REMARK    2  A    between atoms: N1_3  and  C2_4 
REMARK    3  A    between atoms: N2_8  and  C6_9 
REMARK    4  A    between atoms: C9_13  and  C10_14 
ROOT
HETATM    1  C2  UNL     1      24.543   4.620  49.862  1.00  0.00     0.041 C 
HETATM    2  C3  UNL     1      23.465   5.289  50.254  1.00  0.00    -0.002 C 
HETATM    3  C4  UNL     1      23.455   5.472  51.566  1.00  0.00     0.008 C 
HETATM    4  C5  UNL     1      23.414   4.206  52.306  1.00  0.00     0.170 C 
HETATM    5  N2  UNL     1      23.938   3.082  51.551  1.00  0.00    -0.205 N 
HETATM    6  C15 UNL     1      24.330   3.203  50.151  1.00  0.00     0.199 C 
ENDROOT
BRANCH   5   7
HETATM    7  C6  UNL     1      24.072   1.826  52.199  1.00  0.00     0.725 A 
HETATM    8  N3  UNL     1      23.017   1.145  52.680  1.00  0.00    -0.075 NA
HETATM    9  C7  UNL     1      23.077  -0.027  53.294  1.00  0.00     0.139 A 
HETATM   10  C8  UNL     1      24.341  -0.590  53.446  1.00  0.00     0.053 A 
HETATM   11  C9  UNL     1      25.455   0.068  52.969  1.00  0.00     0.089 A 
HETATM   12  N5  UNL     1      25.276   1.252  52.363  1.00  0.00    -0.062 NA
BRANCH  11  13
HETATM   13  C10 UNL     1      26.794  -0.491  53.110  1.00  0.00     0.011 A 
HETATM   14  C11 UNL     1      27.909   0.201  53.477  1.00  0.00     0.017 A 
HETATM   15  C12 UNL     1      29.125  -0.458  53.572  1.00  0.00     0.020 A 
HETATM   16  C13 UNL     1      29.297  -1.790  53.319  1.00  0.00     0.116 A 
HETATM   17  N4  UNL     1      28.173  -2.472  52.953  1.00  0.00    -0.272 NA
HETATM   18  C14 UNL     1      26.998  -1.833  52.861  1.00  0.00     0.130 A 
ENDBRANCH  11  13
ENDBRANCH   5   7
BRANCH   1  19
HETATM   19  N1  UNL     1      25.643   5.301  49.272  1.00  0.00    -0.324 N 
HETATM   20  C1  UNL     1      26.951   4.817  49.007  1.00  0.00     0.256 C 
HETATM   21  O1  UNL     1      27.150   3.616  49.346  1.00  0.00    -0.267 OA
HETATM   22  H1  UNL     1      25.478   6.293  48.992  1.00  0.00     0.169 HD
BRANCH  20  23
HETATM   23  C16 UNL     1      27.979   5.645  48.391  1.00  0.00     0.032 A 
HETATM   24  C17 UNL     1      29.309   5.366  48.215  1.00  0.00     0.020 A 
HETATM   25  C18 UNL     1      30.174   6.245  47.613  1.00  0.00     0.043 A 
HETATM   26  C19 UNL     1      29.730   7.483  47.146  1.00  0.00     0.116 A 
HETATM   27  F1  UNL     1      30.678   8.261  46.572  1.00  0.00    -0.206 F 
HETATM   28  C20 UNL     1      28.402   7.802  47.303  1.00  0.00     0.043 A 
HETATM   29  C21 UNL     1      27.572   6.895  47.910  1.00  0.00     0.020 A 
ENDBRANCH  20  23
ENDBRANCH   1  19
TORSDOF 4
ENDMDL
MODEL 5
REMARK VINA RESULT:      -8.7      6.750     10.366
REMARK  4 active torsions:
REMARK  status: ('A' for Active; 'I' for Inactive)
REMARK       I    between atoms: C1_2  and  N1_3 
REMARK    1  A    between atoms: C1_2  and  C16_22 
REMARK    2  A    between atoms: N1_3  and  C2_4 
REMARK    3  A    between atoms: N2_8  and  C6_9 
REMARK    4  A    between atoms: C9_13  and  C10_14 
ROOT
HETATM    1  C2  UNL     1      20.271   0.412  51.933  1.00  0.00     0.041 C 
HETATM    2  C3  UNL     1      20.158  -0.397  52.980  1.00  0.00    -0.002 C 
HETATM    3  C4  UNL     1      20.672   0.146  54.073  1.00  0.00     0.008 C 
HETATM    4  C5  UNL     1      22.109   0.411  53.944  1.00  0.00     0.170 C 
HETATM    5  N2  UNL     1      22.542   0.562  52.567  1.00  0.00    -0.205 N 
HETATM    6  C15 UNL     1      21.645   0.331  51.441  1.00  0.00     0.199 C 
ENDROOT
BRANCH   5   7
HETATM    7  C6  UNL     1      23.885   0.947  52.312  1.00  0.00     0.725 A 
HETATM    8  N3  UNL     1      24.206   2.137  51.775  1.00  0.00    -0.075 NA
HETATM    9  C7  UNL     1      25.436   2.552  51.512  1.00  0.00     0.139 A 
HETATM   10  C8  UNL     1      26.473   1.676  51.823  1.00  0.00     0.053 A 
HETATM   11  C9  UNL     1      26.196   0.444  52.377  1.00  0.00     0.089 A 
HETATM   12  N5  UNL     1      24.911   0.128  52.600  1.00  0.00    -0.062 NA
BRANCH  11  13
HETATM   13  C10 UNL     1      27.255  -0.499  52.715  1.00  0.00     0.011 A 
HETATM   14  C11 UNL     1      28.483  -0.172  53.206  1.00  0.00     0.017 A 
HETATM   15  C12 UNL     1      29.400  -1.173  53.485  1.00  0.00     0.020 A 
HETATM   16  C13 UNL     1      29.158  -2.506  53.301  1.00  0.00     0.116 A 
HETATM   17  N4  UNL     1      27.925  -2.821  52.810  1.00  0.00    -0.272 NA
HETATM   18  C14 UNL     1      27.040  -1.851  52.540  1.00  0.00     0.130 A 
ENDBRANCH  11  13
ENDBRANCH   5   7
BRANCH   1  19
HETATM   19  N1  UNL     1      19.156   1.168  51.477  1.00  0.00    -0.324 N 
HETATM   20  C1  UNL     1      18.828   2.523  51.746  1.00  0.00     0.256 C 
HETATM   21  O1  UNL     1      19.649   3.127  52.493  1.00  0.00    -0.267 OA
HETATM   22  H1  UNL     1      18.479   0.667  50.860  1.00  0.00     0.169 HD
BRANCH  20  23
HETATM   23  C16 UNL     1      17.639   3.161  51.200  1.00  0.00     0.032 A 
HETATM   24  C17 UNL     1      16.582   3.716  51.872  1.00  0.00     0.020 A 
HETATM   25  C18 UNL     1      15.515   4.289  51.225  1.00  0.00     0.043 A 
HETATM   26  C19 UNL     1      15.459   4.331  49.832  1.00  0.00     0.116 A 
HETATM   27  F1  UNL     1      14.356   4.921  49.313  1.00  0.00    -0.206 F 
HETATM   28  C20 UNL     1      16.500   3.784  49.119  1.00  0.00     0.043 A 
HETATM   29  C21 UNL     1      17.546   3.222  49.804  1.00  0.00     0.020 A 
ENDBRANCH  20  23
ENDBRANCH   1  19
TORSDOF 4
ENDMDL
MODEL 6
REMARK VINA RESULT:      -8.6      4.118      8.056
REMARK  4 active torsions:
REMARK  status: ('A' for Active; 'I' for Inactive)
REMARK       I    between atoms: C1_2  and  N1_3 
REMARK    1  A    between atoms: C1_2  and  C16_22 
REMARK    2  A    between atoms: N1_3  and  C2_4 
REMARK    3  A    between atoms: N2_8  and  C6_9 
REMARK    4  A    between atoms: C9_13  and  C10_14 
ROOT
HETATM    1  C2  UNL     1      23.531   1.386  52.932  1.00  0.00     0.041 C 
HETATM    2  C3  UNL     1      22.420   0.661  52.890  1.00  0.00    -0.002 C 
HETATM    3  C4  UNL     1      22.042   0.418  51.644  1.00  0.00     0.008 C 
HETATM    4  C5  UNL     1      21.728   1.646  50.906  1.00  0.00     0.170 C 
HETATM    5  N2  UNL     1      22.393   2.822  51.439  1.00  0.00    -0.205 N 
HETATM    6  C15 UNL     1      23.176   2.780  52.669  1.00  0.00     0.199 C 
ENDROOT
BRANCH   5   7
HETATM    7  C6  UNL     1      22.274   4.051  50.739  1.00  0.00     0.725 A 
HETATM    8  N3  UNL     1      21.106   4.706  50.622  1.00  0.00    -0.075 NA
HETATM    9  C7  UNL     1      20.931   5.853  49.982  1.00  0.00     0.139 A 
HETATM   10  C8  UNL     1      22.057   6.415  49.386  1.00  0.00     0.053 A 
HETATM   11  C9  UNL     1      23.279   5.782  49.478  1.00  0.00     0.089 A 
HETATM   12  N5  UNL     1      23.339   4.623  50.152  1.00  0.00    -0.062 NA
BRANCH  11  13
HETATM   13  C10 UNL     1      24.478   6.341  48.866  1.00  0.00     0.011 A 
HETATM   14  C11 UNL     1      24.503   7.253  47.853  1.00  0.00     0.017 A 
HETATM   15  C12 UNL     1      25.720   7.701  47.364  1.00  0.00     0.020 A 
HETATM   16  C13 UNL     1      26.935   7.287  47.834  1.00  0.00     0.116 A 
HETATM   17  N4  UNL     1      26.896   6.375  48.848  1.00  0.00    -0.272 NA
HETATM   18  C14 UNL     1      25.719   5.942  49.319  1.00  0.00     0.130 A 
ENDBRANCH  11  13
ENDBRANCH   5   7
BRANCH   1  19
HETATM   19  N1  UNL     1      24.786   0.774  53.201  1.00  0.00    -0.324 N 
HETATM   20  C1  UNL     1      25.981   0.820  52.436  1.00  0.00     0.256 C 
HETATM   21  O1  UNL     1      25.904   1.501  51.375  1.00  0.00    -0.267 OA
HETATM   22  H1  UNL     1      24.848   0.211  54.077  1.00  0.00     0.169 HD
BRANCH  20  23
HETATM   23  C16 UNL     1      27.198   0.134  52.849  1.00  0.00     0.032 A 
HETATM   24  C17 UNL     1      27.462  -1.211  52.851  1.00  0.00     0.020 A 
HETATM   25  C18 UNL     1      28.662  -1.727  53.272  1.00  0.00     0.043 A 
HETATM   26  C19 UNL     1      29.684  -0.890  53.722  1.00  0.00     0.116 A 
HETATM   27  F1  UNL     1      30.820  -1.518  54.110  1.00  0.00    -0.206 F 
HETATM   28  C20 UNL     1      29.460   0.466  53.736  1.00  0.00     0.043 A 
HETATM   29  C21 UNL     1      28.247   0.940  53.308  1.00  0.00     0.020 A 
ENDBRANCH  20  23
ENDBRANCH   1  19
TORSDOF 4
ENDMDL
MODEL 7
REMARK VINA RESULT:      -8.5      4.506      8.694
REMARK  4 active torsions:
REMARK  status: ('A' for Active; 'I' for Inactive)
REMARK       I    between atoms: C1_2  and  N1_3 
REMARK    1  A    between atoms: C1_2  and  C16_22 
REMARK    2  A    between atoms: N1_3  and  C2_4 
REMARK    3  A    between atoms: N2_8  and  C6_9 
REMARK    4  A    between atoms: C9_13  and  C10_14 
ROOT
HETATM    1  C2  UNL     1      28.749   8.729  49.085  1.00  0.00     0.041 C 
HETATM    2  C3  UNL     1      28.376   9.966  48.779  1.00  0.00    -0.002 C 
HETATM    3  C4  UNL     1      28.536  10.219  47.488  1.00  0.00     0.008 C 
HETATM    4  C5  UNL     1      29.939  10.125  47.070  1.00  0.00     0.170 C 
HETATM    5  N2  UNL     1      30.739   9.276  47.934  1.00  0.00    -0.205 N 
HETATM    6  C15 UNL     1      30.209   8.700  49.164  1.00  0.00     0.199 C 
ENDROOT
BRANCH   5   7
HETATM    7  C6  UNL     1      32.083   9.000  47.566  1.00  0.00     0.725 A 
HETATM    8  N3  UNL     1      32.983   9.971  47.336  1.00  0.00    -0.075 NA
HETATM    9  C7  UNL     1      34.247   9.778  46.990  1.00  0.00     0.139 A 
HETATM   10  C8  UNL     1      34.665   8.456  46.856  1.00  0.00     0.053 A 
HETATM   11  C9  UNL     1      33.779   7.423  47.082  1.00  0.00     0.089 A 
HETATM   12  N5  UNL     1      32.521   7.737  47.428  1.00  0.00    -0.062 NA
BRANCH  11  13
HETATM   13  C10 UNL     1      34.181   6.029  46.951  1.00  0.00     0.011 A 
HETATM   14  C11 UNL     1      34.231   5.321  45.788  1.00  0.00     0.017 A 
HETATM   15  C12 UNL     1      34.632   3.995  45.807  1.00  0.00     0.020 A 
HETATM   16  C13 UNL     1      34.994   3.320  46.940  1.00  0.00     0.116 A 
HETATM   17  N4  UNL     1      34.940   4.039  48.098  1.00  0.00    -0.272 NA
HETATM   18  C14 UNL     1      34.551   5.321  48.078  1.00  0.00     0.130 A 
ENDBRANCH  11  13
ENDBRANCH   5   7
BRANCH   1  19
HETATM   19  N1  UNL     1      27.780   7.706  49.276  1.00  0.00    -0.324 N 
HETATM   20  C1  UNL     1      27.600   6.502  48.546  1.00  0.00     0.256 C 
HETATM   21  O1  UNL     1      28.420   6.329  47.602  1.00  0.00    -0.267 OA
HETATM   22  H1  UNL     1      27.103   7.851  50.057  1.00  0.00     0.169 HD
BRANCH  20  23
HETATM   23  C16 UNL     1      26.550   5.545  48.868  1.00  0.00     0.032 A 
HETATM   24  C17 UNL     1      25.193   5.730  48.860  1.00  0.00     0.020 A 
HETATM   25  C18 UNL     1      24.310   4.732  49.190  1.00  0.00     0.043 A 
HETATM   26  C19 UNL     1      24.764   3.464  49.553  1.00  0.00     0.116 A 
HETATM   27  F1  UNL     1      23.796   2.566  49.856  1.00  0.00    -0.206 F 
HETATM   28  C20 UNL     1      26.119   3.236  49.574  1.00  0.00     0.043 A 
HETATM   29  C21 UNL     1      26.966   4.260  49.238  1.00  0.00     0.020 A 
ENDBRANCH  20  23
ENDBRANCH   1  19
TORSDOF 4
ENDMDL
MODEL 8
REMARK VINA RESULT:      -8.3     20.642     23.780
REMARK  4 active torsions:
REMARK  status: ('A' for Active; 'I' for Inactive)
REMARK       I    between atoms: C1_2  and  N1_3 
REMARK    1  A    between atoms: C1_2  and  C16_22 
REMARK    2  A    between atoms: N1_3  and  C2_4 
REMARK    3  A    between atoms: N2_8  and  C6_9 
REMARK    4  A    between atoms: C9_13  and  C10_14 
ROOT
HETATM    1  C2  UNL     1      43.920   1.444  68.557  1.00  0.00     0.041 C 
HETATM    2  C3  UNL     1      44.383   1.591  69.792  1.00  0.00    -0.002 C 
HETATM    3  C4  UNL     1      43.735   2.543  70.447  1.00  0.00     0.008 C 
HETATM    4  C5  UNL     1      43.891   3.859  69.818  1.00  0.00     0.170 C 
HETATM    5  N2  UNL     1      44.206   3.785  68.402  1.00  0.00    -0.205 N 
HETATM    6  C15 UNL     1      44.473   2.517  67.732  1.00  0.00     0.199 C 
ENDROOT
BRANCH   5   7
HETATM    7  C6  UNL     1      44.256   4.987  67.650  1.00  0.00     0.725 A 
HETATM    8  N3  UNL     1      43.863   6.171  68.152  1.00  0.00    -0.075 NA
HETATM    9  C7  UNL     1      43.885   7.325  67.501  1.00  0.00     0.139 A 
HETATM   10  C8  UNL     1      44.356   7.296  66.191  1.00  0.00     0.053 A 
HETATM   11  C9  UNL     1      44.771   6.106  65.630  1.00  0.00     0.089 A 
HETATM   12  N5  UNL     1      44.705   4.998  66.383  1.00  0.00    -0.062 NA
BRANCH  11  13
HETATM   13  C10 UNL     1      45.269   6.038  64.262  1.00  0.00     0.011 A 
HETATM   14  C11 UNL     1      45.602   7.105  63.482  1.00  0.00     0.017 A 
HETATM   15  C12 UNL     1      46.064   6.896  62.193  1.00  0.00     0.020 A 
HETATM   16  C13 UNL     1      46.217   5.662  61.624  1.00  0.00     0.116 A 
HETATM   17  N4  UNL     1      45.881   4.602  62.414  1.00  0.00    -0.272 NA
HETATM   18  C14 UNL     1      45.433   4.806  63.661  1.00  0.00     0.130 A 
ENDBRANCH  11  13
ENDBRANCH   5   7
BRANCH   1  19
HETATM   19  N1  UNL     1      43.041   0.373  68.235  1.00  0.00    -0.324 N 
HETATM   20  C1  UNL     1      41.623   0.373  68.170  1.00  0.00     0.256 C 
HETATM   21  O1  UNL     1      41.082   1.483  68.438  1.00  0.00    -0.267 OA
HETATM   22  H1  UNL     1      43.490  -0.543  68.014  1.00  0.00     0.169 HD
BRANCH  20  23
HETATM   23  C16 UNL     1      40.858  -0.816  67.822  1.00  0.00     0.032 A 
HETATM   24  C17 UNL     1      41.095  -2.118  68.176  1.00  0.00     0.020 A 
HETATM   25  C18 UNL     1      40.286  -3.152  67.773  1.00  0.00     0.043 A 
HETATM   26  C19 UNL     1      39.169  -2.917  66.971  1.00  0.00     0.116 A 
HETATM   27  F1  UNL     1      38.451  -4.017  66.639  1.00  0.00    -0.206 F 
HETATM   28  C20 UNL     1      38.895  -1.624  66.592  1.00  0.00     0.043 A 
HETATM   29  C21 UNL     1      39.729  -0.621  67.017  1.00  0.00     0.020 A 
ENDBRANCH  20  23
ENDBRANCH   1  19
TORSDOF 4
ENDMDL
MODEL 9
REMARK VINA RESULT:      -8.3      2.024      2.559
REMARK  4 active torsions:
REMARK  status: ('A' for Active; 'I' for Inactive)
REMARK       I    between atoms: C1_2  and  N1_3 
REMARK    1  A    between atoms: C1_2  and  C16_22 
REMARK    2  A    between atoms: N1_3  and  C2_4 
REMARK    3  A    between atoms: N2_8  and  C6_9 
REMARK    4  A    between atoms: C9_13  and  C10_14 
ROOT
HETATM    1  C2  UNL     1      25.874   6.476  49.423  1.00  0.00     0.041 C 
HETATM    2  C3  UNL     1      24.958   7.434  49.492  1.00  0.00    -0.002 C 
HETATM    3  C4  UNL     1      24.450   7.538  50.711  1.00  0.00     0.008 C 
HETATM    4  C5  UNL     1      23.761   6.314  51.135  1.00  0.00     0.170 C 
HETATM    5  N2  UNL     1      24.227   5.125  50.444  1.00  0.00    -0.205 N 
HETATM    6  C15 UNL     1      25.184   5.190  49.346  1.00  0.00     0.199 C 
ENDROOT
BRANCH   5   7
HETATM    7  C6  UNL     1      23.731   3.859  50.853  1.00  0.00     0.725 A 
HETATM    8  N3  UNL     1      22.591   3.338  50.367  1.00  0.00    -0.075 NA
HETATM    9  C7  UNL     1      22.077   2.166  50.710  1.00  0.00     0.139 A 
HETATM   10  C8  UNL     1      22.785   1.422  51.650  1.00  0.00     0.053 A 
HETATM   11  C9  UNL     1      23.960   1.912  52.179  1.00  0.00     0.089 A 
HETATM   12  N5  UNL     1      24.387   3.113  51.758  1.00  0.00    -0.062 NA
BRANCH  11  13
HETATM   13  C10 UNL     1      24.727   1.162  53.165  1.00  0.00     0.011 A 
HETATM   14  C11 UNL     1      24.425  -0.083  53.628  1.00  0.00     0.017 A 
HETATM   15  C12 UNL     1      25.244  -0.683  54.572  1.00  0.00     0.020 A 
HETATM   16  C13 UNL     1      26.369  -0.103  55.089  1.00  0.00     0.116 A 
HETATM   17  N4  UNL     1      26.661   1.144  54.618  1.00  0.00    -0.272 NA
HETATM   18  C14 UNL     1      25.867   1.722  53.706  1.00  0.00     0.130 A 
ENDBRANCH  11  13
ENDBRANCH   5   7
BRANCH   1  19
HETATM   19  N1  UNL     1      27.260   6.797  49.431  1.00  0.00    -0.324 N 
HETATM   20  C1  UNL     1      28.054   7.340  48.388  1.00  0.00     0.256 C 
HETATM   21  O1  UNL     1      27.432   7.565  47.312  1.00  0.00    -0.267 OA
HETATM   22  H1  UNL     1      27.773   6.610  50.321  1.00  0.00     0.169 HD
BRANCH  20  23
HETATM   23  C16 UNL     1      29.475   7.616  48.553  1.00  0.00     0.032 A 
HETATM   24  C17 UNL     1      30.097   8.827  48.714  1.00  0.00     0.020 A 
HETATM   25  C18 UNL     1      31.457   8.944  48.858  1.00  0.00     0.043 A 
HETATM   26  C19 UNL     1      32.279   7.816  48.847  1.00  0.00     0.116 A 
HETATM   27  F1  UNL     1      33.603   8.062  48.998  1.00  0.00    -0.206 F 
HETATM   28  C20 UNL     1      31.695   6.582  48.687  1.00  0.00     0.043 A 
HETATM   29  C21 UNL     1      30.333   6.510  48.547  1.00  0.00     0.020 A 
ENDBRANCH  20  23
ENDBRANCH   1  19
TORSDOF 4
ENDMDL
