MODEL 1
REMARK VINA RESULT:      -8.5      0.000      0.000
REMARK  2 active torsions:
REMARK  status: ('A' for Active; 'I' for Inactive)
REMARK    1  A    between atoms: C12_15  and  N3_16 
REMARK    2  A    between atoms: N3_16  and  C13_17 
ROOT
HETATM    1  N1  UNL     1      28.292  -0.521  53.315  1.00  0.00    -0.190 NA
HETATM    2  C1  UNL     1      27.503   0.243  52.977  1.00  0.00     0.117 C 
HETATM    3  C2  UNL     1      26.542   1.199  52.540  1.00  0.00     0.141 C 
HETATM    4  N2  UNL     1      26.655   2.059  51.676  1.00  0.00    -0.239 NA
HETATM    5  C3  UNL     1      25.970   3.075  51.048  1.00  0.00     0.065 C 
HETATM    6  C4  UNL     1      26.720   3.634  50.058  1.00  0.00     0.007 C 
HETATM    7  C5  UNL     1      27.252   4.437  48.947  1.00  0.00     0.041 C 
HETATM    8  C6  UNL     1      26.218   5.581  48.630  1.00  0.00     0.098 C 
HETATM    9  C7  UNL     1      24.981   5.086  49.113  1.00  0.00    -0.106 C 
HETATM   10  C8  UNL     1      24.025   4.695  49.506  1.00  0.00    -0.103 C 
HETATM   11  C9  UNL     1      22.800   4.186  50.041  1.00  0.00     0.122 C 
HETATM   12  C10 UNL     1      23.311   3.620  51.409  1.00  0.00    -0.000 C 
HETATM   13  C11 UNL     1      24.616   3.266  51.513  1.00  0.00    -0.006 C 
HETATM   14  P1  UNL     1      24.557   2.918  53.345  1.00  0.00    -0.062 P 
HETATM   15  C12 UNL     1      25.261   1.166  53.220  1.00  0.00     0.174 C 
HETATM   16  H9  UNL     1      25.596   3.695  54.003  1.00  0.00     0.065 HD
ENDROOT
BRANCH  15  17
HETATM   17  N3  UNL     1      24.253   0.378  52.548  1.00  0.00    -0.375 N 
HETATM   18  H11 UNL     1      24.509   0.071  51.567  1.00  0.00     0.160 HD
BRANCH  17  19
HETATM   19  C13 UNL     1      22.976  -0.046  52.998  1.00  0.00     0.030 A 
HETATM   20  C14 UNL     1      22.773  -0.740  54.186  1.00  0.00     0.029 A 
HETATM   21  C15 UNL     1      21.477  -1.089  54.503  1.00  0.00     0.004 A 
HETATM   22  C16 UNL     1      20.374  -0.800  53.729  1.00  0.00     0.019 A 
HETATM   23  C17 UNL     1      20.599  -0.107  52.551  1.00  0.00     0.013 A 
HETATM   24 BR1  UNL     1      19.053   0.280  51.503  1.00  0.00    -0.051 Br
HETATM   25  C18 UNL     1      21.882   0.251  52.215  1.00  0.00     0.048 A 
ENDBRANCH  17  19
ENDBRANCH  15  17
TORSDOF 2
ENDMDL
MODEL 2
REMARK VINA RESULT:      -8.3      2.898      5.804
REMARK  2 active torsions:
REMARK  status: ('A' for Active; 'I' for Inactive)
REMARK    1  A    between atoms: C12_15  and  N3_16 
REMARK    2  A    between atoms: N3_16  and  C13_17 
ROOT
HETATM    1  N1  UNL     1      26.904   4.648  48.939  1.00  0.00    -0.190 NA
HETATM    2  C1  UNL     1      26.149   4.049  49.566  1.00  0.00     0.117 C 
HETATM    3  C2  UNL     1      25.198   3.306  50.322  1.00  0.00     0.141 C 
HETATM    4  N2  UNL     1      24.068   2.959  50.001  1.00  0.00    -0.239 NA
HETATM    5  C3  UNL     1      22.962   2.278  50.460  1.00  0.00     0.065 C 
HETATM    6  C4  UNL     1      22.001   2.200  49.498  1.00  0.00     0.007 C 
HETATM    7  C5  UNL     1      20.790   1.944  48.704  1.00  0.00     0.041 C 
HETATM    8  C6  UNL     1      19.718   1.280  49.646  1.00  0.00     0.098 C 
HETATM    9  C7  UNL     1      20.476   0.686  50.685  1.00  0.00    -0.106 C 
HETATM   10  C8  UNL     1      21.078   0.240  51.498  1.00  0.00    -0.103 C 
HETATM   11  C9  UNL     1      21.868  -0.312  52.555  1.00  0.00     0.122 C 
HETATM   12  C10 UNL     1      22.856   0.877  52.809  1.00  0.00    -0.000 C 
HETATM   13  C11 UNL     1      23.093   1.745  51.796  1.00  0.00    -0.006 C 
HETATM   14  P1  UNL     1      24.112   2.929  52.816  1.00  0.00    -0.062 P 
HETATM   15  C12 UNL     1      25.610   2.926  51.659  1.00  0.00     0.174 C 
HETATM   16  H9  UNL     1      23.544   4.263  52.692  1.00  0.00     0.065 HD
ENDROOT
BRANCH  15  17
HETATM   17  N3  UNL     1      26.179   1.601  51.749  1.00  0.00    -0.375 N 
HETATM   18  H11 UNL     1      25.728   0.878  51.120  1.00  0.00     0.160 HD
BRANCH  17  19
HETATM   19  C13 UNL     1      27.248   1.119  52.550  1.00  0.00     0.030 A 
HETATM   20  C14 UNL     1      28.033   1.938  53.354  1.00  0.00     0.029 A 
HETATM   21  C15 UNL     1      29.037   1.336  54.082  1.00  0.00     0.004 A 
HETATM   22  C16 UNL     1      29.317  -0.013  54.069  1.00  0.00     0.019 A 
HETATM   23  C17 UNL     1      28.522  -0.810  53.261  1.00  0.00     0.013 A 
HETATM   24 BR1  UNL     1      28.933  -2.673  53.266  1.00  0.00    -0.051 Br
HETATM   25  C18 UNL     1      27.516  -0.232  52.527  1.00  0.00     0.048 A 
ENDBRANCH  17  19
ENDBRANCH  15  17
TORSDOF 2
ENDMDL
MODEL 3
REMARK VINA RESULT:      -8.2      3.161      7.300
REMARK  2 active torsions:
REMARK  status: ('A' for Active; 'I' for Inactive)
REMARK    1  A    between atoms: C12_15  and  N3_16 
REMARK    2  A    between atoms: N3_16  and  C13_17 
ROOT
HETATM    1  N1  UNL     1      19.600   5.174  50.009  1.00  0.00    -0.190 NA
HETATM    2  C1  UNL     1      20.419   4.575  50.550  1.00  0.00     0.117 C 
HETATM    3  C2  UNL     1      21.415   3.816  51.227  1.00  0.00     0.141 C 
HETATM    4  N2  UNL     1      21.289   2.771  51.853  1.00  0.00    -0.239 NA
HETATM    5  C3  UNL     1      21.997   1.838  52.577  1.00  0.00     0.065 C 
HETATM    6  C4  UNL     1      21.194   0.810  52.969  1.00  0.00     0.007 C 
HETATM    7  C5  UNL     1      20.618  -0.418  53.536  1.00  0.00     0.041 C 
HETATM    8  C6  UNL     1      21.723  -1.118  54.413  1.00  0.00     0.098 C 
HETATM    9  C7  UNL     1      22.949  -0.639  53.890  1.00  0.00    -0.106 C 
HETATM   10  C8  UNL     1      23.898  -0.247  53.482  1.00  0.00    -0.103 C 
HETATM   11  C9  UNL     1      25.118   0.287  52.960  1.00  0.00     0.122 C 
HETATM   12  C10 UNL     1      24.723   1.797  52.827  1.00  0.00    -0.000 C 
HETATM   13  C11 UNL     1      23.411   2.110  52.692  1.00  0.00    -0.006 C 
HETATM   14  P1  UNL     1      23.658   3.956  52.805  1.00  0.00    -0.062 P 
HETATM   15  C12 UNL     1      22.759   4.360  51.190  1.00  0.00     0.174 C 
HETATM   16  H9  UNL     1      22.800   4.480  53.855  1.00  0.00     0.065 HD
ENDROOT
BRANCH  15  17
HETATM   17  N3  UNL     1      23.585   3.828  50.130  1.00  0.00    -0.375 N 
HETATM   18  H11 UNL     1      23.191   2.973  49.645  1.00  0.00     0.160 HD
BRANCH  17  19
HETATM   19  C13 UNL     1      24.840   4.274  49.640  1.00  0.00     0.030 A 
HETATM   20  C14 UNL     1      25.993   3.497  49.664  1.00  0.00     0.029 A 
HETATM   21  C15 UNL     1      27.144   4.055  49.152  1.00  0.00     0.004 A 
HETATM   22  C16 UNL     1      27.234   5.324  48.621  1.00  0.00     0.019 A 
HETATM   23  C17 UNL     1      26.074   6.081  48.607  1.00  0.00     0.013 A 
HETATM   24 BR1  UNL     1      26.229   7.831  47.864  1.00  0.00    -0.051 Br
HETATM   25  C18 UNL     1      24.915   5.544  49.111  1.00  0.00     0.048 A 
ENDBRANCH  17  19
ENDBRANCH  15  17
TORSDOF 2
ENDMDL
MODEL 4
REMARK VINA RESULT:      -7.7      3.572      7.685
REMARK  2 active torsions:
REMARK  status: ('A' for Active; 'I' for Inactive)
REMARK    1  A    between atoms: C12_15  and  N3_16 
REMARK    2  A    between atoms: N3_16  and  C13_17 
ROOT
HETATM    1  N1  UNL     1      22.229   5.451  46.787  1.00  0.00    -0.190 NA
HETATM    2  C1  UNL     1      22.540   5.013  47.803  1.00  0.00     0.117 C 
HETATM    3  C2  UNL     1      22.908   4.450  49.059  1.00  0.00     0.141 C 
HETATM    4  N2  UNL     1      22.470   3.446  49.606  1.00  0.00    -0.239 NA
HETATM    5  C3  UNL     1      22.598   2.675  50.740  1.00  0.00     0.065 C 
HETATM    6  C4  UNL     1      21.796   1.576  50.679  1.00  0.00     0.007 C 
HETATM    7  C5  UNL     1      21.065   0.324  50.923  1.00  0.00     0.041 C 
HETATM    8  C6  UNL     1      21.382  -0.150  52.390  1.00  0.00     0.098 C 
HETATM    9  C7  UNL     1      22.625   0.455  52.699  1.00  0.00    -0.106 C 
HETATM   10  C8  UNL     1      23.588   0.945  52.932  1.00  0.00    -0.103 C 
HETATM   11  C9  UNL     1      24.822   1.603  53.230  1.00  0.00     0.122 C 
HETATM   12  C10 UNL     1      24.517   3.030  52.660  1.00  0.00    -0.000 C 
HETATM   13  C11 UNL     1      23.586   3.147  51.682  1.00  0.00    -0.006 C 
HETATM   14  P1  UNL     1      23.591   5.013  51.658  1.00  0.00    -0.062 P 
HETATM   15  C12 UNL     1      23.923   5.171  49.802  1.00  0.00     0.174 C 
HETATM   16  H9  UNL     1      22.228   5.488  51.838  1.00  0.00     0.065 HD
ENDROOT
BRANCH  15  17
HETATM   17  N3  UNL     1      25.268   4.683  49.595  1.00  0.00    -0.375 N 
HETATM   18  H11 UNL     1      25.447   3.704  49.956  1.00  0.00     0.160 HD
BRANCH  17  19
HETATM   19  C13 UNL     1      26.384   5.314  48.985  1.00  0.00     0.030 A 
HETATM   20  C14 UNL     1      27.620   4.698  48.827  1.00  0.00     0.029 A 
HETATM   21  C15 UNL     1      28.617   5.427  48.213  1.00  0.00     0.004 A 
HETATM   22  C16 UNL     1      28.476   6.717  47.749  1.00  0.00     0.019 A 
HETATM   23  C17 UNL     1      27.235   7.311  47.917  1.00  0.00     0.013 A 
HETATM   24 BR1  UNL     1      27.069   9.095  47.264  1.00  0.00    -0.051 Br
HETATM   25  C18 UNL     1      26.227   6.603  48.525  1.00  0.00     0.048 A 
ENDBRANCH  17  19
ENDBRANCH  15  17
TORSDOF 2
ENDMDL
MODEL 5
REMARK VINA RESULT:      -7.5      3.364      6.382
REMARK  2 active torsions:
REMARK  status: ('A' for Active; 'I' for Inactive)
REMARK    1  A    between atoms: C12_15  and  N3_16 
REMARK    2  A    between atoms: N3_16  and  C13_17 
ROOT
HETATM    1  N1  UNL     1      28.510   5.224  48.373  1.00  0.00    -0.190 NA
HETATM    2  C1  UNL     1      27.627   4.693  48.882  1.00  0.00     0.117 C 
HETATM    3  C2  UNL     1      26.550   4.018  49.525  1.00  0.00     0.141 C 
HETATM    4  N2  UNL     1      26.589   3.040  50.261  1.00  0.00    -0.239 NA
HETATM    5  C3  UNL     1      25.791   2.195  51.000  1.00  0.00     0.065 C 
HETATM    6  C4  UNL     1      26.541   1.288  51.685  1.00  0.00     0.007 C 
HETATM    7  C5  UNL     1      27.043   0.197  52.535  1.00  0.00     0.041 C 
HETATM    8  C6  UNL     1      25.805  -0.613  53.073  1.00  0.00     0.098 C 
HETATM    9  C7  UNL     1      24.726   0.303  53.013  1.00  0.00    -0.106 C 
HETATM   10  C8  UNL     1      23.890   1.023  52.947  1.00  0.00    -0.103 C 
HETATM   11  C9  UNL     1      22.813   1.957  52.834  1.00  0.00     0.122 C 
HETATM   12  C10 UNL     1      23.108   2.547  51.414  1.00  0.00    -0.000 C 
HETATM   13  C11 UNL     1      24.380   2.499  50.949  1.00  0.00    -0.006 C 
HETATM   14  P1  UNL     1      23.967   3.131  49.243  1.00  0.00    -0.062 P 
HETATM   15  C12 UNL     1      25.225   4.544  49.260  1.00  0.00     0.174 C 
HETATM   16  H9  UNL     1      24.474   2.188  48.257  1.00  0.00     0.065 HD
ENDROOT
BRANCH  15  17
HETATM   17  N3  UNL     1      24.752   5.486  50.250  1.00  0.00    -0.375 N 
HETATM   18  H11 UNL     1      25.280   5.469  51.168  1.00  0.00     0.160 HD
BRANCH  17  19
HETATM   19  C13 UNL     1      23.692   6.427  50.181  1.00  0.00     0.030 A 
HETATM   20  C14 UNL     1      22.561   6.367  50.987  1.00  0.00     0.029 A 
HETATM   21  C15 UNL     1      21.608   7.349  50.816  1.00  0.00     0.004 A 
HETATM   22  C16 UNL     1      21.697   8.380  49.906  1.00  0.00     0.019 A 
HETATM   23  C17 UNL     1      22.833   8.420  49.113  1.00  0.00     0.013 A 
HETATM   24 BR1  UNL     1      22.928   9.859  47.865  1.00  0.00    -0.051 Br
HETATM   25  C18 UNL     1      23.795   7.452  49.267  1.00  0.00     0.048 A 
ENDBRANCH  17  19
ENDBRANCH  15  17
TORSDOF 2
ENDMDL
MODEL 6
REMARK VINA RESULT:      -7.3      4.614      7.667
REMARK  2 active torsions:
REMARK  status: ('A' for Active; 'I' for Inactive)
REMARK    1  A    between atoms: C12_15  and  N3_16 
REMARK    2  A    between atoms: N3_16  and  C13_17 
ROOT
HETATM    1  N1  UNL     1      23.761   7.864  46.194  1.00  0.00    -0.190 NA
HETATM    2  C1  UNL     1      23.559   7.201  47.111  1.00  0.00     0.117 C 
HETATM    3  C2  UNL     1      23.303   6.359  48.231  1.00  0.00     0.141 C 
HETATM    4  N2  UNL     1      22.924   5.195  48.244  1.00  0.00    -0.239 NA
HETATM    5  C3  UNL     1      22.602   4.159  49.092  1.00  0.00     0.065 C 
HETATM    6  C4  UNL     1      22.298   3.030  48.394  1.00  0.00     0.007 C 
HETATM    7  C5  UNL     1      21.922   1.678  47.955  1.00  0.00     0.041 C 
HETATM    8  C6  UNL     1      21.485   0.855  49.224  1.00  0.00     0.098 C 
HETATM    9  C7  UNL     1      22.130   1.500  50.307  1.00  0.00    -0.106 C 
HETATM   10  C8  UNL     1      22.628   2.022  51.145  1.00  0.00    -0.103 C 
HETATM   11  C9  UNL     1      23.258   2.721  52.222  1.00  0.00     0.122 C 
HETATM   12  C10 UNL     1      22.952   4.200  51.807  1.00  0.00    -0.000 C 
HETATM   13  C11 UNL     1      22.730   4.469  50.497  1.00  0.00    -0.006 C 
HETATM   14  P1  UNL     1      22.248   6.251  50.764  1.00  0.00    -0.062 P 
HETATM   15  C12 UNL     1      23.497   6.964  49.535  1.00  0.00     0.174 C 
HETATM   16  H9  UNL     1      20.947   6.482  50.155  1.00  0.00     0.065 HD
ENDROOT
BRANCH  15  17
HETATM   17  N3  UNL     1      24.802   6.728  50.110  1.00  0.00    -0.375 N 
HETATM   18  H11 UNL     1      24.895   6.998  51.129  1.00  0.00     0.160 HD
BRANCH  17  19
HETATM   19  C13 UNL     1      25.975   6.190  49.519  1.00  0.00     0.030 A 
HETATM   20  C14 UNL     1      26.275   4.833  49.509  1.00  0.00     0.029 A 
HETATM   21  C15 UNL     1      27.450   4.448  48.898  1.00  0.00     0.004 A 
HETATM   22  C16 UNL     1      28.344   5.309  48.300  1.00  0.00     0.019 A 
HETATM   23  C17 UNL     1      28.024   6.658  48.321  1.00  0.00     0.013 A 
HETATM   24 BR1  UNL     1      29.279   7.825  47.484  1.00  0.00    -0.051 Br
HETATM   25  C18 UNL     1      26.859   7.064  48.925  1.00  0.00     0.048 A 
ENDBRANCH  17  19
ENDBRANCH  15  17
TORSDOF 2
ENDMDL
MODEL 7
REMARK VINA RESULT:      -7.2      2.543      5.438
REMARK  2 active torsions:
REMARK  status: ('A' for Active; 'I' for Inactive)
REMARK    1  A    between atoms: C12_15  and  N3_16 
REMARK    2  A    between atoms: N3_16  and  C13_17 
ROOT
HETATM    1  N1  UNL     1      19.836  -0.470  53.492  1.00  0.00    -0.190 NA
HETATM    2  C1  UNL     1      20.751   0.128  53.138  1.00  0.00     0.117 C 
HETATM    3  C2  UNL     1      21.900   0.855  52.714  1.00  0.00     0.141 C 
HETATM    4  N2  UNL     1      23.060   0.742  53.091  1.00  0.00    -0.239 NA
HETATM    5  C3  UNL     1      24.326   1.249  52.901  1.00  0.00     0.065 C 
HETATM    6  C4  UNL     1      25.242   0.577  53.652  1.00  0.00     0.007 C 
HETATM    7  C5  UNL     1      26.452   0.072  54.318  1.00  0.00     0.041 C 
HETATM    8  C6  UNL     1      27.649   1.024  53.944  1.00  0.00     0.098 C 
HETATM    9  C7  UNL     1      27.258   1.628  52.724  1.00  0.00    -0.106 C 
HETATM   10  C8  UNL     1      26.933   2.102  51.780  1.00  0.00    -0.103 C 
HETATM   11  C9  UNL     1      26.491   2.727  50.572  1.00  0.00     0.122 C 
HETATM   12  C10 UNL     1      25.008   3.053  50.957  1.00  0.00    -0.000 C 
HETATM   13  C11 UNL     1      24.412   2.302  51.915  1.00  0.00    -0.006 C 
HETATM   14  P1  UNL     1      22.856   3.328  51.998  1.00  0.00    -0.062 P 
HETATM   15  C12 UNL     1      21.668   1.882  51.717  1.00  0.00     0.174 C 
HETATM   16  H9  UNL     1      22.635   3.734  53.378  1.00  0.00     0.065 HD
ENDROOT
BRANCH  15  17
HETATM   17  N3  UNL     1      21.885   1.446  50.356  1.00  0.00    -0.375 N 
HETATM   18  H11 UNL     1      22.345   0.497  50.260  1.00  0.00     0.160 HD
BRANCH  17  19
HETATM   19  C13 UNL     1      21.580   2.094  49.131  1.00  0.00     0.030 A 
HETATM   20  C14 UNL     1      22.539   2.437  48.185  1.00  0.00     0.029 A 
HETATM   21  C15 UNL     1      22.101   3.061  47.036  1.00  0.00     0.004 A 
HETATM   22  C16 UNL     1      20.786   3.370  46.761  1.00  0.00     0.019 A 
HETATM   23  C17 UNL     1      19.847   3.020  47.718  1.00  0.00     0.013 A 
HETATM   24 BR1  UNL     1      18.037   3.458  47.309  1.00  0.00    -0.051 Br
HETATM   25  C18 UNL     1      20.261   2.396  48.870  1.00  0.00     0.048 A 
ENDBRANCH  17  19
ENDBRANCH  15  17
TORSDOF 2
ENDMDL
MODEL 8
REMARK VINA RESULT:      -7.2      3.291      6.853
REMARK  2 active torsions:
REMARK  status: ('A' for Active; 'I' for Inactive)
REMARK    1  A    between atoms: C12_15  and  N3_16 
REMARK    2  A    between atoms: N3_16  and  C13_17 
ROOT
HETATM    1  N1  UNL     1      18.683   3.193  51.846  1.00  0.00    -0.190 NA
HETATM    2  C1  UNL     1      19.798   2.932  51.951  1.00  0.00     0.117 C 
HETATM    3  C2  UNL     1      21.173   2.590  52.096  1.00  0.00     0.141 C 
HETATM    4  N2  UNL     1      21.674   1.706  52.780  1.00  0.00    -0.239 NA
HETATM    5  C3  UNL     1      22.882   1.142  53.124  1.00  0.00     0.065 C 
HETATM    6  C4  UNL     1      22.707   0.067  53.942  1.00  0.00     0.007 C 
HETATM    7  C5  UNL     1      22.862  -1.107  54.813  1.00  0.00     0.041 C 
HETATM    8  C6  UNL     1      24.399  -1.325  55.073  1.00  0.00     0.098 C 
HETATM    9  C7  UNL     1      25.038  -0.702  53.973  1.00  0.00    -0.106 C 
HETATM   10  C8  UNL     1      25.524  -0.199  53.117  1.00  0.00    -0.103 C 
HETATM   11  C9  UNL     1      26.142   0.475  52.017  1.00  0.00     0.122 C 
HETATM   12  C10 UNL     1      25.286   1.787  51.983  1.00  0.00    -0.000 C 
HETATM   13  C11 UNL     1      24.032   1.751  52.497  1.00  0.00    -0.006 C 
HETATM   14  P1  UNL     1      23.722   3.583  52.329  1.00  0.00    -0.062 P 
HETATM   15  C12 UNL     1      22.111   3.408  51.352  1.00  0.00     0.174 C 
HETATM   16  H9  UNL     1      23.322   4.112  53.624  1.00  0.00     0.065 HD
ENDROOT
BRANCH  15  17
HETATM   17  N3  UNL     1      22.482   2.863  50.066  1.00  0.00    -0.375 N 
HETATM   18  H11 UNL     1      22.944   1.910  50.102  1.00  0.00     0.160 HD
BRANCH  17  19
HETATM   19  C13 UNL     1      22.325   3.407  48.765  1.00  0.00     0.030 A 
HETATM   20  C14 UNL     1      21.801   2.692  47.694  1.00  0.00     0.029 A 
HETATM   21  C15 UNL     1      21.701   3.345  46.484  1.00  0.00     0.004 A 
HETATM   22  C16 UNL     1      22.084   4.650  46.261  1.00  0.00     0.019 A 
HETATM   23  C17 UNL     1      22.604   5.344  47.343  1.00  0.00     0.013 A 
HETATM   24 BR1  UNL     1      23.122   7.148  47.005  1.00  0.00    -0.051 Br
HETATM   25  C18 UNL     1      22.711   4.713  48.558  1.00  0.00     0.048 A 
ENDBRANCH  17  19
ENDBRANCH  15  17
TORSDOF 2
ENDMDL
MODEL 9
REMARK VINA RESULT:      -7.1      3.988      7.348
REMARK  2 active torsions:
REMARK  status: ('A' for Active; 'I' for Inactive)
REMARK    1  A    between atoms: C12_15  and  N3_16 
REMARK    2  A    between atoms: N3_16  and  C13_17 
ROOT
HETATM    1  N1  UNL     1      16.580  -0.247  50.628  1.00  0.00    -0.190 NA
HETATM    2  C1  UNL     1      17.642   0.070  50.934  1.00  0.00     0.117 C 
HETATM    3  C2  UNL     1      18.958   0.442  51.331  1.00  0.00     0.141 C 
HETATM    4  N2  UNL     1      19.674  -0.067  52.185  1.00  0.00    -0.239 NA
HETATM    5  C3  UNL     1      20.913   0.037  52.777  1.00  0.00     0.065 C 
HETATM    6  C4  UNL     1      21.110  -0.962  53.680  1.00  0.00     0.007 C 
HETATM    7  C5  UNL     1      21.628  -1.887  54.699  1.00  0.00     0.041 C 
HETATM    8  C6  UNL     1      23.004  -1.324  55.218  1.00  0.00     0.098 C 
HETATM    9  C7  UNL     1      23.473  -0.502  54.164  1.00  0.00    -0.106 C 
HETATM   10  C8  UNL     1      23.820   0.147  53.340  1.00  0.00    -0.103 C 
HETATM   11  C9  UNL     1      24.246   1.002  52.275  1.00  0.00     0.122 C 
HETATM   12  C10 UNL     1      22.899   1.732  51.953  1.00  0.00    -0.000 C 
HETATM   13  C11 UNL     1      21.737   1.108  52.266  1.00  0.00    -0.006 C 
HETATM   14  P1  UNL     1      20.640   2.554  51.834  1.00  0.00    -0.062 P 
HETATM   15  C12 UNL     1      19.525   1.589  50.648  1.00  0.00     0.174 C 
HETATM   16  H9  UNL     1      19.795   2.861  52.979  1.00  0.00     0.065 HD
ENDROOT
BRANCH  15  17
HETATM   17  N3  UNL     1      20.349   1.254  49.510  1.00  0.00    -0.375 N 
HETATM   18  H11 UNL     1      20.698   0.254  49.491  1.00  0.00     0.160 HD
BRANCH  17  19
HETATM   19  C13 UNL     1      20.765   2.057  48.416  1.00  0.00     0.030 A 
HETATM   20  C14 UNL     1      22.075   2.105  47.954  1.00  0.00     0.029 A 
HETATM   21  C15 UNL     1      22.339   2.927  46.879  1.00  0.00     0.004 A 
HETATM   22  C16 UNL     1      21.400   3.704  46.234  1.00  0.00     0.019 A 
HETATM   23  C17 UNL     1      20.100   3.641  46.712  1.00  0.00     0.013 A 
HETATM   24 BR1  UNL     1      18.824   4.724  45.798  1.00  0.00    -0.051 Br
HETATM   25  C18 UNL     1      19.815   2.827  47.781  1.00  0.00     0.048 A 
ENDBRANCH  17  19
ENDBRANCH  15  17
TORSDOF 2
ENDMDL
