MODEL 1
REMARK VINA RESULT:      -9.3      0.000      0.000
REMARK  5 active torsions:
REMARK  status: ('A' for Active; 'I' for Inactive)
REMARK    1  A    between atoms: C4_4  and  C5_5 
REMARK       I    between atoms: C5_5  and  N1_7 
REMARK    2  A    between atoms: N1_7  and  C6_8 
REMARK    3  A    between atoms: C11_15  and  N4_16 
REMARK    4  A    between atoms: N4_16  and  C12_17 
REMARK    5  A    between atoms: N5_30  and  O2_31 
ROOT
HETATM    1  C6  UNL     1      24.021   2.841  50.225  1.00  0.00     0.035 A 
HETATM    2  C7  UNL     1      22.806   2.360  49.779  1.00  0.00     0.032 A 
HETATM    3  C8  UNL     1      22.194   1.376  50.522  1.00  0.00     0.035 A 
HETATM    4  C9  UNL     1      22.797   0.906  51.667  1.00  0.00     0.072 A 
HETATM    5  N2  UNL     1      22.131  -0.062  52.341  1.00  0.00    -0.241 NA
HETATM    6  C10 UNL     1      22.658  -0.558  53.451  1.00  0.00     0.236 A 
HETATM    7  N3  UNL     1      23.817  -0.084  53.857  1.00  0.00    -0.224 NA
HETATM    8  C11 UNL     1      24.572   0.860  53.293  1.00  0.00     0.142 A 
HETATM    9  C18 UNL     1      24.007   1.352  52.154  1.00  0.00     0.041 A 
HETATM   10  C19 UNL     1      24.567   2.334  51.367  1.00  0.00     0.047 A 
ENDROOT
BRANCH   1  11
HETATM   11  N1  UNL     1      24.625   3.857  49.433  1.00  0.00    -0.327 N 
HETATM   12  C5  UNL     1      24.474   5.152  49.996  1.00  0.00     0.226 C 
HETATM   13  O1  UNL     1      23.895   5.483  51.064  1.00  0.00    -0.273 OA
HETATM   14  H8  UNL     1      25.147   3.768  48.522  1.00  0.00     0.169 HD
BRANCH  12  15
HETATM   15  C4  UNL     1      25.033   6.350  49.324  1.00  0.00     0.082 C 
HETATM   16  C3  UNL     1      24.213   6.663  48.091  1.00  0.00     0.041 C 
HETATM   17  C2  UNL     1      24.687   7.975  47.519  1.00  0.00     0.106 C 
HETATM   18  C1  UNL     1      23.981   9.096  48.256  1.00  0.00     0.034 C 
HETATM   19  N5  UNL     1      26.084   8.133  47.400  1.00  0.00    -0.283 N 
HETATM   20  C21 UNL     1      26.926   7.515  48.353  1.00  0.00     0.048 C 
HETATM   21  C20 UNL     1      26.455   6.147  48.833  1.00  0.00     0.046 C 
HETATM   22  C22 UNL     1      28.266   7.229  47.658  1.00  0.00     0.040 C 
HETATM   23  C23 UNL     1      27.278   8.386  49.540  1.00  0.00     0.040 C 
BRANCH  19  24
HETATM   24  O2  UNL     1      26.575   8.276  46.166  1.00  0.00    -0.291 OA
HETATM   25  H26 UNL     1      25.930   7.895  45.504  1.00  0.00     0.244 HD
ENDBRANCH  19  24
ENDBRANCH  12  15
ENDBRANCH   1  11
BRANCH   8  26
HETATM   26  N4  UNL     1      25.814   1.361  53.736  1.00  0.00    -0.340 N 
HETATM   27  H12 UNL     1      25.892   2.284  54.197  1.00  0.00     0.167 HD
BRANCH  26  28
HETATM   28  C12 UNL     1      27.082   0.743  53.642  1.00  0.00     0.035 A 
HETATM   29  C13 UNL     1      28.260   1.431  53.793  1.00  0.00     0.029 A 
HETATM   30  C14 UNL     1      29.507   0.862  53.707  1.00  0.00     0.004 A 
HETATM   31  C15 UNL     1      29.644  -0.478  53.454  1.00  0.00     0.024 A 
HETATM   32  C16 UNL     1      28.491  -1.213  53.293  1.00  0.00     0.036 A 
HETATM   33 CL1  UNL     1      28.585  -2.920  52.969  1.00  0.00    -0.084 Cl
HETATM   34  C17 UNL     1      27.279  -0.595  53.389  1.00  0.00     0.053 A 
ENDBRANCH  26  28
ENDBRANCH   8  26
TORSDOF 5
ENDMDL
MODEL 2
REMARK VINA RESULT:      -9.3      2.246      3.175
REMARK  5 active torsions:
REMARK  status: ('A' for Active; 'I' for Inactive)
REMARK    1  A    between atoms: C4_4  and  C5_5 
REMARK       I    between atoms: C5_5  and  N1_7 
REMARK    2  A    between atoms: N1_7  and  C6_8 
REMARK    3  A    between atoms: C11_15  and  N4_16 
REMARK    4  A    between atoms: N4_16  and  C12_17 
REMARK    5  A    between atoms: N5_30  and  O2_31 
ROOT
HETATM    1  C6  UNL     1      25.438   5.053  49.566  1.00  0.00     0.035 A 
HETATM    2  C7  UNL     1      24.335   4.952  48.742  1.00  0.00     0.032 A 
HETATM    3  C8  UNL     1      23.423   3.955  49.009  1.00  0.00     0.035 A 
HETATM    4  C9  UNL     1      23.632   3.102  50.069  1.00  0.00     0.072 A 
HETATM    5  N2  UNL     1      22.690   2.148  50.264  1.00  0.00    -0.241 NA
HETATM    6  C10 UNL     1      22.832   1.295  51.268  1.00  0.00     0.236 A 
HETATM    7  N3  UNL     1      23.891   1.410  52.041  1.00  0.00    -0.224 NA
HETATM    8  C11 UNL     1      24.885   2.296  51.960  1.00  0.00     0.142 A 
HETATM    9  C18 UNL     1      24.715   3.161  50.920  1.00  0.00     0.041 A 
HETATM   10  C19 UNL     1      25.587   4.178  50.600  1.00  0.00     0.047 A 
ENDROOT
BRANCH   1  11
HETATM   11  N1  UNL     1      26.358   6.095  49.261  1.00  0.00    -0.327 N 
HETATM   12  C5  UNL     1      27.584   5.607  48.736  1.00  0.00     0.226 C 
HETATM   13  O1  UNL     1      27.928   4.415  48.521  1.00  0.00    -0.273 OA
HETATM   14  H8  UNL     1      26.244   7.137  49.373  1.00  0.00     0.169 HD
BRANCH  12  15
HETATM   15  C4  UNL     1      28.678   6.532  48.355  1.00  0.00     0.082 C 
HETATM   16  C3  UNL     1      28.227   7.389  47.191  1.00  0.00     0.041 C 
HETATM   17  C2  UNL     1      29.281   8.435  46.928  1.00  0.00     0.106 C 
HETATM   18  C1  UNL     1      29.035   9.602  47.864  1.00  0.00     0.034 C 
HETATM   19  N5  UNL     1      30.616   7.978  46.892  1.00  0.00    -0.283 N 
HETATM   20  C21 UNL     1      30.990   6.892  47.718  1.00  0.00     0.048 C 
HETATM   21  C20 UNL     1      29.926   5.813  47.878  1.00  0.00     0.046 C 
HETATM   22  C22 UNL     1      32.156   6.173  47.022  1.00  0.00     0.040 C 
HETATM   23  C23 UNL     1      31.530   7.292  49.075  1.00  0.00     0.040 C 
BRANCH  19  24
HETATM   24  O2  UNL     1      31.269   8.106  45.734  1.00  0.00    -0.291 OA
HETATM   25  H26 UNL     1      32.029   7.455  45.706  1.00  0.00     0.244 HD
ENDBRANCH  19  24
ENDBRANCH  12  15
ENDBRANCH   1  11
BRANCH   8  26
HETATM   26  N4  UNL     1      26.018   2.411  52.793  1.00  0.00    -0.340 N 
HETATM   27  H12 UNL     1      26.214   3.279  53.323  1.00  0.00     0.167 HD
BRANCH  26  28
HETATM   28  C12 UNL     1      27.016   1.441  53.041  1.00  0.00     0.035 A 
HETATM   29  C13 UNL     1      28.246   1.752  53.562  1.00  0.00     0.029 A 
HETATM   30  C14 UNL     1      29.237   0.835  53.814  1.00  0.00     0.004 A 
HETATM   31  C15 UNL     1      29.039  -0.494  53.544  1.00  0.00     0.024 A 
HETATM   32  C16 UNL     1      27.819  -0.858  53.019  1.00  0.00     0.036 A 
HETATM   33 CL1  UNL     1      27.493  -2.528  52.652  1.00  0.00    -0.084 Cl
HETATM   34  C17 UNL     1      26.871   0.095  52.790  1.00  0.00     0.053 A 
ENDBRANCH  26  28
ENDBRANCH   8  26
TORSDOF 5
ENDMDL
MODEL 3
REMARK VINA RESULT:      -9.2      2.837      8.292
REMARK  5 active torsions:
REMARK  status: ('A' for Active; 'I' for Inactive)
REMARK    1  A    between atoms: C4_4  and  C5_5 
REMARK       I    between atoms: C5_5  and  N1_7 
REMARK    2  A    between atoms: N1_7  and  C6_8 
REMARK    3  A    between atoms: C11_15  and  N4_16 
REMARK    4  A    between atoms: N4_16  and  C12_17 
REMARK    5  A    between atoms: N5_30  and  O2_31 
ROOT
HETATM    1  C6  UNL     1      25.562   4.166  49.366  1.00  0.00     0.035 A 
HETATM    2  C7  UNL     1      24.276   4.457  48.958  1.00  0.00     0.032 A 
HETATM    3  C8  UNL     1      24.042   5.699  48.409  1.00  0.00     0.035 A 
HETATM    4  C9  UNL     1      25.077   6.598  48.285  1.00  0.00     0.072 A 
HETATM    5  N2  UNL     1      24.765   7.797  47.735  1.00  0.00    -0.241 NA
HETATM    6  C10 UNL     1      25.715   8.708  47.587  1.00  0.00     0.236 A 
HETATM    7  N3  UNL     1      26.935   8.408  47.983  1.00  0.00    -0.224 NA
HETATM    8  C11 UNL     1      27.374   7.275  48.535  1.00  0.00     0.142 A 
HETATM    9  C18 UNL     1      26.376   6.356  48.676  1.00  0.00     0.041 A 
HETATM   10  C19 UNL     1      26.543   5.100  49.216  1.00  0.00     0.047 A 
ENDROOT
BRANCH   1  11
HETATM   11  N1  UNL     1      25.767   2.875  49.928  1.00  0.00    -0.327 N 
HETATM   12  C5  UNL     1      25.205   2.746  51.226  1.00  0.00     0.226 C 
HETATM   13  O1  UNL     1      24.577   3.605  51.899  1.00  0.00    -0.273 OA
HETATM   14  H8  UNL     1      26.264   2.041  49.516  1.00  0.00     0.169 HD
BRANCH  12  15
HETATM   15  C4  UNL     1      25.311   1.477  51.985  1.00  0.00     0.082 C 
HETATM   16  C3  UNL     1      24.364   1.518  53.165  1.00  0.00     0.041 C 
HETATM   17  C2  UNL     1      24.358   0.161  53.823  1.00  0.00     0.106 C 
HETATM   18  C1  UNL     1      23.374  -0.722  53.082  1.00  0.00     0.034 C 
HETATM   19  N5  UNL     1      25.621  -0.424  54.052  1.00  0.00    -0.283 N 
HETATM   20  C21 UNL     1      26.671  -0.165  53.140  1.00  0.00     0.048 C 
HETATM   21  C20 UNL     1      26.691   1.249  52.572  1.00  0.00     0.046 C 
HETATM   22  C22 UNL     1      27.990  -0.278  53.921  1.00  0.00     0.040 C 
HETATM   23  C23 UNL     1      26.793  -1.175  52.018  1.00  0.00     0.040 C 
BRANCH  19  24
HETATM   24  O2  UNL     1      25.969  -0.639  55.324  1.00  0.00    -0.291 OA
HETATM   25  H26 UNL     1      25.828   0.197  55.854  1.00  0.00     0.244 HD
ENDBRANCH  19  24
ENDBRANCH  12  15
ENDBRANCH   1  11
BRANCH   8  26
HETATM   26  N4  UNL     1      28.683   6.964  48.957  1.00  0.00    -0.340 N 
HETATM   27  H12 UNL     1      28.930   6.914  49.961  1.00  0.00     0.167 HD
BRANCH  26  28
HETATM   28  C12 UNL     1      29.811   6.683  48.152  1.00  0.00     0.035 A 
HETATM   29  C13 UNL     1      30.315   7.574  47.238  1.00  0.00     0.029 A 
HETATM   30  C14 UNL     1      31.408   7.332  46.441  1.00  0.00     0.004 A 
HETATM   31  C15 UNL     1      32.077   6.139  46.522  1.00  0.00     0.024 A 
HETATM   32  C16 UNL     1      31.609   5.211  47.425  1.00  0.00     0.036 A 
HETATM   33 CL1  UNL     1      32.407   3.672  47.584  1.00  0.00    -0.084 Cl
HETATM   34  C17 UNL     1      30.520   5.504  48.191  1.00  0.00     0.053 A 
ENDBRANCH  26  28
ENDBRANCH   8  26
TORSDOF 5
ENDMDL
MODEL 4
REMARK VINA RESULT:      -9.1      4.258      6.489
REMARK  5 active torsions:
REMARK  status: ('A' for Active; 'I' for Inactive)
REMARK    1  A    between atoms: C4_4  and  C5_5 
REMARK       I    between atoms: C5_5  and  N1_7 
REMARK    2  A    between atoms: N1_7  and  C6_8 
REMARK    3  A    between atoms: C11_15  and  N4_16 
REMARK    4  A    between atoms: N4_16  and  C12_17 
REMARK    5  A    between atoms: N5_30  and  O2_31 
ROOT
HETATM    1  C6  UNL     1      28.416   5.576  48.197  1.00  0.00     0.035 A 
HETATM    2  C7  UNL     1      27.870   6.813  47.916  1.00  0.00     0.032 A 
HETATM    3  C8  UNL     1      26.606   7.079  48.394  1.00  0.00     0.035 A 
HETATM    4  C9  UNL     1      25.934   6.124  49.123  1.00  0.00     0.072 A 
HETATM    5  N2  UNL     1      24.696   6.464  49.556  1.00  0.00    -0.241 NA
HETATM    6  C10 UNL     1      23.995   5.590  50.264  1.00  0.00     0.236 A 
HETATM    7  N3  UNL     1      24.536   4.417  50.520  1.00  0.00    -0.224 NA
HETATM    8  C11 UNL     1      25.735   3.959  50.156  1.00  0.00     0.142 A 
HETATM    9  C18 UNL     1      26.434   4.877  49.430  1.00  0.00     0.041 A 
HETATM   10  C19 UNL     1      27.699   4.674  48.925  1.00  0.00     0.047 A 
ENDROOT
BRANCH   1  11
HETATM   11  N1  UNL     1      29.723   5.335  47.689  1.00  0.00    -0.327 N 
HETATM   12  C5  UNL     1      30.700   6.193  48.260  1.00  0.00     0.226 C 
HETATM   13  O1  UNL     1      30.545   7.097  49.122  1.00  0.00    -0.273 OA
HETATM   14  H8  UNL     1      30.038   4.629  46.972  1.00  0.00     0.169 HD
BRANCH  12  15
HETATM   15  C4  UNL     1      32.126   6.102  47.863  1.00  0.00     0.082 C 
HETATM   16  C3  UNL     1      32.252   6.372  46.379  1.00  0.00     0.041 C 
HETATM   17  C2  UNL     1      33.717   6.444  46.027  1.00  0.00     0.106 C 
HETATM   18  C1  UNL     1      34.203   7.851  46.309  1.00  0.00     0.034 C 
HETATM   19  N5  UNL     1      34.534   5.420  46.551  1.00  0.00    -0.283 N 
HETATM   20  C21 UNL     1      34.210   4.863  47.810  1.00  0.00     0.048 C 
HETATM   21  C20 UNL     1      32.718   4.722  48.083  1.00  0.00     0.046 C 
HETATM   22  C22 UNL     1      34.733   3.418  47.816  1.00  0.00     0.040 C 
HETATM   23  C23 UNL     1      34.890   5.531  48.986  1.00  0.00     0.040 C 
BRANCH  19  24
HETATM   24  O2  UNL     1      35.132   4.612  45.672  1.00  0.00    -0.291 OA
HETATM   25  H26 UNL     1      35.670   3.926  46.162  1.00  0.00     0.244 HD
ENDBRANCH  19  24
ENDBRANCH  12  15
ENDBRANCH   1  11
BRANCH   8  26
HETATM   26  N4  UNL     1      26.306   2.699  50.434  1.00  0.00    -0.340 N 
HETATM   27  H12 UNL     1      26.770   2.140  49.696  1.00  0.00     0.167 HD
BRANCH  26  28
HETATM   28  C12 UNL     1      26.348   2.020  51.673  1.00  0.00     0.035 A 
HETATM   29  C13 UNL     1      27.405   2.119  52.543  1.00  0.00     0.029 A 
HETATM   30  C14 UNL     1      27.478   1.473  53.752  1.00  0.00     0.004 A 
HETATM   31  C15 UNL     1      26.456   0.660  54.169  1.00  0.00     0.024 A 
HETATM   32  C16 UNL     1      25.371   0.527  53.331  1.00  0.00     0.036 A 
HETATM   33 CL1  UNL     1      24.034  -0.487  53.792  1.00  0.00    -0.084 Cl
HETATM   34  C17 UNL     1      25.352   1.193  52.141  1.00  0.00     0.053 A 
ENDBRANCH  26  28
ENDBRANCH   8  26
TORSDOF 5
ENDMDL
MODEL 5
REMARK VINA RESULT:      -8.9      2.788      3.524
REMARK  5 active torsions:
REMARK  status: ('A' for Active; 'I' for Inactive)
REMARK    1  A    between atoms: C4_4  and  C5_5 
REMARK       I    between atoms: C5_5  and  N1_7 
REMARK    2  A    between atoms: N1_7  and  C6_8 
REMARK    3  A    between atoms: C11_15  and  N4_16 
REMARK    4  A    between atoms: N4_16  and  C12_17 
REMARK    5  A    between atoms: N5_30  and  O2_31 
ROOT
HETATM    1  C6  UNL     1      21.636   1.675  52.080  1.00  0.00     0.035 A 
HETATM    2  C7  UNL     1      20.546   1.428  52.890  1.00  0.00     0.032 A 
HETATM    3  C8  UNL     1      20.713   0.558  53.945  1.00  0.00     0.035 A 
HETATM    4  C9  UNL     1      21.939  -0.030  54.159  1.00  0.00     0.072 A 
HETATM    5  N2  UNL     1      22.022  -0.873  55.216  1.00  0.00    -0.241 NA
HETATM    6  C10 UNL     1      23.174  -1.473  55.477  1.00  0.00     0.236 A 
HETATM    7  N3  UNL     1      24.201  -1.222  54.692  1.00  0.00    -0.224 NA
HETATM    8  C11 UNL     1      24.255  -0.421  53.626  1.00  0.00     0.142 A 
HETATM    9  C18 UNL     1      23.057   0.183  53.380  1.00  0.00     0.041 A 
HETATM   10  C19 UNL     1      22.823   1.060  52.345  1.00  0.00     0.047 A 
ENDROOT
BRANCH   1  11
HETATM   11  N1  UNL     1      21.427   2.578  51.001  1.00  0.00    -0.327 N 
HETATM   12  C5  UNL     1      21.728   3.922  51.345  1.00  0.00     0.226 C 
HETATM   13  O1  UNL     1      22.139   4.380  52.444  1.00  0.00    -0.273 OA
HETATM   14  H8  UNL     1      21.091   2.378  50.021  1.00  0.00     0.169 HD
BRANCH  12  15
HETATM   15  C4  UNL     1      21.576   5.019  50.359  1.00  0.00     0.082 C 
HETATM   16  C3  UNL     1      21.944   4.510  48.981  1.00  0.00     0.041 C 
HETATM   17  C2  UNL     1      21.621   5.582  47.971  1.00  0.00     0.106 C 
HETATM   18  C1  UNL     1      20.155   5.466  47.607  1.00  0.00     0.034 C 
HETATM   19  N5  UNL     1      22.049   6.888  48.292  1.00  0.00    -0.283 N 
HETATM   20  C21 UNL     1      22.080   7.283  49.650  1.00  0.00     0.048 C 
HETATM   21  C20 UNL     1      22.503   6.191  50.625  1.00  0.00     0.046 C 
HETATM   22  C22 UNL     1      23.173   8.355  49.786  1.00  0.00     0.040 C 
HETATM   23  C23 UNL     1      20.813   7.951  50.139  1.00  0.00     0.040 C 
BRANCH  19  24
HETATM   24  O2  UNL     1      22.952   7.447  47.482  1.00  0.00    -0.291 OA
HETATM   25  H26 UNL     1      22.879   8.443  47.539  1.00  0.00     0.244 HD
ENDBRANCH  19  24
ENDBRANCH  12  15
ENDBRANCH   1  11
BRANCH   8  26
HETATM   26  N4  UNL     1      25.359  -0.159  52.790  1.00  0.00    -0.340 N 
HETATM   27  H12 UNL     1      25.235   0.125  51.802  1.00  0.00     0.167 HD
BRANCH  26  28
HETATM   28  C12 UNL     1      26.733  -0.230  53.118  1.00  0.00     0.035 A 
HETATM   29  C13 UNL     1      27.485  -1.364  52.944  1.00  0.00     0.029 A 
HETATM   30  C14 UNL     1      28.819  -1.466  53.253  1.00  0.00     0.004 A 
HETATM   31  C15 UNL     1      29.496  -0.394  53.773  1.00  0.00     0.024 A 
HETATM   32  C16 UNL     1      28.786   0.769  53.967  1.00  0.00     0.036 A 
HETATM   33 CL1  UNL     1      29.577   2.173  54.624  1.00  0.00    -0.084 Cl
HETATM   34  C17 UNL     1      27.461   0.814  53.643  1.00  0.00     0.053 A 
ENDBRANCH  26  28
ENDBRANCH   8  26
TORSDOF 5
ENDMDL
MODEL 6
REMARK VINA RESULT:      -8.8      1.823      2.650
REMARK  5 active torsions:
REMARK  status: ('A' for Active; 'I' for Inactive)
REMARK    1  A    between atoms: C4_4  and  C5_5 
REMARK       I    between atoms: C5_5  and  N1_7 
REMARK    2  A    between atoms: N1_7  and  C6_8 
REMARK    3  A    between atoms: C11_15  and  N4_16 
REMARK    4  A    between atoms: N4_16  and  C12_17 
REMARK    5  A    between atoms: N5_30  and  O2_31 
ROOT
HETATM    1  C6  UNL     1      24.196   3.289  49.390  1.00  0.00     0.035 A 
HETATM    2  C7  UNL     1      23.256   3.066  48.404  1.00  0.00     0.032 A 
HETATM    3  C8  UNL     1      22.216   2.210  48.690  1.00  0.00     0.035 A 
HETATM    4  C9  UNL     1      22.142   1.611  49.927  1.00  0.00     0.072 A 
HETATM    5  N2  UNL     1      21.089   0.783  50.129  1.00  0.00    -0.241 NA
HETATM    6  C10 UNL     1      20.959   0.175  51.299  1.00  0.00     0.236 A 
HETATM    7  N3  UNL     1      21.867   0.402  52.225  1.00  0.00    -0.224 NA
HETATM    8  C11 UNL     1      22.943   1.188  52.158  1.00  0.00     0.142 A 
HETATM    9  C18 UNL     1      23.053   1.801  50.945  1.00  0.00     0.041 A 
HETATM   10  C19 UNL     1      24.066   2.666  50.596  1.00  0.00     0.047 A 
ENDROOT
BRANCH   1  11
HETATM   11  N1  UNL     1      25.256   4.179  49.061  1.00  0.00    -0.327 N 
HETATM   12  C5  UNL     1      24.895   5.543  49.215  1.00  0.00     0.226 C 
HETATM   13  O1  UNL     1      23.795   6.028  49.591  1.00  0.00    -0.273 OA
HETATM   14  H8  UNL     1      26.233   3.956  48.732  1.00  0.00     0.169 HD
BRANCH  12  15
HETATM   15  C4  UNL     1      25.860   6.630  48.922  1.00  0.00     0.082 C 
HETATM   16  C3  UNL     1      27.220   6.030  48.634  1.00  0.00     0.041 C 
HETATM   17  C2  UNL     1      28.142   7.130  48.173  1.00  0.00     0.106 C 
HETATM   18  C1  UNL     1      27.932   7.333  46.686  1.00  0.00     0.034 C 
HETATM   19  N5  UNL     1      28.129   8.314  48.939  1.00  0.00    -0.283 N 
HETATM   20  C21 UNL     1      26.922   8.716  49.558  1.00  0.00     0.048 C 
HETATM   21  C20 UNL     1      26.066   7.574  50.092  1.00  0.00     0.046 C 
HETATM   22  C22 UNL     1      27.299   9.523  50.810  1.00  0.00     0.040 C 
HETATM   23  C23 UNL     1      26.072   9.655  48.728  1.00  0.00     0.040 C 
BRANCH  19  24
HETATM   24  O2  UNL     1      29.263   8.648  49.561  1.00  0.00    -0.291 OA
HETATM   25  H26 UNL     1      29.744   7.819  49.844  1.00  0.00     0.244 HD
ENDBRANCH  19  24
ENDBRANCH  12  15
ENDBRANCH   1  11
BRANCH   8  26
HETATM   26  N4  UNL     1      23.911   1.424  53.156  1.00  0.00    -0.340 N 
HETATM   27  H12 UNL     1      23.692   1.982  54.001  1.00  0.00     0.167 HD
BRANCH  26  28
HETATM   28  C12 UNL     1      25.253   0.980  53.187  1.00  0.00     0.035 A 
HETATM   29  C13 UNL     1      25.611  -0.329  52.983  1.00  0.00     0.029 A 
HETATM   30  C14 UNL     1      26.903  -0.793  53.008  1.00  0.00     0.004 A 
HETATM   31  C15 UNL     1      27.945   0.064  53.247  1.00  0.00     0.024 A 
HETATM   32  C16 UNL     1      27.639   1.390  53.458  1.00  0.00     0.036 A 
HETATM   33 CL1  UNL     1      28.909   2.539  53.768  1.00  0.00    -0.084 Cl
HETATM   34  C17 UNL     1      26.337   1.795  53.422  1.00  0.00     0.053 A 
ENDBRANCH  26  28
ENDBRANCH   8  26
TORSDOF 5
ENDMDL
MODEL 7
REMARK VINA RESULT:      -8.8      2.815      3.549
REMARK  5 active torsions:
REMARK  status: ('A' for Active; 'I' for Inactive)
REMARK    1  A    between atoms: C4_4  and  C5_5 
REMARK       I    between atoms: C5_5  and  N1_7 
REMARK    2  A    between atoms: N1_7  and  C6_8 
REMARK    3  A    between atoms: C11_15  and  N4_16 
REMARK    4  A    between atoms: N4_16  and  C12_17 
REMARK    5  A    between atoms: N5_30  and  O2_31 
ROOT
HETATM    1  C6  UNL     1      21.682   2.008  51.912  1.00  0.00     0.035 A 
HETATM    2  C7  UNL     1      20.559   1.822  52.692  1.00  0.00     0.032 A 
HETATM    3  C8  UNL     1      20.640   0.922  53.731  1.00  0.00     0.035 A 
HETATM    4  C9  UNL     1      21.817   0.245  53.960  1.00  0.00     0.072 A 
HETATM    5  N2  UNL     1      21.815  -0.622  55.001  1.00  0.00    -0.241 NA
HETATM    6  C10 UNL     1      22.916  -1.306  55.275  1.00  0.00     0.236 A 
HETATM    7  N3  UNL     1      23.976  -1.112  54.519  1.00  0.00    -0.224 NA
HETATM    8  C11 UNL     1      24.111  -0.296  53.472  1.00  0.00     0.142 A 
HETATM    9  C18 UNL     1      22.965   0.395  53.212  1.00  0.00     0.041 A 
HETATM   10  C19 UNL     1      22.818   1.307  52.190  1.00  0.00     0.047 A 
ENDROOT
BRANCH   1  11
HETATM   11  N1  UNL     1      21.563   2.945  50.848  1.00  0.00    -0.327 N 
HETATM   12  C5  UNL     1      22.093   4.220  51.178  1.00  0.00     0.226 C 
HETATM   13  O1  UNL     1      22.629   4.594  52.254  1.00  0.00    -0.273 OA
HETATM   14  H8  UNL     1      21.147   2.811  49.888  1.00  0.00     0.169 HD
BRANCH  12  15
HETATM   15  C4  UNL     1      22.065   5.337  50.204  1.00  0.00     0.082 C 
HETATM   16  C3  UNL     1      21.631   6.606  50.908  1.00  0.00     0.041 C 
HETATM   17  C2  UNL     1      21.773   7.760  49.947  1.00  0.00     0.106 C 
HETATM   18  C1  UNL     1      23.209   8.242  49.993  1.00  0.00     0.034 C 
HETATM   19  N5  UNL     1      21.259   7.555  48.649  1.00  0.00    -0.283 N 
HETATM   20  C21 UNL     1      21.305   6.256  48.091  1.00  0.00     0.048 C 
HETATM   21  C20 UNL     1      21.063   5.125  49.084  1.00  0.00     0.046 C 
HETATM   22  C22 UNL     1      20.136   6.146  47.100  1.00  0.00     0.040 C 
HETATM   23  C23 UNL     1      22.544   5.968  47.271  1.00  0.00     0.040 C 
BRANCH  19  24
HETATM   24  O2  UNL     1      20.247   8.338  48.267  1.00  0.00    -0.291 OA
HETATM   25  H26 UNL     1      20.500   9.297  48.393  1.00  0.00     0.244 HD
ENDBRANCH  19  24
ENDBRANCH  12  15
ENDBRANCH   1  11
BRANCH   8  26
HETATM   26  N4  UNL     1      25.251  -0.096  52.667  1.00  0.00    -0.340 N 
HETATM   27  H12 UNL     1      25.240  -0.303  51.652  1.00  0.00     0.167 HD
BRANCH  26  28
HETATM   28  C12 UNL     1      26.520   0.385  53.062  1.00  0.00     0.035 A 
HETATM   29  C13 UNL     1      26.772   1.712  53.308  1.00  0.00     0.029 A 
HETATM   30  C14 UNL     1      27.991   2.212  53.692  1.00  0.00     0.004 A 
HETATM   31  C15 UNL     1      29.065   1.377  53.856  1.00  0.00     0.024 A 
HETATM   32  C16 UNL     1      28.865   0.035  53.621  1.00  0.00     0.036 A 
HETATM   33 CL1  UNL     1      30.181  -1.088  53.807  1.00  0.00    -0.084 Cl
HETATM   34  C17 UNL     1      27.632  -0.407  53.241  1.00  0.00     0.053 A 
ENDBRANCH  26  28
ENDBRANCH   8  26
TORSDOF 5
ENDMDL
MODEL 8
REMARK VINA RESULT:      -8.8      1.629      2.130
REMARK  5 active torsions:
REMARK  status: ('A' for Active; 'I' for Inactive)
REMARK    1  A    between atoms: C4_4  and  C5_5 
REMARK       I    between atoms: C5_5  and  N1_7 
REMARK    2  A    between atoms: N1_7  and  C6_8 
REMARK    3  A    between atoms: C11_15  and  N4_16 
REMARK    4  A    between atoms: N4_16  and  C12_17 
REMARK    5  A    between atoms: N5_30  and  O2_31 
ROOT
HETATM    1  C6  UNL     1      22.256   2.348  51.650  1.00  0.00     0.035 A 
HETATM    2  C7  UNL     1      21.029   2.392  52.280  1.00  0.00     0.032 A 
HETATM    3  C8  UNL     1      20.786   1.470  53.274  1.00  0.00     0.035 A 
HETATM    4  C9  UNL     1      21.753   0.548  53.606  1.00  0.00     0.072 A 
HETATM    5  N2  UNL     1      21.435  -0.323  54.593  1.00  0.00    -0.241 NA
HETATM    6  C10 UNL     1      22.322  -1.236  54.961  1.00  0.00     0.236 A 
HETATM    7  N3  UNL     1      23.486  -1.259  54.346  1.00  0.00    -0.224 NA
HETATM    8  C11 UNL     1      23.923  -0.466  53.366  1.00  0.00     0.142 A 
HETATM    9  C18 UNL     1      22.992   0.464  53.008  1.00  0.00     0.041 A 
HETATM   10  C19 UNL     1      23.172   1.410  52.024  1.00  0.00     0.047 A 
ENDROOT
BRANCH   1  11
HETATM   11  N1  UNL     1      22.475   3.314  50.628  1.00  0.00    -0.327 N 
HETATM   12  C5  UNL     1      23.190   4.450  51.091  1.00  0.00     0.226 C 
HETATM   13  O1  UNL     1      23.631   4.684  52.248  1.00  0.00    -0.273 OA
HETATM   14  H8  UNL     1      22.182   3.289  49.616  1.00  0.00     0.169 HD
BRANCH  12  15
HETATM   15  C4  UNL     1      23.520   5.573  50.181  1.00  0.00     0.082 C 
HETATM   16  C3  UNL     1      23.589   5.061  48.757  1.00  0.00     0.041 C 
HETATM   17  C2  UNL     1      23.755   6.239  47.831  1.00  0.00     0.106 C 
HETATM   18  C1  UNL     1      22.382   6.813  47.544  1.00  0.00     0.034 C 
HETATM   19  N5  UNL     1      24.727   7.191  48.204  1.00  0.00    -0.283 N 
HETATM   20  C21 UNL     1      24.964   7.426  49.579  1.00  0.00     0.048 C 
HETATM   21  C20 UNL     1      24.878   6.188  50.464  1.00  0.00     0.046 C 
HETATM   22  C22 UNL     1      26.423   7.888  49.716  1.00  0.00     0.040 C 
HETATM   23  C23 UNL     1      24.139   8.547  50.176  1.00  0.00     0.040 C 
BRANCH  19  24
HETATM   24  O2  UNL     1      25.765   7.353  47.379  1.00  0.00    -0.291 OA
HETATM   25  H26 UNL     1      26.385   8.043  47.754  1.00  0.00     0.244 HD
ENDBRANCH  19  24
ENDBRANCH  12  15
ENDBRANCH   1  11
BRANCH   8  26
HETATM   26  N4  UNL     1      25.172  -0.499  52.712  1.00  0.00    -0.340 N 
HETATM   27  H12 UNL     1      25.299  -0.996  51.813  1.00  0.00     0.167 HD
BRANCH  26  28
HETATM   28  C12 UNL     1      26.386   0.093  53.129  1.00  0.00     0.035 A 
HETATM   29  C13 UNL     1      26.502   1.429  53.425  1.00  0.00     0.029 A 
HETATM   30  C14 UNL     1      27.666   2.035  53.831  1.00  0.00     0.004 A 
HETATM   31  C15 UNL     1      28.818   1.306  53.968  1.00  0.00     0.024 A 
HETATM   32  C16 UNL     1      28.754  -0.039  53.683  1.00  0.00     0.036 A 
HETATM   33 CL1  UNL     1      30.177  -1.030  53.833  1.00  0.00    -0.084 Cl
HETATM   34  C17 UNL     1      27.572  -0.589  53.283  1.00  0.00     0.053 A 
ENDBRANCH  26  28
ENDBRANCH   8  26
TORSDOF 5
ENDMDL
MODEL 9
REMARK VINA RESULT:      -8.8      3.867      4.653
REMARK  5 active torsions:
REMARK  status: ('A' for Active; 'I' for Inactive)
REMARK    1  A    between atoms: C4_4  and  C5_5 
REMARK       I    between atoms: C5_5  and  N1_7 
REMARK    2  A    between atoms: N1_7  and  C6_8 
REMARK    3  A    between atoms: C11_15  and  N4_16 
REMARK    4  A    between atoms: N4_16  and  C12_17 
REMARK    5  A    between atoms: N5_30  and  O2_31 
ROOT
HETATM    1  C6  UNL     1      21.134   0.452  51.548  1.00  0.00     0.035 A 
HETATM    2  C7  UNL     1      20.121  -0.015  52.362  1.00  0.00     0.032 A 
HETATM    3  C8  UNL     1      20.475  -0.577  53.568  1.00  0.00     0.035 A 
HETATM    4  C9  UNL     1      21.802  -0.658  53.924  1.00  0.00     0.072 A 
HETATM    5  N2  UNL     1      22.067  -1.225  55.125  1.00  0.00    -0.241 NA
HETATM    6  C10 UNL     1      23.324  -1.333  55.527  1.00  0.00     0.236 A 
HETATM    7  N3  UNL     1      24.274  -0.881  54.735  1.00  0.00    -0.224 NA
HETATM    8  C11 UNL     1      24.152  -0.307  53.537  1.00  0.00     0.142 A 
HETATM    9  C18 UNL     1      22.849  -0.208  53.148  1.00  0.00     0.041 A 
HETATM   10  C19 UNL     1      22.430   0.343  51.957  1.00  0.00     0.047 A 
ENDROOT
BRANCH   1  11
HETATM   11  N1  UNL     1      20.733   1.027  50.310  1.00  0.00    -0.327 N 
HETATM   12  C5  UNL     1      20.835   2.443  50.305  1.00  0.00     0.226 C 
HETATM   13  O1  UNL     1      21.221   3.207  51.228  1.00  0.00    -0.273 OA
HETATM   14  H8  UNL     1      20.386   0.549  49.437  1.00  0.00     0.169 HD
BRANCH  12  15
HETATM   15  C4  UNL     1      20.464   3.234  49.107  1.00  0.00     0.082 C 
HETATM   16  C3  UNL     1      19.116   2.771  48.597  1.00  0.00     0.041 C 
HETATM   17  C2  UNL     1      18.678   3.695  47.489  1.00  0.00     0.106 C 
HETATM   18  C1  UNL     1      18.011   4.903  48.114  1.00  0.00     0.034 C 
HETATM   19  N5  UNL     1      19.650   3.997  46.511  1.00  0.00    -0.283 N 
HETATM   20  C21 UNL     1      21.010   4.065  46.895  1.00  0.00     0.048 C 
HETATM   21  C20 UNL     1      21.428   3.049  47.950  1.00  0.00     0.046 C 
HETATM   22  C22 UNL     1      21.849   3.697  45.661  1.00  0.00     0.040 C 
HETATM   23  C23 UNL     1      21.482   5.448  47.292  1.00  0.00     0.040 C 
BRANCH  19  24
HETATM   24  O2  UNL     1      19.397   3.598  45.261  1.00  0.00    -0.291 OA
HETATM   25  H26 UNL     1      20.035   4.044  44.633  1.00  0.00     0.244 HD
ENDBRANCH  19  24
ENDBRANCH  12  15
ENDBRANCH   1  11
BRANCH   8  26
HETATM   26  N4  UNL     1      25.177   0.174  52.695  1.00  0.00    -0.340 N 
HETATM   27  H12 UNL     1      25.024   0.309  51.680  1.00  0.00     0.167 HD
BRANCH  26  28
HETATM   28  C12 UNL     1      26.497   0.532  53.051  1.00  0.00     0.035 A 
HETATM   29  C13 UNL     1      26.889   1.833  53.250  1.00  0.00     0.029 A 
HETATM   30  C14 UNL     1      28.162   2.215  53.595  1.00  0.00     0.004 A 
HETATM   31  C15 UNL     1      29.147   1.277  53.766  1.00  0.00     0.024 A 
HETATM   32  C16 UNL     1      28.804  -0.043  53.578  1.00  0.00     0.036 A 
HETATM   33 CL1  UNL     1      30.001  -1.291  53.778  1.00  0.00    -0.084 Cl
HETATM   34  C17 UNL     1      27.524  -0.365  53.235  1.00  0.00     0.053 A 
ENDBRANCH  26  28
ENDBRANCH   8  26
TORSDOF 5
ENDMDL
