MODEL 1
REMARK VINA RESULT:      -9.7      0.000      0.000
REMARK  2 active torsions:
REMARK  status: ('A' for Active; 'I' for Inactive)
REMARK    1  A    between atoms: C11_14  and  C12_15 
REMARK    2  A    between atoms: C18_21  and  N3_22 
ROOT
HETATM    1  C1  UNL     1      17.437  -3.207  53.768  1.00  0.00     0.025 C 
HETATM    2  C2  UNL     1      17.936  -2.187  53.370  1.00  0.00    -0.045 C 
HETATM    3  S1  UNL     1      18.670  -0.697  52.756  1.00  0.00    -0.067 SA
HETATM    4  C3  UNL     1      17.873   0.366  51.769  1.00  0.00     0.054 A 
HETATM    5  C4  UNL     1      18.716   1.503  51.420  1.00  0.00     0.008 A 
HETATM    6  C5  UNL     1      19.947   1.699  51.812  1.00  0.00     0.013 A 
HETATM    7  C6  UNL     1      20.874   0.969  52.648  1.00  0.00     0.013 A 
HETATM    8  C7  UNL     1      20.349  -0.173  53.134  1.00  0.00     0.085 A 
HETATM    9  N1  UNL     1      20.766  -1.240  53.978  1.00  0.00    -0.345 N 
HETATM   10  C8  UNL     1      21.947  -1.459  54.765  1.00  0.00     0.208 C 
HETATM   11  N2  UNL     1      23.170  -1.061  54.656  1.00  0.00    -0.243 NA
HETATM   12  C9  UNL     1      23.852  -0.231  53.691  1.00  0.00     0.070 A 
HETATM   13  C10 UNL     1      25.133  -0.736  53.624  1.00  0.00     0.043 A 
HETATM   14  C11 UNL     1      26.046  -0.149  52.777  1.00  0.00    -0.016 A 
HETATM   15  C15 UNL     1      25.630   0.928  52.026  1.00  0.00     0.109 A 
HETATM   16  C16 UNL     1      24.339   1.390  52.133  1.00  0.00     0.113 A 
HETATM   17  C17 UNL     1      23.344   0.856  52.967  1.00  0.00     0.044 A 
HETATM   18  C18 UNL     1      22.149   1.683  52.740  1.00  0.00     0.291 C 
HETATM   19  O1  UNL     1      24.143   2.460  51.304  1.00  0.00    -0.345 OA
HETATM   20  C19 UNL     1      25.066   3.399  50.862  1.00  0.00     0.202 C 
HETATM   21  C20 UNL     1      26.492   2.907  50.859  1.00  0.00     0.202 C 
HETATM   22  O2  UNL     1      26.548   1.509  51.180  1.00  0.00    -0.346 OA
HETATM   23  H5  UNL     1      20.090  -2.040  54.059  1.00  0.00     0.167 HD
ENDROOT
BRANCH  18  24
HETATM   24  N3  UNL     1      22.363   2.402  51.503  1.00  0.00     0.091 N 
HETATM   25  H16 UNL     1      23.364   2.366  51.242  1.00  0.00     0.314 HD
HETATM   26  H17 UNL     1      21.756   2.159  50.724  1.00  0.00     0.314 HD
ENDBRANCH  18  24
BRANCH  14  27
HETATM   27  C12 UNL     1      27.392  -0.746  52.763  1.00  0.00     0.013 C 
HETATM   28  C13 UNL     1      27.375  -2.241  52.629  1.00  0.00     0.015 C 
HETATM   29  C14 UNL     1      28.214  -0.263  53.938  1.00  0.00     0.015 C 
ENDBRANCH  14  27
TORSDOF 2
ENDMDL
MODEL 2
REMARK VINA RESULT:      -9.4      3.398      6.515
REMARK  2 active torsions:
REMARK  status: ('A' for Active; 'I' for Inactive)
REMARK    1  A    between atoms: C11_14  and  C12_15 
REMARK    2  A    between atoms: C18_21  and  N3_22 
ROOT
HETATM    1  C1  UNL     1      26.926   8.864  49.695  1.00  0.00     0.025 C 
HETATM    2  C2  UNL     1      25.994   8.152  49.963  1.00  0.00    -0.045 C 
HETATM    3  S1  UNL     1      24.623   7.115  50.387  1.00  0.00    -0.067 SA
HETATM    4  C3  UNL     1      23.119   7.703  50.752  1.00  0.00     0.054 A 
HETATM    5  C4  UNL     1      22.186   6.627  51.061  1.00  0.00     0.008 A 
HETATM    6  C5  UNL     1      22.458   5.349  51.062  1.00  0.00     0.013 A 
HETATM    7  C6  UNL     1      23.641   4.562  50.793  1.00  0.00     0.013 A 
HETATM    8  C7  UNL     1      24.707   5.319  50.466  1.00  0.00     0.085 A 
HETATM    9  N1  UNL     1      26.067   5.111  50.106  1.00  0.00    -0.345 N 
HETATM   10  C8  UNL     1      26.836   3.928  49.836  1.00  0.00     0.208 C 
HETATM   11  N2  UNL     1      26.750   2.705  50.239  1.00  0.00    -0.243 NA
HETATM   12  C9  UNL     1      25.842   2.025  51.132  1.00  0.00     0.070 A 
HETATM   13  C10 UNL     1      26.601   1.050  51.745  1.00  0.00     0.043 A 
HETATM   14  C11 UNL     1      26.012   0.217  52.668  1.00  0.00    -0.016 A 
HETATM   15  C15 UNL     1      24.674   0.399  52.941  1.00  0.00     0.109 A 
HETATM   16  C16 UNL     1      23.965   1.388  52.300  1.00  0.00     0.113 A 
HETATM   17  C17 UNL     1      24.481   2.281  51.347  1.00  0.00     0.044 A 
HETATM   18  C18 UNL     1      23.351   3.135  50.950  1.00  0.00     0.291 C 
HETATM   19  O1  UNL     1      22.662   1.391  52.718  1.00  0.00    -0.345 OA
HETATM   20  C19 UNL     1      21.897   0.332  53.187  1.00  0.00     0.202 C 
HETATM   21  C20 UNL     1      22.704  -0.794  53.786  1.00  0.00     0.202 C 
HETATM   22  O2  UNL     1      24.091  -0.438  53.866  1.00  0.00    -0.346 OA
HETATM   23  H5  UNL     1      26.646   5.982  50.012  1.00  0.00     0.167 HD
ENDROOT
BRANCH  18  24
HETATM   24  N3  UNL     1      22.330   2.982  51.963  1.00  0.00     0.091 N 
HETATM   25  H16 UNL     1      21.392   3.052  51.534  1.00  0.00     0.314 HD
HETATM   26  H17 UNL     1      22.412   2.173  52.573  1.00  0.00     0.314 HD
ENDBRANCH  18  24
BRANCH  14  27
HETATM   27  C12 UNL     1      26.889  -0.797  53.277  1.00  0.00     0.013 C 
HETATM   28  C13 UNL     1      28.262  -0.280  53.591  1.00  0.00     0.015 C 
HETATM   29  C14 UNL     1      26.905  -2.068  52.454  1.00  0.00     0.015 C 
ENDBRANCH  14  27
TORSDOF 2
ENDMDL
MODEL 3
REMARK VINA RESULT:      -8.8      3.304      5.728
REMARK  2 active torsions:
REMARK  status: ('A' for Active; 'I' for Inactive)
REMARK    1  A    between atoms: C11_14  and  C12_15 
REMARK    2  A    between atoms: C18_21  and  N3_22 
ROOT
HETATM    1  C1  UNL     1      24.254   7.999  49.033  1.00  0.00     0.025 C 
HETATM    2  C2  UNL     1      23.731   7.037  49.531  1.00  0.00    -0.045 C 
HETATM    3  S1  UNL     1      22.958   5.636  50.289  1.00  0.00    -0.067 SA
HETATM    4  C3  UNL     1      21.357   5.602  50.709  1.00  0.00     0.054 A 
HETATM    5  C4  UNL     1      20.992   4.326  51.312  1.00  0.00     0.008 A 
HETATM    6  C5  UNL     1      21.792   3.313  51.515  1.00  0.00     0.013 A 
HETATM    7  C6  UNL     1      23.193   3.059  51.262  1.00  0.00     0.013 A 
HETATM    8  C7  UNL     1      23.816   4.105  50.685  1.00  0.00     0.085 A 
HETATM    9  N1  UNL     1      25.123   4.417  50.217  1.00  0.00    -0.345 N 
HETATM   10  C8  UNL     1      26.323   3.640  50.083  1.00  0.00     0.208 C 
HETATM   11  N2  UNL     1      26.787   2.611  50.710  1.00  0.00    -0.243 NA
HETATM   12  C9  UNL     1      26.285   1.820  51.809  1.00  0.00     0.070 A 
HETATM   13  C10 UNL     1      27.407   1.411  52.499  1.00  0.00     0.043 A 
HETATM   14  C11 UNL     1      27.260   0.625  53.619  1.00  0.00    -0.016 A 
HETATM   15  C15 UNL     1      25.983   0.281  54.004  1.00  0.00     0.109 A 
HETATM   16  C16 UNL     1      24.900   0.718  53.278  1.00  0.00     0.113 A 
HETATM   17  C17 UNL     1      24.954   1.519  52.126  1.00  0.00     0.044 A 
HETATM   18  C18 UNL     1      23.556   1.713  51.709  1.00  0.00     0.291 C 
HETATM   19  O1  UNL     1      23.735   0.263  53.833  1.00  0.00    -0.345 OA
HETATM   20  C19 UNL     1      23.517  -0.893  54.571  1.00  0.00     0.202 C 
HETATM   21  C20 UNL     1      24.747  -1.418  55.270  1.00  0.00     0.202 C 
HETATM   22  O2  UNL     1      25.843  -0.504  55.126  1.00  0.00    -0.346 OA
HETATM   23  H5  UNL     1      25.263   5.408  49.901  1.00  0.00     0.167 HD
ENDROOT
BRANCH  18  24
HETATM   24  N3  UNL     1      22.727   1.365  52.842  1.00  0.00     0.091 N 
HETATM   25  H16 UNL     1      22.244   2.207  53.199  1.00  0.00     0.314 HD
HETATM   26  H17 UNL     1      22.090   0.583  52.717  1.00  0.00     0.314 HD
ENDBRANCH  18  24
BRANCH  14  27
HETATM   27  C12 UNL     1      28.504   0.230  54.300  1.00  0.00     0.013 C 
HETATM   28  C13 UNL     1      29.418   1.387  54.583  1.00  0.00     0.015 C 
HETATM   29  C14 UNL     1      29.190  -0.903  53.567  1.00  0.00     0.015 C 
ENDBRANCH  14  27
TORSDOF 2
ENDMDL
MODEL 4
REMARK VINA RESULT:      -8.0      3.072      5.921
REMARK  2 active torsions:
REMARK  status: ('A' for Active; 'I' for Inactive)
REMARK    1  A    between atoms: C11_14  and  C12_15 
REMARK    2  A    between atoms: C18_21  and  N3_22 
ROOT
HETATM    1  C1  UNL     1      19.820   6.545  47.509  1.00  0.00     0.025 C 
HETATM    2  C2  UNL     1      20.885   6.250  47.983  1.00  0.00    -0.045 C 
HETATM    3  S1  UNL     1      22.459   5.798  48.657  1.00  0.00    -0.067 SA
HETATM    4  C3  UNL     1      23.900   6.246  47.976  1.00  0.00     0.054 A 
HETATM    5  C4  UNL     1      25.032   5.737  48.740  1.00  0.00     0.008 A 
HETATM    6  C5  UNL     1      24.965   5.017  49.829  1.00  0.00     0.013 A 
HETATM    7  C6  UNL     1      23.884   4.488  50.632  1.00  0.00     0.013 A 
HETATM    8  C7  UNL     1      22.669   4.813  50.148  1.00  0.00     0.085 A 
HETATM    9  N1  UNL     1      21.309   4.594  50.503  1.00  0.00    -0.345 N 
HETATM   10  C8  UNL     1      20.683   3.993  51.647  1.00  0.00     0.208 C 
HETATM   11  N2  UNL     1      21.053   3.080  52.481  1.00  0.00    -0.243 NA
HETATM   12  C9  UNL     1      22.254   2.286  52.603  1.00  0.00     0.070 A 
HETATM   13  C10 UNL     1      21.834   1.075  53.110  1.00  0.00     0.043 A 
HETATM   14  C11 UNL     1      22.760   0.084  53.345  1.00  0.00    -0.016 A 
HETATM   15  C15 UNL     1      24.081   0.354  53.057  1.00  0.00     0.109 A 
HETATM   16  C16 UNL     1      24.442   1.581  52.552  1.00  0.00     0.113 A 
HETATM   17  C17 UNL     1      23.569   2.647  52.283  1.00  0.00     0.044 A 
HETATM   18  C18 UNL     1      24.416   3.735  51.769  1.00  0.00     0.291 C 
HETATM   19  O1  UNL     1      25.793   1.633  52.341  1.00  0.00    -0.345 OA
HETATM   20  C19 UNL     1      26.804   0.952  53.006  1.00  0.00     0.202 C 
HETATM   21  C20 UNL     1      26.359  -0.338  53.648  1.00  0.00     0.202 C 
HETATM   22  O2  UNL     1      25.002  -0.642  53.293  1.00  0.00    -0.346 OA
HETATM   23  H5  UNL     1      20.602   4.932  49.805  1.00  0.00     0.167 HD
ENDROOT
BRANCH  18  24
HETATM   24  N3  UNL     1      25.675   3.140  51.379  1.00  0.00     0.091 N 
HETATM   25  H16 UNL     1      26.426   3.451  52.019  1.00  0.00     0.314 HD
HETATM   26  H17 UNL     1      25.680   2.132  51.245  1.00  0.00     0.314 HD
ENDBRANCH  18  24
BRANCH  14  27
HETATM   27  C12 UNL     1      22.234  -1.180  53.886  1.00  0.00     0.013 C 
HETATM   28  C13 UNL     1      20.743  -1.302  53.760  1.00  0.00     0.015 C 
HETATM   29  C14 UNL     1      22.734  -1.419  55.294  1.00  0.00     0.015 C 
ENDBRANCH  14  27
TORSDOF 2
ENDMDL
MODEL 5
REMARK VINA RESULT:      -8.0      2.371      4.765
REMARK  2 active torsions:
REMARK  status: ('A' for Active; 'I' for Inactive)
REMARK    1  A    between atoms: C11_14  and  C12_15 
REMARK    2  A    between atoms: C18_21  and  N3_22 
ROOT
HETATM    1  C1  UNL     1      15.523   2.732  48.612  1.00  0.00     0.025 C 
HETATM    2  C2  UNL     1      16.306   2.125  49.294  1.00  0.00    -0.045 C 
HETATM    3  S1  UNL     1      17.453   1.249  50.321  1.00  0.00    -0.067 SA
HETATM    4  C3  UNL     1      16.991   0.331  51.618  1.00  0.00     0.054 A 
HETATM    5  C4  UNL     1      18.140  -0.275  52.279  1.00  0.00     0.008 A 
HETATM    6  C5  UNL     1      19.391  -0.137  51.928  1.00  0.00     0.013 A 
HETATM    7  C6  UNL     1      20.078   0.578  50.875  1.00  0.00     0.013 A 
HETATM    8  C7  UNL     1      19.235   1.257  50.072  1.00  0.00     0.085 A 
HETATM    9  N1  UNL     1      19.329   2.090  48.922  1.00  0.00    -0.345 N 
HETATM   10  C8  UNL     1      20.424   2.456  48.068  1.00  0.00     0.208 C 
HETATM   11  N2  UNL     1      21.696   2.566  48.257  1.00  0.00    -0.243 NA
HETATM   12  C9  UNL     1      22.540   2.364  49.412  1.00  0.00     0.070 A 
HETATM   13  C10 UNL     1      23.562   3.280  49.274  1.00  0.00     0.043 A 
HETATM   14  C11 UNL     1      24.548   3.338  50.232  1.00  0.00    -0.016 A 
HETATM   15  C15 UNL     1      24.466   2.468  51.297  1.00  0.00     0.109 A 
HETATM   16  C16 UNL     1      23.424   1.575  51.383  1.00  0.00     0.113 A 
HETATM   17  C17 UNL     1      22.378   1.444  50.456  1.00  0.00     0.044 A 
HETATM   18  C18 UNL     1      21.523   0.363  50.971  1.00  0.00     0.291 C 
HETATM   19  O1  UNL     1      23.539   0.812  52.512  1.00  0.00    -0.345 OA
HETATM   20  C19 UNL     1      24.688   0.438  53.197  1.00  0.00     0.202 C 
HETATM   21  C20 UNL     1      25.855   1.374  52.998  1.00  0.00     0.202 C 
HETATM   22  O2  UNL     1      25.456   2.533  52.252  1.00  0.00    -0.346 OA
HETATM   23  H5  UNL     1      18.430   2.537  48.617  1.00  0.00     0.167 HD
ENDROOT
BRANCH  18  24
HETATM   24  N3  UNL     1      21.869   0.180  52.363  1.00  0.00     0.091 N 
HETATM   25  H16 UNL     1      21.963  -0.829  52.574  1.00  0.00     0.314 HD
HETATM   26  H17 UNL     1      22.659   0.718  52.711  1.00  0.00     0.314 HD
ENDBRANCH  18  24
BRANCH  14  27
HETATM   27  C12 UNL     1      25.603   4.342  50.014  1.00  0.00     0.013 C 
HETATM   28  C13 UNL     1      25.096   5.605  49.382  1.00  0.00     0.015 C 
HETATM   29  C14 UNL     1      26.783   3.741  49.281  1.00  0.00     0.015 C 
ENDBRANCH  14  27
TORSDOF 2
ENDMDL
MODEL 6
REMARK VINA RESULT:      -7.9      7.211     10.749
REMARK  2 active torsions:
REMARK  status: ('A' for Active; 'I' for Inactive)
REMARK    1  A    between atoms: C11_14  and  C12_15 
REMARK    2  A    between atoms: C18_21  and  N3_22 
ROOT
HETATM    1  C1  UNL     1      21.802   7.268  49.545  1.00  0.00     0.025 C 
HETATM    2  C2  UNL     1      22.860   6.706  49.435  1.00  0.00    -0.045 C 
HETATM    3  S1  UNL     1      24.421   5.881  49.304  1.00  0.00    -0.067 SA
HETATM    4  C3  UNL     1      24.672   4.328  49.821  1.00  0.00     0.054 A 
HETATM    5  C4  UNL     1      26.047   3.904  49.589  1.00  0.00     0.008 A 
HETATM    6  C5  UNL     1      26.994   4.624  49.047  1.00  0.00     0.013 A 
HETATM    7  C6  UNL     1      27.070   5.967  48.517  1.00  0.00     0.013 A 
HETATM    8  C7  UNL     1      25.898   6.628  48.600  1.00  0.00     0.085 A 
HETATM    9  N1  UNL     1      25.393   7.910  48.247  1.00  0.00    -0.345 N 
HETATM   10  C8  UNL     1      25.955   9.017  47.525  1.00  0.00     0.208 C 
HETATM   11  N2  UNL     1      27.162   9.440  47.353  1.00  0.00    -0.243 NA
HETATM   12  C9  UNL     1      28.446   8.970  47.820  1.00  0.00     0.070 A 
HETATM   13  C10 UNL     1      29.208  10.108  47.982  1.00  0.00     0.043 A 
HETATM   14  C11 UNL     1      30.506   9.993  48.424  1.00  0.00    -0.016 A 
HETATM   15  C15 UNL     1      30.989   8.730  48.688  1.00  0.00     0.109 A 
HETATM   16  C16 UNL     1      30.183   7.630  48.509  1.00  0.00     0.113 A 
HETATM   17  C17 UNL     1      28.852   7.651  48.063  1.00  0.00     0.044 A 
HETATM   18  C18 UNL     1      28.422   6.245  48.026  1.00  0.00     0.291 C 
HETATM   19  O1  UNL     1      30.859   6.484  48.828  1.00  0.00    -0.345 OA
HETATM   20  C19 UNL     1      32.222   6.229  48.756  1.00  0.00     0.202 C 
HETATM   21  C20 UNL     1      33.085   7.465  48.842  1.00  0.00     0.202 C 
HETATM   22  O2  UNL     1      32.288   8.622  49.131  1.00  0.00    -0.346 OA
HETATM   23  H5  UNL     1      24.413   8.110  48.566  1.00  0.00     0.167 HD
ENDROOT
BRANCH  18  24
HETATM   24  N3  UNL     1      29.365   5.495  48.825  1.00  0.00     0.091 N 
HETATM   25  H16 UNL     1      28.908   4.651  49.212  1.00  0.00     0.314 HD
HETATM   26  H17 UNL     1      30.259   5.280  48.392  1.00  0.00     0.314 HD
ENDBRANCH  18  24
BRANCH  14  27
HETATM   27  C12 UNL     1      31.254  11.253  48.571  1.00  0.00     0.013 C 
HETATM   28  C13 UNL     1      30.392  12.407  48.993  1.00  0.00     0.015 C 
HETATM   29  C14 UNL     1      32.076  11.545  47.334  1.00  0.00     0.015 C 
ENDBRANCH  14  27
TORSDOF 2
ENDMDL
MODEL 7
REMARK VINA RESULT:      -7.8      2.810      5.105
REMARK  2 active torsions:
REMARK  status: ('A' for Active; 'I' for Inactive)
REMARK    1  A    between atoms: C11_14  and  C12_15 
REMARK    2  A    between atoms: C18_21  and  N3_22 
ROOT
HETATM    1  C1  UNL     1      19.587   7.206  48.779  1.00  0.00     0.025 C 
HETATM    2  C2  UNL     1      19.312   6.174  49.332  1.00  0.00    -0.045 C 
HETATM    3  S1  UNL     1      18.905   4.669  50.172  1.00  0.00    -0.067 SA
HETATM    4  C3  UNL     1      17.400   4.351  50.784  1.00  0.00     0.054 A 
HETATM    5  C4  UNL     1      17.349   3.040  51.420  1.00  0.00     0.008 A 
HETATM    6  C5  UNL     1      18.340   2.193  51.518  1.00  0.00     0.013 A 
HETATM    7  C6  UNL     1      19.722   2.194  51.094  1.00  0.00     0.013 A 
HETATM    8  C7  UNL     1      20.069   3.326  50.450  1.00  0.00     0.085 A 
HETATM    9  N1  UNL     1      21.231   3.861  49.828  1.00  0.00    -0.345 N 
HETATM   10  C8  UNL     1      22.527   3.312  49.543  1.00  0.00     0.208 C 
HETATM   11  N2  UNL     1      23.243   2.396  50.103  1.00  0.00    -0.243 NA
HETATM   12  C9  UNL     1      23.032   1.546  51.251  1.00  0.00     0.070 A 
HETATM   13  C10 UNL     1      24.284   1.358  51.796  1.00  0.00     0.043 A 
HETATM   14  C11 UNL     1      24.420   0.578  52.921  1.00  0.00    -0.016 A 
HETATM   15  C15 UNL     1      23.283   0.015  53.458  1.00  0.00     0.109 A 
HETATM   16  C16 UNL     1      22.059   0.236  52.872  1.00  0.00     0.113 A 
HETATM   17  C17 UNL     1      21.826   1.014  51.727  1.00  0.00     0.044 A 
HETATM   18  C18 UNL     1      20.376   0.943  51.486  1.00  0.00     0.291 C 
HETATM   19  O1  UNL     1      21.073  -0.414  53.563  1.00  0.00    -0.345 OA
HETATM   20  C19 UNL     1      21.160  -1.577  54.316  1.00  0.00     0.202 C 
HETATM   21  C20 UNL     1      22.541  -1.859  54.856  1.00  0.00     0.202 C 
HETATM   22  O2  UNL     1      23.427  -0.763  54.584  1.00  0.00    -0.346 OA
HETATM   23  H5  UNL     1      21.149   4.856  49.502  1.00  0.00     0.167 HD
ENDROOT
BRANCH  18  24
HETATM   24  N3  UNL     1      19.768   0.470  52.710  1.00  0.00     0.091 N 
HETATM   25  H16 UNL     1      20.203  -0.423  52.998  1.00  0.00     0.314 HD
HETATM   26  H17 UNL     1      19.715   1.134  53.478  1.00  0.00     0.314 HD
ENDBRANCH  18  24
BRANCH  14  27
HETATM   27  C12 UNL     1      25.789   0.427  53.442  1.00  0.00     0.013 C 
HETATM   28  C13 UNL     1      26.421   1.731  53.833  1.00  0.00     0.015 C 
HETATM   29  C14 UNL     1      26.645  -0.388  52.496  1.00  0.00     0.015 C 
ENDBRANCH  14  27
TORSDOF 2
ENDMDL
MODEL 8
REMARK VINA RESULT:      -7.2      9.006     11.268
REMARK  2 active torsions:
REMARK  status: ('A' for Active; 'I' for Inactive)
REMARK    1  A    between atoms: C11_14  and  C12_15 
REMARK    2  A    between atoms: C18_21  and  N3_22 
ROOT
HETATM    1  C1  UNL     1      23.370   7.252  47.736  1.00  0.00     0.025 C 
HETATM    2  C2  UNL     1      24.397   7.836  47.961  1.00  0.00    -0.045 C 
HETATM    3  S1  UNL     1      25.908   8.708  48.263  1.00  0.00    -0.067 SA
HETATM    4  C3  UNL     1      25.997  10.357  48.372  1.00  0.00     0.054 A 
HETATM    5  C4  UNL     1      27.362  10.801  48.627  1.00  0.00     0.008 A 
HETATM    6  C5  UNL     1      28.410  10.032  48.760  1.00  0.00     0.013 A 
HETATM    7  C6  UNL     1      28.634   8.604  48.716  1.00  0.00     0.013 A 
HETATM    8  C7  UNL     1      27.503   7.907  48.487  1.00  0.00     0.085 A 
HETATM    9  N1  UNL     1      27.125   6.542  48.356  1.00  0.00    -0.345 N 
HETATM   10  C8  UNL     1      27.838   5.309  48.537  1.00  0.00     0.208 C 
HETATM   11  N2  UNL     1      29.081   4.980  48.422  1.00  0.00    -0.243 NA
HETATM   12  C9  UNL     1      30.267   5.723  48.063  1.00  0.00     0.070 A 
HETATM   13  C10 UNL     1      31.072   4.818  47.403  1.00  0.00     0.043 A 
HETATM   14  C11 UNL     1      32.297   5.227  46.927  1.00  0.00    -0.016 A 
HETATM   15  C15 UNL     1      32.664   6.539  47.134  1.00  0.00     0.109 A 
HETATM   16  C16 UNL     1      31.820   7.398  47.798  1.00  0.00     0.113 A 
HETATM   17  C17 UNL     1      30.558   7.070  48.317  1.00  0.00     0.044 A 
HETATM   18  C18 UNL     1      30.050   8.303  48.938  1.00  0.00     0.291 C 
HETATM   19  O1  UNL     1      32.381   8.643  47.892  1.00  0.00    -0.345 OA
HETATM   20  C19 UNL     1      33.724   8.991  47.936  1.00  0.00     0.202 C 
HETATM   21  C20 UNL     1      34.644   7.979  47.299  1.00  0.00     0.202 C 
HETATM   22  O2  UNL     1      33.890   6.942  46.654  1.00  0.00    -0.346 OA
HETATM   23  H5  UNL     1      26.128   6.377  48.072  1.00  0.00     0.167 HD
ENDROOT
BRANCH  18  24
HETATM   24  N3  UNL     1      30.840   9.395  48.413  1.00  0.00     0.091 N 
HETATM   25  H16 UNL     1      30.587  10.276  48.891  1.00  0.00     0.314 HD
HETATM   26  H17 UNL     1      31.846   9.253  48.380  1.00  0.00     0.314 HD
ENDBRANCH  18  24
BRANCH  14  27
HETATM   27  C12 UNL     1      33.097   4.204  46.235  1.00  0.00     0.013 C 
HETATM   28  C13 UNL     1      33.121   4.379  44.745  1.00  0.00     0.015 C 
HETATM   29  C14 UNL     1      32.687   2.811  46.664  1.00  0.00     0.015 C 
ENDBRANCH  14  27
TORSDOF 2
ENDMDL
MODEL 9
REMARK VINA RESULT:      -7.1      2.894      5.326
REMARK  2 active torsions:
REMARK  status: ('A' for Active; 'I' for Inactive)
REMARK    1  A    between atoms: C11_14  and  C12_15 
REMARK    2  A    between atoms: C18_21  and  N3_22 
ROOT
HETATM    1  C1  UNL     1      14.647   4.102  48.851  1.00  0.00     0.025 C 
HETATM    2  C2  UNL     1      15.016   3.205  49.562  1.00  0.00    -0.045 C 
HETATM    3  S1  UNL     1      15.554   1.902  50.634  1.00  0.00    -0.067 SA
HETATM    4  C3  UNL     1      14.543   1.112  51.679  1.00  0.00     0.054 A 
HETATM    5  C4  UNL     1      15.253   0.087  52.435  1.00  0.00     0.008 A 
HETATM    6  C5  UNL     1      16.523  -0.204  52.333  1.00  0.00     0.013 A 
HETATM    7  C6  UNL     1      17.619   0.298  51.534  1.00  0.00     0.013 A 
HETATM    8  C7  UNL     1      17.246   1.293  50.705  1.00  0.00     0.085 A 
HETATM    9  N1  UNL     1      17.858   2.124  49.726  1.00  0.00    -0.345 N 
HETATM   10  C8  UNL     1      19.170   2.140  49.141  1.00  0.00     0.208 C 
HETATM   11  N2  UNL     1      20.332   1.774  49.564  1.00  0.00    -0.243 NA
HETATM   12  C9  UNL     1      20.791   1.196  50.806  1.00  0.00     0.070 A 
HETATM   13  C10 UNL     1      22.063   1.695  50.987  1.00  0.00     0.043 A 
HETATM   14  C11 UNL     1      22.781   1.324  52.101  1.00  0.00    -0.016 A 
HETATM   15  C15 UNL     1      22.186   0.461  52.995  1.00  0.00     0.109 A 
HETATM   16  C16 UNL     1      20.913  -0.006  52.763  1.00  0.00     0.113 A 
HETATM   17  C17 UNL     1      20.109   0.317  51.659  1.00  0.00     0.044 A 
HETATM   18  C18 UNL     1      18.853  -0.424  51.850  1.00  0.00     0.291 C 
HETATM   19  O1  UNL     1      20.520  -0.845  53.770  1.00  0.00    -0.345 OA
HETATM   20  C19 UNL     1      21.302  -1.655  54.582  1.00  0.00     0.202 C 
HETATM   21  C20 UNL     1      22.728  -1.184  54.732  1.00  0.00     0.202 C 
HETATM   22  O2  UNL     1      22.909   0.095  54.107  1.00  0.00    -0.346 OA
HETATM   23  H5  UNL     1      17.248   2.885  49.336  1.00  0.00     0.167 HD
ENDROOT
BRANCH  18  24
HETATM   24  N3  UNL     1      18.809  -0.826  53.238  1.00  0.00     0.091 N 
HETATM   25  H16 UNL     1      18.986  -1.842  53.319  1.00  0.00     0.314 HD
HETATM   26  H17 UNL     1      19.376  -0.286  53.886  1.00  0.00     0.314 HD
ENDBRANCH  18  24
BRANCH  14  27
HETATM   27  C12 UNL     1      24.131   1.899  52.222  1.00  0.00     0.013 C 
HETATM   28  C13 UNL     1      24.175   3.128  53.083  1.00  0.00     0.015 C 
HETATM   29  C14 UNL     1      24.760   2.104  50.861  1.00  0.00     0.015 C 
ENDBRANCH  14  27
TORSDOF 2
ENDMDL
