MODEL 1
REMARK VINA RESULT:      -9.1      0.000      0.000
REMARK  0 active torsions:
REMARK  status: ('A' for Active; 'I' for Inactive)
ROOT
HETATM    1  C1  UNL     1      26.550  -0.386  53.702  1.00  0.00     0.032 C 
HETATM    2  C2  UNL     1      25.283  -0.514  53.836  1.00  0.00     0.181 C 
HETATM    3  N1  UNL     1      23.997  -0.691  54.021  1.00  0.00    -0.432 NA
HETATM    4  C3  UNL     1      22.881  -0.887  54.384  1.00  0.00     0.180 C 
HETATM    5  C4  UNL     1      21.656  -0.833  53.453  1.00  0.00     0.228 C 
HETATM    6  O1  UNL     1      21.326   0.400  53.021  1.00  0.00    -0.371 OA
HETATM    7  C5  UNL     1      22.132   0.939  52.068  1.00  0.00     0.184 C 
HETATM    8  C6  UNL     1      21.645   1.954  51.165  1.00  0.00     0.006 C 
HETATM    9  C7  UNL     1      21.919   3.276  51.353  1.00  0.00    -0.022 C 
HETATM   10  C8  UNL     1      21.767   4.696  50.880  1.00  0.00     0.086 C 
HETATM   11  C9  UNL     1      23.078   5.320  50.634  1.00  0.00     0.049 A 
HETATM   12  N2  UNL     1      23.096   6.596  51.034  1.00  0.00    -0.246 NA
HETATM   13  C10 UNL     1      24.081   7.492  50.955  1.00  0.00     0.233 A 
HETATM   14  N3  UNL     1      25.226   7.046  50.391  1.00  0.00    -0.246 NA
HETATM   15  C11 UNL     1      25.303   5.794  49.966  1.00  0.00     0.048 A 
HETATM   16  C12 UNL     1      24.252   4.964  50.090  1.00  0.00     0.017 A 
HETATM   17  C13 UNL     1      24.986   3.837  49.511  1.00  0.00     0.150 A 
HETATM   18  C14 UNL     1      26.123   4.799  49.321  1.00  0.00     0.092 A 
HETATM   19  N4  UNL     1      25.352   2.852  50.491  1.00  0.00    -0.291 NA
HETATM   20  C15 UNL     1      26.608   2.588  50.736  1.00  0.00     0.120 C 
HETATM   21  C16 UNL     1      26.672   1.527  51.802  1.00  0.00    -0.021 C 
HETATM   22  C17 UNL     1      27.120   0.592  52.709  1.00  0.00     0.012 C 
HETATM   23  C18 UNL     1      25.575   1.939  52.741  1.00  0.00     0.188 C 
HETATM   24  N5  UNL     1      24.364   1.444  52.254  1.00  0.00    -0.298 NA
HETATM   25  C19 UNL     1      23.242   1.675  52.887  1.00  0.00     0.119 C 
ENDROOT
TORSDOF 0
ENDMDL
MODEL 2
REMARK VINA RESULT:      -8.8      2.470      5.574
REMARK  0 active torsions:
REMARK  status: ('A' for Active; 'I' for Inactive)
ROOT
HETATM    1  C1  UNL     1      20.240   2.134  48.847  1.00  0.00     0.032 C 
HETATM    2  C2  UNL     1      19.635   1.396  49.699  1.00  0.00     0.181 C 
HETATM    3  N1  UNL     1      18.962   0.635  50.529  1.00  0.00    -0.432 NA
HETATM    4  C3  UNL     1      18.279  -0.146  51.113  1.00  0.00     0.180 C 
HETATM    5  C4  UNL     1      18.177  -0.213  52.648  1.00  0.00     0.228 C 
HETATM    6  O1  UNL     1      19.280  -0.674  53.269  1.00  0.00    -0.371 OA
HETATM    7  C5  UNL     1      20.337   0.179  53.331  1.00  0.00     0.184 C 
HETATM    8  C6  UNL     1      21.338   0.056  54.364  1.00  0.00     0.006 C 
HETATM    9  C7  UNL     1      22.543  -0.537  54.132  1.00  0.00    -0.022 C 
HETATM   10  C8  UNL     1      23.887  -0.958  54.661  1.00  0.00     0.086 C 
HETATM   11  C9  UNL     1      24.981  -0.350  53.885  1.00  0.00     0.049 A 
HETATM   12  N2  UNL     1      25.989  -1.210  53.702  1.00  0.00    -0.246 NA
HETATM   13  C10 UNL     1      27.154  -1.024  53.080  1.00  0.00     0.233 A 
HETATM   14  N3  UNL     1      27.343   0.209  52.560  1.00  0.00    -0.246 NA
HETATM   15  C11 UNL     1      26.398   1.128  52.690  1.00  0.00     0.048 A 
HETATM   16  C12 UNL     1      25.253   0.844  53.336  1.00  0.00     0.017 A 
HETATM   17  C13 UNL     1      24.700   2.176  53.084  1.00  0.00     0.150 A 
HETATM   18  C14 UNL     1      26.012   2.492  52.427  1.00  0.00     0.092 A 
HETATM   19  N4  UNL     1      23.659   2.165  52.093  1.00  0.00    -0.291 NA
HETATM   20  C15 UNL     1      23.799   2.819  50.970  1.00  0.00     0.120 C 
HETATM   21  C16 UNL     1      22.558   2.617  50.144  1.00  0.00    -0.021 C 
HETATM   22  C17 UNL     1      21.613   2.679  49.143  1.00  0.00     0.012 C 
HETATM   23  C18 UNL     1      22.239   1.168  50.379  1.00  0.00     0.188 C 
HETATM   24  N5  UNL     1      21.522   1.059  51.571  1.00  0.00    -0.298 NA
HETATM   25  C19 UNL     1      21.129  -0.108  52.014  1.00  0.00     0.119 C 
ENDROOT
TORSDOF 0
ENDMDL
MODEL 3
REMARK VINA RESULT:      -8.2      2.512      4.361
REMARK  0 active torsions:
REMARK  status: ('A' for Active; 'I' for Inactive)
ROOT
HETATM    1  C1  UNL     1      26.764   2.955  50.912  1.00  0.00     0.032 C 
HETATM    2  C2  UNL     1      26.520   2.157  51.883  1.00  0.00     0.181 C 
HETATM    3  N1  UNL     1      26.334   1.350  52.899  1.00  0.00    -0.432 NA
HETATM    4  C3  UNL     1      26.290   0.745  53.923  1.00  0.00     0.180 C 
HETATM    5  C4  UNL     1      25.474  -0.546  54.120  1.00  0.00     0.228 C 
HETATM    6  O1  UNL     1      24.138  -0.375  54.135  1.00  0.00    -0.371 OA
HETATM    7  C5  UNL     1      23.549  -0.131  52.934  1.00  0.00     0.184 C 
HETATM    8  C6  UNL     1      22.158  -0.442  52.706  1.00  0.00     0.006 C 
HETATM    9  C7  UNL     1      21.191   0.517  52.747  1.00  0.00    -0.022 C 
HETATM   10  C8  UNL     1      19.734   0.874  52.623  1.00  0.00     0.086 C 
HETATM   11  C9  UNL     1      19.521   1.891  51.579  1.00  0.00     0.049 A 
HETATM   12  N2  UNL     1      18.596   2.784  51.946  1.00  0.00    -0.246 NA
HETATM   13  C10 UNL     1      18.114   3.827  51.269  1.00  0.00     0.233 A 
HETATM   14  N3  UNL     1      18.635   4.008  50.035  1.00  0.00    -0.246 NA
HETATM   15  C11 UNL     1      19.560   3.172  49.585  1.00  0.00     0.048 A 
HETATM   16  C12 UNL     1      19.983   2.147  50.345  1.00  0.00     0.017 A 
HETATM   17  C13 UNL     1      20.949   1.708  49.337  1.00  0.00     0.150 A 
HETATM   18  C14 UNL     1      20.413   2.818  48.479  1.00  0.00     0.092 A 
HETATM   19  N4  UNL     1      22.307   2.001  49.705  1.00  0.00    -0.291 NA
HETATM   20  C15 UNL     1      23.035   2.811  48.982  1.00  0.00     0.120 C 
HETATM   21  C16 UNL     1      24.395   2.921  49.617  1.00  0.00    -0.021 C 
HETATM   22  C17 UNL     1      25.707   3.251  49.880  1.00  0.00     0.012 C 
HETATM   23  C18 UNL     1      24.071   2.969  51.083  1.00  0.00     0.188 C 
HETATM   24  N5  UNL     1      23.909   1.662  51.545  1.00  0.00    -0.298 NA
HETATM   25  C19 UNL     1      23.607   1.425  52.796  1.00  0.00     0.119 C 
ENDROOT
TORSDOF 0
ENDMDL
MODEL 4
REMARK VINA RESULT:      -8.1      2.622      5.795
REMARK  0 active torsions:
REMARK  status: ('A' for Active; 'I' for Inactive)
ROOT
HETATM    1  C1  UNL     1      26.716   1.633  51.300  1.00  0.00     0.032 C 
HETATM    2  C2  UNL     1      26.282   2.768  50.899  1.00  0.00     0.181 C 
HETATM    3  N1  UNL     1      25.898   3.942  50.457  1.00  0.00    -0.432 NA
HETATM    4  C3  UNL     1      25.665   4.964  49.893  1.00  0.00     0.180 C 
HETATM    5  C4  UNL     1      24.749   6.064  50.458  1.00  0.00     0.228 C 
HETATM    6  O1  UNL     1      23.439   5.751  50.485  1.00  0.00    -0.371 OA
HETATM    7  C5  UNL     1      23.050   4.870  51.444  1.00  0.00     0.184 C 
HETATM    8  C6  UNL     1      21.690   4.845  51.929  1.00  0.00     0.006 C 
HETATM    9  C7  UNL     1      20.790   3.917  51.498  1.00  0.00    -0.022 C 
HETATM   10  C8  UNL     1      19.394   3.360  51.560  1.00  0.00     0.086 C 
HETATM   11  C9  UNL     1      19.401   1.942  51.957  1.00  0.00     0.049 A 
HETATM   12  N2  UNL     1      18.491   1.238  51.276  1.00  0.00    -0.246 NA
HETATM   13  C10 UNL     1      18.181  -0.056  51.371  1.00  0.00     0.233 A 
HETATM   14  N3  UNL     1      18.888  -0.756  52.286  1.00  0.00    -0.246 NA
HETATM   15  C11 UNL     1      19.814  -0.142  53.008  1.00  0.00     0.048 A 
HETATM   16  C12 UNL     1      20.055   1.169  52.838  1.00  0.00     0.017 A 
HETATM   17  C13 UNL     1      21.129   1.171  53.833  1.00  0.00     0.150 A 
HETATM   18  C14 UNL     1      20.796  -0.276  54.054  1.00  0.00     0.092 A 
HETATM   19  N4  UNL     1      22.433   1.278  53.241  1.00  0.00    -0.291 NA
HETATM   20  C15 UNL     1      23.310   0.318  53.378  1.00  0.00     0.120 C 
HETATM   21  C16 UNL     1      24.566   0.714  52.651  1.00  0.00    -0.021 C 
HETATM   22  C17 UNL     1      25.844   0.731  52.133  1.00  0.00     0.012 C 
HETATM   23  C18 UNL     1      24.034   1.358  51.402  1.00  0.00     0.188 C 
HETATM   24  N5  UNL     1      23.723   2.688  51.687  1.00  0.00    -0.298 NA
HETATM   25  C19 UNL     1      23.226   3.473  50.765  1.00  0.00     0.119 C 
ENDROOT
TORSDOF 0
ENDMDL
MODEL 5
REMARK VINA RESULT:      -8.0      1.509      2.050
REMARK  0 active torsions:
REMARK  status: ('A' for Active; 'I' for Inactive)
ROOT
HETATM    1  C1  UNL     1      23.417  -0.719  54.076  1.00  0.00     0.032 C 
HETATM    2  C2  UNL     1      22.186  -0.568  53.759  1.00  0.00     0.181 C 
HETATM    3  N1  UNL     1      20.909  -0.459  53.480  1.00  0.00    -0.432 NA
HETATM    4  C3  UNL     1      19.722  -0.395  53.428  1.00  0.00     0.180 C 
HETATM    5  C4  UNL     1      18.935  -0.126  52.132  1.00  0.00     0.228 C 
HETATM    6  O1  UNL     1      19.049   1.127  51.651  1.00  0.00    -0.371 OA
HETATM    7  C5  UNL     1      20.231   1.438  51.053  1.00  0.00     0.184 C 
HETATM    8  C6  UNL     1      20.317   2.490  50.069  1.00  0.00     0.006 C 
HETATM    9  C7  UNL     1      20.787   3.731  50.381  1.00  0.00    -0.022 C 
HETATM   10  C8  UNL     1      21.117   5.127  49.929  1.00  0.00     0.086 C 
HETATM   11  C9  UNL     1      22.534   5.446  50.172  1.00  0.00     0.049 A 
HETATM   12  N2  UNL     1      22.688   6.706  50.592  1.00  0.00    -0.246 NA
HETATM   13  C10 UNL     1      23.808   7.367  50.888  1.00  0.00     0.233 A 
HETATM   14  N3  UNL     1      24.952   6.662  50.743  1.00  0.00    -0.246 NA
HETATM   15  C11 UNL     1      24.899   5.404  50.332  1.00  0.00     0.048 A 
HETATM   16  C12 UNL     1      23.718   4.823  50.059  1.00  0.00     0.017 A 
HETATM   17  C13 UNL     1      24.345   3.540  49.735  1.00  0.00     0.150 A 
HETATM   18  C14 UNL     1      25.656   4.229  49.981  1.00  0.00     0.092 A 
HETATM   19  N4  UNL     1      24.128   2.546  50.750  1.00  0.00    -0.291 NA
HETATM   20  C15 UNL     1      25.135   2.033  51.408  1.00  0.00     0.120 C 
HETATM   21  C16 UNL     1      24.597   1.034  52.396  1.00  0.00    -0.021 C 
HETATM   22  C17 UNL     1      24.491   0.068  53.374  1.00  0.00     0.012 C 
HETATM   23  C18 UNL     1      23.359   1.713  52.909  1.00  0.00     0.188 C 
HETATM   24  N5  UNL     1      22.315   1.465  52.017  1.00  0.00    -0.298 NA
HETATM   25  C19 UNL     1      21.121   1.958  52.228  1.00  0.00     0.119 C 
ENDROOT
TORSDOF 0
ENDMDL
MODEL 6
REMARK VINA RESULT:      -7.9      2.497      6.158
REMARK  0 active torsions:
REMARK  status: ('A' for Active; 'I' for Inactive)
ROOT
HETATM    1  C1  UNL     1      27.217   5.155  48.593  1.00  0.00     0.032 C 
HETATM    2  C2  UNL     1      26.333   6.080  48.566  1.00  0.00     0.181 C 
HETATM    3  N1  UNL     1      25.466   7.062  48.493  1.00  0.00    -0.432 NA
HETATM    4  C3  UNL     1      24.736   7.964  48.229  1.00  0.00     0.180 C 
HETATM    5  C4  UNL     1      23.789   8.624  49.248  1.00  0.00     0.228 C 
HETATM    6  O1  UNL     1      22.748   7.860  49.632  1.00  0.00    -0.371 OA
HETATM    7  C5  UNL     1      23.031   6.841  50.486  1.00  0.00     0.184 C 
HETATM    8  C6  UNL     1      22.022   6.298  51.363  1.00  0.00     0.006 C 
HETATM    9  C7  UNL     1      21.369   5.137  51.077  1.00  0.00    -0.022 C 
HETATM   10  C8  UNL     1      20.342   4.112  51.477  1.00  0.00     0.086 C 
HETATM   11  C9  UNL     1      20.939   2.770  51.582  1.00  0.00     0.049 A 
HETATM   12  N2  UNL     1      20.116   1.829  51.108  1.00  0.00    -0.246 NA
HETATM   13  C10 UNL     1      20.286   0.507  51.057  1.00  0.00     0.233 A 
HETATM   14  N3  UNL     1      21.459   0.054  51.555  1.00  0.00    -0.246 NA
HETATM   15  C11 UNL     1      22.338   0.914  52.046  1.00  0.00     0.048 A 
HETATM   16  C12 UNL     1      22.075   2.232  52.053  1.00  0.00     0.017 A 
HETATM   17  C13 UNL     1      23.376   2.559  52.638  1.00  0.00     0.150 A 
HETATM   18  C14 UNL     1      23.621   1.079  52.682  1.00  0.00     0.092 A 
HETATM   19  N4  UNL     1      24.273   3.164  51.692  1.00  0.00    -0.291 NA
HETATM   20  C15 UNL     1      25.395   2.578  51.365  1.00  0.00     0.120 C 
HETATM   21  C16 UNL     1      26.109   3.443  50.362  1.00  0.00    -0.021 C 
HETATM   22  C17 UNL     1      27.037   3.951  49.479  1.00  0.00     0.012 C 
HETATM   23  C18 UNL     1      24.987   3.928  49.489  1.00  0.00     0.188 C 
HETATM   24  N5  UNL     1      24.398   5.036  50.097  1.00  0.00    -0.298 NA
HETATM   25  C19 UNL     1      23.381   5.645  49.541  1.00  0.00     0.119 C 
ENDROOT
TORSDOF 0
ENDMDL
MODEL 7
REMARK VINA RESULT:      -7.6      2.317      6.971
REMARK  0 active torsions:
REMARK  status: ('A' for Active; 'I' for Inactive)
ROOT
HETATM    1  C1  UNL     1      20.753   7.500  50.076  1.00  0.00     0.032 C 
HETATM    2  C2  UNL     1      22.020   7.679  50.061  1.00  0.00     0.181 C 
HETATM    3  N1  UNL     1      23.307   7.929  50.046  1.00  0.00    -0.432 NA
HETATM    4  C3  UNL     1      24.427   8.320  50.147  1.00  0.00     0.180 C 
HETATM    5  C4  UNL     1      25.640   7.615  49.513  1.00  0.00     0.228 C 
HETATM    6  O1  UNL     1      25.972   6.440  50.082  1.00  0.00    -0.371 OA
HETATM    7  C5  UNL     1      25.158   5.386  49.808  1.00  0.00     0.184 C 
HETATM    8  C6  UNL     1      25.639   4.028  49.888  1.00  0.00     0.006 C 
HETATM    9  C7  UNL     1      25.377   3.234  50.964  1.00  0.00    -0.022 C 
HETATM   10  C8  UNL     1      25.533   1.899  51.640  1.00  0.00     0.086 C 
HETATM   11  C9  UNL     1      24.223   1.291  51.930  1.00  0.00     0.049 A 
HETATM   12  N2  UNL     1      24.220   0.679  53.119  1.00  0.00    -0.246 NA
HETATM   13  C10 UNL     1      23.240  -0.002  53.715  1.00  0.00     0.233 A 
HETATM   14  N3  UNL     1      22.084  -0.085  53.018  1.00  0.00    -0.246 NA
HETATM   15  C11 UNL     1      21.994   0.493  51.829  1.00  0.00     0.048 A 
HETATM   16  C12 UNL     1      23.040   1.160  51.311  1.00  0.00     0.017 A 
HETATM   17  C13 UNL     1      22.291   1.543  50.113  1.00  0.00     0.150 A 
HETATM   18  C14 UNL     1      21.158   0.737  50.680  1.00  0.00     0.092 A 
HETATM   19  N4  UNL     1      21.931   2.934  50.106  1.00  0.00    -0.291 NA
HETATM   20  C15 UNL     1      20.676   3.300  50.109  1.00  0.00     0.120 C 
HETATM   21  C16 UNL     1      20.618   4.804  50.104  1.00  0.00    -0.021 C 
HETATM   22  C17 UNL     1      20.176   6.109  50.082  1.00  0.00     0.012 C 
HETATM   23  C18 UNL     1      21.731   5.178  51.041  1.00  0.00     0.188 C 
HETATM   24  N5  UNL     1      22.932   5.173  50.330  1.00  0.00    -0.298 NA
HETATM   25  C19 UNL     1      24.064   5.456  50.922  1.00  0.00     0.119 C 
ENDROOT
TORSDOF 0
ENDMDL
MODEL 8
REMARK VINA RESULT:      -7.5      2.327      5.605
REMARK  0 active torsions:
REMARK  status: ('A' for Active; 'I' for Inactive)
ROOT
HETATM    1  C1  UNL     1      21.803   4.175  47.461  1.00  0.00     0.032 C 
HETATM    2  C2  UNL     1      20.831   3.641  48.100  1.00  0.00     0.181 C 
HETATM    3  N1  UNL     1      19.795   3.109  48.703  1.00  0.00    -0.432 NA
HETATM    4  C3  UNL     1      18.797   2.568  49.061  1.00  0.00     0.180 C 
HETATM    5  C4  UNL     1      18.347   2.489  50.532  1.00  0.00     0.228 C 
HETATM    6  O1  UNL     1      19.094   1.683  51.311  1.00  0.00    -0.371 OA
HETATM    7  C5  UNL     1      20.320   2.154  51.663  1.00  0.00     0.184 C 
HETATM    8  C6  UNL     1      20.985   1.688  52.856  1.00  0.00     0.006 C 
HETATM    9  C7  UNL     1      21.973   0.750  52.810  1.00  0.00    -0.022 C 
HETATM   10  C8  UNL     1      22.976  -0.092  53.550  1.00  0.00     0.086 C 
HETATM   11  C9  UNL     1      24.344   0.161  53.069  1.00  0.00     0.049 A 
HETATM   12  N2  UNL     1      25.058  -0.969  53.006  1.00  0.00    -0.246 NA
HETATM   13  C10 UNL     1      26.331  -1.144  52.648  1.00  0.00     0.233 A 
HETATM   14  N3  UNL     1      26.995  -0.020  52.298  1.00  0.00    -0.246 NA
HETATM   15  C11 UNL     1      26.368   1.147  52.329  1.00  0.00     0.048 A 
HETATM   16  C12 UNL     1      25.080   1.222  52.704  1.00  0.00     0.017 A 
HETATM   17  C13 UNL     1      25.026   2.668  52.479  1.00  0.00     0.150 A 
HETATM   18  C14 UNL     1      26.483   2.570  52.128  1.00  0.00     0.092 A 
HETATM   19  N4  UNL     1      24.274   3.019  51.306  1.00  0.00    -0.291 NA
HETATM   20  C15 UNL     1      24.848   3.628  50.302  1.00  0.00     0.120 C 
HETATM   21  C16 UNL     1      23.816   3.856  49.231  1.00  0.00    -0.021 C 
HETATM   22  C17 UNL     1      23.176   4.246  48.074  1.00  0.00     0.012 C 
HETATM   23  C18 UNL     1      23.028   2.577  49.257  1.00  0.00     0.188 C 
HETATM   24  N5  UNL     1      22.070   2.665  50.267  1.00  0.00    -0.298 NA
HETATM   25  C19 UNL     1      21.255   1.670  50.507  1.00  0.00     0.119 C 
ENDROOT
TORSDOF 0
ENDMDL
MODEL 9
REMARK VINA RESULT:      -7.5      6.941     10.247
REMARK  0 active torsions:
REMARK  status: ('A' for Active; 'I' for Inactive)
ROOT
HETATM    1  C1  UNL     1      34.299   9.828  47.263  1.00  0.00     0.032 C 
HETATM    2  C2  UNL     1      34.441   8.611  47.631  1.00  0.00     0.181 C 
HETATM    3  N1  UNL     1      34.650   7.377  48.024  1.00  0.00    -0.432 NA
HETATM    4  C3  UNL     1      34.967   6.341  48.518  1.00  0.00     0.180 C 
HETATM    5  C4  UNL     1      34.431   4.974  48.057  1.00  0.00     0.228 C 
HETATM    6  O1  UNL     1      33.135   4.745  48.348  1.00  0.00    -0.371 OA
HETATM    7  C5  UNL     1      32.222   5.410  47.592  1.00  0.00     0.184 C 
HETATM    8  C6  UNL     1      30.882   4.902  47.420  1.00  0.00     0.006 C 
HETATM    9  C7  UNL     1      29.829   5.397  48.130  1.00  0.00    -0.022 C 
HETATM   10  C8  UNL     1      28.355   5.360  48.430  1.00  0.00     0.086 C 
HETATM   11  C9  UNL     1      27.727   6.669  48.188  1.00  0.00     0.049 A 
HETATM   12  N2  UNL     1      26.810   6.953  49.119  1.00  0.00    -0.246 NA
HETATM   13  C10 UNL     1      26.018   8.021  49.227  1.00  0.00     0.233 A 
HETATM   14  N3  UNL     1      26.163   8.950  48.256  1.00  0.00    -0.246 NA
HETATM   15  C11 UNL     1      27.050   8.756  47.290  1.00  0.00     0.048 A 
HETATM   16  C12 UNL     1      27.805   7.644  47.269  1.00  0.00     0.017 A 
HETATM   17  C13 UNL     1      28.525   8.074  46.069  1.00  0.00     0.150 A 
HETATM   18  C14 UNL     1      27.625   9.275  46.075  1.00  0.00     0.092 A 
HETATM   19  N4  UNL     1      29.873   8.484  46.348  1.00  0.00    -0.291 NA
HETATM   20  C15 UNL     1      30.258   9.713  46.122  1.00  0.00     0.120 C 
HETATM   21  C16 UNL     1      31.705   9.838  46.514  1.00  0.00    -0.021 C 
HETATM   22  C17 UNL     1      32.977  10.321  46.736  1.00  0.00     0.012 C 
HETATM   23  C18 UNL     1      31.775   9.026  47.776  1.00  0.00     0.188 C 
HETATM   24  N5  UNL     1      31.935   7.683  47.432  1.00  0.00    -0.298 NA
HETATM   25  C19 UNL     1      32.011   6.758  48.355  1.00  0.00     0.119 C 
ENDROOT
TORSDOF 0
ENDMDL
