MODEL 1
REMARK VINA RESULT:      -8.3      0.000      0.000
REMARK  7 active torsions:
REMARK  status: ('A' for Active; 'I' for Inactive)
REMARK    1  A    between atoms: N1_2  and  C2_3 
REMARK    2  A    between atoms: C3_5  and  N3_6 
REMARK    3  A    between atoms: N4_7  and  C4_8 
REMARK    4  A    between atoms: C4_8  and  C5_9 
REMARK    5  A    between atoms: C8_12  and  O1_13 
REMARK    6  A    between atoms: C11_17  and  N6_18 
REMARK    7  A    between atoms: N6_18  and  C12_19 
ROOT
HETATM    1  C2  UNL     1      26.215   2.928  50.725  1.00  0.00     0.753 A 
HETATM    2  N2  UNL     1      24.902   3.186  50.930  1.00  0.00     0.134 NA
HETATM    3  C3  UNL     1      24.375   2.993  52.161  1.00  0.00     0.798 A 
HETATM    4  N5  UNL     1      25.137   2.557  53.160  1.00  0.00     0.135 NA
HETATM    5  C11 UNL     1      26.428   2.303  52.959  1.00  0.00     0.758 A 
HETATM    6  N7  UNL     1      26.981   2.487  51.735  1.00  0.00     0.131 NA
ENDROOT
BRANCH   3   7
HETATM    7  N3  UNL     1      23.010   3.243  52.358  1.00  0.00     0.042 NA
HETATM    8  N4  UNL     1      22.128   2.406  52.153  1.00  0.00    -0.172 NA
BRANCH   8   9
HETATM    9  C4  UNL     1      22.415   1.080  51.684  1.00  0.00     0.209 C 
BRANCH   9  10
HETATM   10  C5  UNL     1      21.912   0.148  52.733  1.00  0.00    -0.052 A 
HETATM   11  C6  UNL     1      20.791  -0.468  53.054  1.00  0.00     0.007 A 
HETATM   12  C7  UNL     1      20.923  -1.289  54.247  1.00  0.00     0.033 A 
HETATM   13  C8  UNL     1      22.180  -1.138  54.631  1.00  0.00     0.049 A 
HETATM   14  C10 UNL     1      22.955  -0.233  53.745  1.00  0.00     0.100 A 
BRANCH  13  15
HETATM   15  O1  UNL     1      22.926  -1.643  55.683  1.00  0.00    -0.360 OA
HETATM   16  C9  UNL     1      24.315  -1.402  55.817  1.00  0.00     0.209 C 
ENDBRANCH  13  15
ENDBRANCH   9  10
ENDBRANCH   8   9
ENDBRANCH   3   7
BRANCH   1  17
HETATM   17  N1  UNL     1      26.739   3.140  49.405  1.00  0.00    -0.226 N 
HETATM   18  C1  UNL     1      26.951   4.529  49.064  1.00  0.00     0.165 C 
HETATM   19  H4  UNL     1      26.876   2.228  48.920  1.00  0.00     0.177 HD
ENDBRANCH   1  17
BRANCH   5  20
HETATM   20  N6  UNL     1      27.441   1.837  53.872  1.00  0.00    -0.187 N 
HETATM   21  H14 UNL     1      27.710   2.432  54.685  1.00  0.00     0.184 HD
BRANCH  20  22
HETATM   22  C12 UNL     1      28.064   0.580  53.662  1.00  0.00     0.049 A 
HETATM   23  C13 UNL     1      29.418   0.412  53.791  1.00  0.00     0.030 A 
HETATM   24  C14 UNL     1      29.992  -0.810  53.572  1.00  0.00     0.002 A 
HETATM   25  C15 UNL     1      29.248  -1.941  53.210  1.00  0.00     0.000 A 
HETATM   26  C16 UNL     1      27.870  -1.738  53.087  1.00  0.00     0.002 A 
HETATM   27  C17 UNL     1      27.277  -0.518  53.303  1.00  0.00     0.030 A 
ENDBRANCH  20  22
ENDBRANCH   5  20
TORSDOF 7
ENDMDL
MODEL 2
REMARK VINA RESULT:      -7.9      0.626      1.138
REMARK  7 active torsions:
REMARK  status: ('A' for Active; 'I' for Inactive)
REMARK    1  A    between atoms: N1_2  and  C2_3 
REMARK    2  A    between atoms: C3_5  and  N3_6 
REMARK    3  A    between atoms: N4_7  and  C4_8 
REMARK    4  A    between atoms: C4_8  and  C5_9 
REMARK    5  A    between atoms: C8_12  and  O1_13 
REMARK    6  A    between atoms: C11_17  and  N6_18 
REMARK    7  A    between atoms: N6_18  and  C12_19 
ROOT
HETATM    1  C2  UNL     1      26.079   3.130  51.137  1.00  0.00     0.753 A 
HETATM    2  N2  UNL     1      24.763   3.447  51.164  1.00  0.00     0.134 NA
HETATM    3  C3  UNL     1      24.028   3.129  52.253  1.00  0.00     0.798 A 
HETATM    4  N5  UNL     1      24.589   2.512  53.289  1.00  0.00     0.135 NA
HETATM    5  C11 UNL     1      25.882   2.199  53.265  1.00  0.00     0.758 A 
HETATM    6  N7  UNL     1      26.642   2.506  52.184  1.00  0.00     0.131 NA
ENDROOT
BRANCH   3   7
HETATM    7  N3  UNL     1      22.662   3.444  52.263  1.00  0.00     0.042 NA
HETATM    8  N4  UNL     1      21.780   2.659  51.908  1.00  0.00    -0.172 NA
BRANCH   8   9
HETATM    9  C4  UNL     1      22.068   1.331  51.444  1.00  0.00     0.209 C 
BRANCH   9  10
HETATM   10  C5  UNL     1      21.404   0.401  52.400  1.00  0.00    -0.052 A 
HETATM   11  C6  UNL     1      20.192  -0.043  52.668  1.00  0.00     0.007 A 
HETATM   12  C7  UNL     1      20.171  -0.987  53.774  1.00  0.00     0.033 A 
HETATM   13  C8  UNL     1      21.431  -1.091  54.162  1.00  0.00     0.049 A 
HETATM   14  C10 UNL     1      22.357  -0.250  53.361  1.00  0.00     0.100 A 
BRANCH  13  15
HETATM   15  O1  UNL     1      22.071  -1.817  55.152  1.00  0.00    -0.360 OA
HETATM   16  C9  UNL     1      23.369  -1.493  55.617  1.00  0.00     0.209 C 
ENDBRANCH  13  15
ENDBRANCH   9  10
ENDBRANCH   8   9
ENDBRANCH   3   7
BRANCH   1  17
HETATM   17  N1  UNL     1      26.827   3.479  49.964  1.00  0.00    -0.226 N 
HETATM   18  C1  UNL     1      26.340   4.653  49.274  1.00  0.00     0.165 C 
HETATM   19  H4  UNL     1      27.608   2.805  49.819  1.00  0.00     0.177 HD
ENDBRANCH   1  17
BRANCH   5  20
HETATM   20  N6  UNL     1      26.704   1.546  54.252  1.00  0.00    -0.187 N 
HETATM   21  H14 UNL     1      26.698   1.896  55.235  1.00  0.00     0.184 HD
BRANCH  20  22
HETATM   22  C12 UNL     1      27.513   0.440  53.886  1.00  0.00     0.049 A 
HETATM   23  C13 UNL     1      26.986  -0.681  53.302  1.00  0.00     0.030 A 
HETATM   24  C14 UNL     1      27.790  -1.737  52.969  1.00  0.00     0.002 A 
HETATM   25  C15 UNL     1      29.172  -1.737  53.200  1.00  0.00     0.000 A 
HETATM   26  C16 UNL     1      29.680  -0.579  53.796  1.00  0.00     0.002 A 
HETATM   27  C17 UNL     1      28.888   0.490  54.138  1.00  0.00     0.030 A 
ENDBRANCH  20  22
ENDBRANCH   5  20
TORSDOF 7
ENDMDL
MODEL 3
REMARK VINA RESULT:      -7.7      1.258      2.199
REMARK  7 active torsions:
REMARK  status: ('A' for Active; 'I' for Inactive)
REMARK    1  A    between atoms: N1_2  and  C2_3 
REMARK    2  A    between atoms: C3_5  and  N3_6 
REMARK    3  A    between atoms: N4_7  and  C4_8 
REMARK    4  A    between atoms: C4_8  and  C5_9 
REMARK    5  A    between atoms: C8_12  and  O1_13 
REMARK    6  A    between atoms: C11_17  and  N6_18 
REMARK    7  A    between atoms: N6_18  and  C12_19 
ROOT
HETATM    1  C2  UNL     1      26.048   2.921  50.848  1.00  0.00     0.753 A 
HETATM    2  N2  UNL     1      24.738   3.220  51.009  1.00  0.00     0.134 NA
HETATM    3  C3  UNL     1      24.156   3.020  52.213  1.00  0.00     0.798 A 
HETATM    4  N5  UNL     1      24.863   2.536  53.231  1.00  0.00     0.135 NA
HETATM    5  C11 UNL     1      26.151   2.241  53.075  1.00  0.00     0.758 A 
HETATM    6  N7  UNL     1      26.758   2.432  51.877  1.00  0.00     0.131 NA
ENDROOT
BRANCH   3   7
HETATM    7  N3  UNL     1      22.795   3.313  52.364  1.00  0.00     0.042 NA
HETATM    8  N4  UNL     1      21.891   2.525  52.074  1.00  0.00    -0.172 NA
BRANCH   8   9
HETATM    9  C4  UNL     1      22.150   1.215  51.546  1.00  0.00     0.209 C 
BRANCH   9  10
HETATM   10  C5  UNL     1      21.604   0.248  52.541  1.00  0.00    -0.052 A 
HETATM   11  C6  UNL     1      22.044  -0.512  53.525  1.00  0.00     0.007 A 
HETATM   12  C7  UNL     1      20.982  -1.273  54.164  1.00  0.00     0.033 A 
HETATM   13  C8  UNL     1      19.879  -0.933  53.518  1.00  0.00     0.049 A 
HETATM   14  C10 UNL     1      20.119   0.053  52.434  1.00  0.00     0.100 A 
BRANCH  13  15
HETATM   15  O1  UNL     1      18.549  -1.300  53.637  1.00  0.00    -0.360 OA
HETATM   16  C9  UNL     1      17.566  -0.925  52.689  1.00  0.00     0.209 C 
ENDBRANCH  13  15
ENDBRANCH   9  10
ENDBRANCH   8   9
ENDBRANCH   3   7
BRANCH   1  17
HETATM   17  N1  UNL     1      26.631   3.142  49.555  1.00  0.00    -0.226 N 
HETATM   18  C1  UNL     1      26.712   4.533  49.168  1.00  0.00     0.165 C 
HETATM   19  H4  UNL     1      26.898   2.234  49.119  1.00  0.00     0.177 HD
ENDBRANCH   1  17
BRANCH   5  20
HETATM   20  N6  UNL     1      27.111   1.720  54.015  1.00  0.00    -0.187 N 
HETATM   21  H14 UNL     1      27.290   2.237  54.904  1.00  0.00     0.184 HD
BRANCH  20  22
HETATM   22  C12 UNL     1      27.805   0.516  53.731  1.00  0.00     0.049 A 
HETATM   23  C13 UNL     1      27.154  -0.612  53.307  1.00  0.00     0.030 A 
HETATM   24  C14 UNL     1      27.849  -1.762  53.049  1.00  0.00     0.002 A 
HETATM   25  C15 UNL     1      29.239  -1.855  53.200  1.00  0.00     0.000 A 
HETATM   26  C16 UNL     1      29.874  -0.687  53.633  1.00  0.00     0.002 A 
HETATM   27  C17 UNL     1      29.193   0.476  53.897  1.00  0.00     0.030 A 
ENDBRANCH  20  22
ENDBRANCH   5  20
TORSDOF 7
ENDMDL
MODEL 4
REMARK VINA RESULT:      -7.4      1.052      4.753
REMARK  7 active torsions:
REMARK  status: ('A' for Active; 'I' for Inactive)
REMARK    1  A    between atoms: N1_2  and  C2_3 
REMARK    2  A    between atoms: C3_5  and  N3_6 
REMARK    3  A    between atoms: N4_7  and  C4_8 
REMARK    4  A    between atoms: C4_8  and  C5_9 
REMARK    5  A    between atoms: C8_12  and  O1_13 
REMARK    6  A    between atoms: C11_17  and  N6_18 
REMARK    7  A    between atoms: N6_18  and  C12_19 
ROOT
HETATM    1  C2  UNL     1      26.462   2.174  52.687  1.00  0.00     0.753 A 
HETATM    2  N2  UNL     1      25.174   2.430  53.017  1.00  0.00     0.134 NA
HETATM    3  C3  UNL     1      24.364   3.021  52.109  1.00  0.00     0.798 A 
HETATM    4  N5  UNL     1      24.824   3.346  50.905  1.00  0.00     0.135 NA
HETATM    5  C11 UNL     1      26.090   3.095  50.579  1.00  0.00     0.758 A 
HETATM    6  N7  UNL     1      26.924   2.505  51.471  1.00  0.00     0.131 NA
ENDROOT
BRANCH   3   7
HETATM    7  N3  UNL     1      23.038   3.300  52.467  1.00  0.00     0.042 NA
HETATM    8  N4  UNL     1      22.109   2.504  52.315  1.00  0.00    -0.172 NA
BRANCH   8   9
HETATM    9  C4  UNL     1      22.296   1.198  51.747  1.00  0.00     0.209 C 
BRANCH   9  10
HETATM   10  C5  UNL     1      21.811   0.226  52.767  1.00  0.00    -0.052 A 
HETATM   11  C6  UNL     1      20.693  -0.397  53.086  1.00  0.00     0.007 A 
HETATM   12  C7  UNL     1      20.845  -1.268  54.241  1.00  0.00     0.033 A 
HETATM   13  C8  UNL     1      22.111  -1.140  54.604  1.00  0.00     0.049 A 
HETATM   14  C10 UNL     1      22.873  -0.204  53.739  1.00  0.00     0.100 A 
BRANCH  13  15
HETATM   15  O1  UNL     1      22.877  -1.693  55.616  1.00  0.00    -0.360 OA
HETATM   16  C9  UNL     1      24.253  -1.401  55.778  1.00  0.00     0.209 C 
ENDBRANCH  13  15
ENDBRANCH   9  10
ENDBRANCH   8   9
ENDBRANCH   3   7
BRANCH   1  17
HETATM   17  N1  UNL     1      27.294   1.551  53.677  1.00  0.00    -0.226 N 
HETATM   18  C1  UNL     1      28.028   0.400  53.198  1.00  0.00     0.165 C 
HETATM   19  H4  UNL     1      27.217   2.056  54.585  1.00  0.00     0.177 HD
ENDBRANCH   1  17
BRANCH   5  20
HETATM   20  N6  UNL     1      26.806   3.345  49.354  1.00  0.00    -0.187 N 
HETATM   21  H14 UNL     1      27.159   2.539  48.793  1.00  0.00     0.184 HD
BRANCH  20  22
HETATM   22  C12 UNL     1      27.029   4.677  48.918  1.00  0.00     0.049 A 
HETATM   23  C13 UNL     1      26.025   5.609  48.897  1.00  0.00     0.030 A 
HETATM   24  C14 UNL     1      26.268   6.883  48.462  1.00  0.00     0.002 A 
HETATM   25  C15 UNL     1      27.529   7.305  48.022  1.00  0.00     0.000 A 
HETATM   26  C16 UNL     1      28.532   6.332  48.056  1.00  0.00     0.002 A 
HETATM   27  C17 UNL     1      28.307   5.047  48.489  1.00  0.00     0.030 A 
ENDBRANCH  20  22
ENDBRANCH   5  20
TORSDOF 7
ENDMDL
MODEL 5
REMARK VINA RESULT:      -7.4      2.733      5.864
REMARK  7 active torsions:
REMARK  status: ('A' for Active; 'I' for Inactive)
REMARK    1  A    between atoms: N1_2  and  C2_3 
REMARK    2  A    between atoms: C3_5  and  N3_6 
REMARK    3  A    between atoms: N4_7  and  C4_8 
REMARK    4  A    between atoms: C4_8  and  C5_9 
REMARK    5  A    between atoms: C8_12  and  O1_13 
REMARK    6  A    between atoms: C11_17  and  N6_18 
REMARK    7  A    between atoms: N6_18  and  C12_19 
ROOT
HETATM    1  C2  UNL     1      23.398   0.070  53.219  1.00  0.00     0.753 A 
HETATM    2  N2  UNL     1      22.889   1.117  52.530  1.00  0.00     0.134 NA
HETATM    3  C3  UNL     1      23.575   2.282  52.495  1.00  0.00     0.798 A 
HETATM    4  N5  UNL     1      24.739   2.399  53.129  1.00  0.00     0.135 NA
HETATM    5  C11 UNL     1      25.240   1.369  53.807  1.00  0.00     0.758 A 
HETATM    6  N7  UNL     1      24.572   0.191  53.859  1.00  0.00     0.131 NA
ENDROOT
BRANCH   3   7
HETATM    7  N3  UNL     1      23.031   3.367  51.795  1.00  0.00     0.042 NA
HETATM    8  N4  UNL     1      23.430   3.734  50.688  1.00  0.00    -0.172 NA
BRANCH   8   9
HETATM    9  C4  UNL     1      24.506   3.079  49.999  1.00  0.00     0.209 C 
BRANCH   9  10
HETATM   10  C5  UNL     1      25.384   4.161  49.470  1.00  0.00    -0.052 A 
HETATM   11  C6  UNL     1      25.284   5.424  49.102  1.00  0.00     0.007 A 
HETATM   12  C7  UNL     1      26.550   5.979  48.650  1.00  0.00     0.033 A 
HETATM   13  C8  UNL     1      27.419   4.988  48.763  1.00  0.00     0.049 A 
HETATM   14  C10 UNL     1      26.813   3.738  49.287  1.00  0.00     0.100 A 
BRANCH  13  15
HETATM   15  O1  UNL     1      28.773   4.868  48.497  1.00  0.00    -0.360 OA
HETATM   16  C9  UNL     1      29.540   5.926  47.951  1.00  0.00     0.209 C 
ENDBRANCH  13  15
ENDBRANCH   9  10
ENDBRANCH   8   9
ENDBRANCH   3   7
BRANCH   1  17
HETATM   17  N1  UNL     1      22.640  -1.149  53.238  1.00  0.00    -0.226 N 
HETATM   18  C1  UNL     1      21.731  -1.268  54.357  1.00  0.00     0.165 C 
HETATM   19  H4  UNL     1      22.889  -1.743  52.419  1.00  0.00     0.177 HD
ENDBRANCH   1  17
BRANCH   5  20
HETATM   20  N6  UNL     1      26.465   1.253  54.557  1.00  0.00    -0.187 N 
HETATM   21  H14 UNL     1      26.578   1.795  55.441  1.00  0.00     0.184 HD
BRANCH  20  22
HETATM   22  C12 UNL     1      27.507   0.409  54.092  1.00  0.00     0.049 A 
HETATM   23  C13 UNL     1      28.828   0.716  54.283  1.00  0.00     0.030 A 
HETATM   24  C14 UNL     1      29.810  -0.112  53.814  1.00  0.00     0.002 A 
HETATM   25  C15 UNL     1      29.532  -1.300  53.125  1.00  0.00     0.000 A 
HETATM   26  C16 UNL     1      28.176  -1.587  52.947  1.00  0.00     0.002 A 
HETATM   27  C17 UNL     1      27.176  -0.766  53.410  1.00  0.00     0.030 A 
ENDBRANCH  20  22
ENDBRANCH   5  20
TORSDOF 7
ENDMDL
MODEL 6
REMARK VINA RESULT:      -7.3      1.944      3.013
REMARK  7 active torsions:
REMARK  status: ('A' for Active; 'I' for Inactive)
REMARK    1  A    between atoms: N1_2  and  C2_3 
REMARK    2  A    between atoms: C3_5  and  N3_6 
REMARK    3  A    between atoms: N4_7  and  C4_8 
REMARK    4  A    between atoms: C4_8  and  C5_9 
REMARK    5  A    between atoms: C8_12  and  O1_13 
REMARK    6  A    between atoms: C11_17  and  N6_18 
REMARK    7  A    between atoms: N6_18  and  C12_19 
ROOT
HETATM    1  C2  UNL     1      22.931   5.243  51.320  1.00  0.00     0.753 A 
HETATM    2  N2  UNL     1      21.931   4.404  50.964  1.00  0.00     0.134 NA
HETATM    3  C3  UNL     1      22.189   3.082  50.841  1.00  0.00     0.798 A 
HETATM    4  N5  UNL     1      23.412   2.610  51.068  1.00  0.00     0.135 NA
HETATM    5  C11 UNL     1      24.396   3.434  51.419  1.00  0.00     0.758 A 
HETATM    6  N7  UNL     1      24.164   4.764  51.548  1.00  0.00     0.131 NA
ENDROOT
BRANCH   3   7
HETATM    7  N3  UNL     1      21.152   2.224  50.452  1.00  0.00     0.042 NA
HETATM    8  N4  UNL     1      20.396   1.663  51.249  1.00  0.00    -0.172 NA
BRANCH   8   9
HETATM    9  C4  UNL     1      20.507   1.835  52.670  1.00  0.00     0.209 C 
BRANCH   9  10
HETATM   10  C5  UNL     1      20.427   0.470  53.263  1.00  0.00    -0.052 A 
HETATM   11  C6  UNL     1      19.588  -0.547  53.295  1.00  0.00     0.007 A 
HETATM   12  C7  UNL     1      20.089  -1.665  54.078  1.00  0.00     0.033 A 
HETATM   13  C8  UNL     1      21.273  -1.272  54.519  1.00  0.00     0.049 A 
HETATM   14  C10 UNL     1      21.637   0.096  54.070  1.00  0.00     0.100 A 
BRANCH  13  15
HETATM   15  O1  UNL     1      22.245  -1.865  55.307  1.00  0.00    -0.360 OA
HETATM   16  C9  UNL     1      23.528  -1.294  55.494  1.00  0.00     0.209 C 
ENDBRANCH  13  15
ENDBRANCH   9  10
ENDBRANCH   8   9
ENDBRANCH   3   7
BRANCH   1  17
HETATM   17  N1  UNL     1      22.622   6.640  51.437  1.00  0.00    -0.226 N 
HETATM   18  C1  UNL     1      21.595   7.101  50.529  1.00  0.00     0.165 C 
HETATM   19  H4  UNL     1      23.210   7.080  52.176  1.00  0.00     0.177 HD
ENDBRANCH   1  17
BRANCH   5  20
HETATM   20  N6  UNL     1      25.779   3.162  51.720  1.00  0.00    -0.187 N 
HETATM   21  H14 UNL     1      26.509   3.852  51.438  1.00  0.00     0.184 HD
BRANCH  20  22
HETATM   22  C12 UNL     1      26.139   1.965  52.391  1.00  0.00     0.049 A 
HETATM   23  C13 UNL     1      26.469   0.824  51.710  1.00  0.00     0.030 A 
HETATM   24  C14 UNL     1      26.802  -0.318  52.386  1.00  0.00     0.002 A 
HETATM   25  C15 UNL     1      26.827  -0.389  53.784  1.00  0.00     0.000 A 
HETATM   26  C16 UNL     1      26.488   0.792  54.451  1.00  0.00     0.002 A 
HETATM   27  C17 UNL     1      26.149   1.947  53.789  1.00  0.00     0.030 A 
ENDBRANCH  20  22
ENDBRANCH   5  20
TORSDOF 7
ENDMDL
MODEL 7
REMARK VINA RESULT:      -7.3      3.105      6.201
REMARK  7 active torsions:
REMARK  status: ('A' for Active; 'I' for Inactive)
REMARK    1  A    between atoms: N1_2  and  C2_3 
REMARK    2  A    between atoms: C3_5  and  N3_6 
REMARK    3  A    between atoms: N4_7  and  C4_8 
REMARK    4  A    between atoms: C4_8  and  C5_9 
REMARK    5  A    between atoms: C8_12  and  O1_13 
REMARK    6  A    between atoms: C11_17  and  N6_18 
REMARK    7  A    between atoms: N6_18  and  C12_19 
ROOT
HETATM    1  C2  UNL     1      21.962   0.710  52.169  1.00  0.00     0.753 A 
HETATM    2  N2  UNL     1      22.252   2.028  52.076  1.00  0.00     0.134 NA
HETATM    3  C3  UNL     1      23.445   2.477  52.531  1.00  0.00     0.798 A 
HETATM    4  N5  UNL     1      24.324   1.633  53.063  1.00  0.00     0.135 NA
HETATM    5  C11 UNL     1      24.040   0.336  53.155  1.00  0.00     0.758 A 
HETATM    6  N7  UNL     1      22.852  -0.140  52.707  1.00  0.00     0.131 NA
ENDROOT
BRANCH   3   7
HETATM    7  N3  UNL     1      23.727   3.847  52.449  1.00  0.00     0.042 NA
HETATM    8  N4  UNL     1      24.108   4.403  51.416  1.00  0.00    -0.172 NA
BRANCH   8   9
HETATM    9  C4  UNL     1      24.302   3.694  50.184  1.00  0.00     0.209 C 
BRANCH   9  10
HETATM   10  C5  UNL     1      25.565   4.222  49.592  1.00  0.00    -0.052 A 
HETATM   11  C6  UNL     1      26.790   3.803  49.340  1.00  0.00     0.007 A 
HETATM   12  C7  UNL     1      27.616   4.825  48.718  1.00  0.00     0.033 A 
HETATM   13  C8  UNL     1      26.830   5.883  48.607  1.00  0.00     0.049 A 
HETATM   14  C10 UNL     1      25.460   5.647  49.129  1.00  0.00     0.100 A 
BRANCH  13  15
HETATM   15  O1  UNL     1      27.011   7.161  48.107  1.00  0.00    -0.360 OA
HETATM   16  C9  UNL     1      27.882   8.100  48.712  1.00  0.00     0.209 C 
ENDBRANCH  13  15
ENDBRANCH   9  10
ENDBRANCH   8   9
ENDBRANCH   3   7
BRANCH   1  17
HETATM   17  N1  UNL     1      20.686   0.270  51.680  1.00  0.00    -0.226 N 
HETATM   18  C1  UNL     1      19.554   0.932  52.291  1.00  0.00     0.165 C 
HETATM   19  H4  UNL     1      20.811  -0.466  50.953  1.00  0.00     0.177 HD
ENDBRANCH   1  17
BRANCH   5  20
HETATM   20  N6  UNL     1      24.821  -0.756  53.678  1.00  0.00    -0.187 N 
HETATM   21  H14 UNL     1      24.341  -1.635  53.971  1.00  0.00     0.184 HD
BRANCH  20  22
HETATM   22  C12 UNL     1      26.230  -0.632  53.792  1.00  0.00     0.049 A 
HETATM   23  C13 UNL     1      27.085  -1.273  52.935  1.00  0.00     0.030 A 
HETATM   24  C14 UNL     1      28.440  -1.143  53.076  1.00  0.00     0.002 A 
HETATM   25  C15 UNL     1      29.023  -0.363  54.084  1.00  0.00     0.000 A 
HETATM   26  C16 UNL     1      28.125   0.278  54.941  1.00  0.00     0.002 A 
HETATM   27  C17 UNL     1      26.762   0.158  54.815  1.00  0.00     0.030 A 
ENDBRANCH  20  22
ENDBRANCH   5  20
TORSDOF 7
ENDMDL
MODEL 8
REMARK VINA RESULT:      -7.2      3.379      6.367
REMARK  7 active torsions:
REMARK  status: ('A' for Active; 'I' for Inactive)
REMARK    1  A    between atoms: N1_2  and  C2_3 
REMARK    2  A    between atoms: C3_5  and  N3_6 
REMARK    3  A    between atoms: N4_7  and  C4_8 
REMARK    4  A    between atoms: C4_8  and  C5_9 
REMARK    5  A    between atoms: C8_12  and  O1_13 
REMARK    6  A    between atoms: C11_17  and  N6_18 
REMARK    7  A    between atoms: N6_18  and  C12_19 
ROOT
HETATM    1  C2  UNL     1      22.683   1.780  50.579  1.00  0.00     0.753 A 
HETATM    2  N2  UNL     1      22.957   3.102  50.489  1.00  0.00     0.134 NA
HETATM    3  C3  UNL     1      23.745   3.680  51.424  1.00  0.00     0.798 A 
HETATM    4  N5  UNL     1      24.248   2.958  52.422  1.00  0.00     0.135 NA
HETATM    5  C11 UNL     1      23.980   1.657  52.511  1.00  0.00     0.758 A 
HETATM    6  N7  UNL     1      23.192   1.054  51.587  1.00  0.00     0.131 NA
ENDROOT
BRANCH   3   7
HETATM    7  N3  UNL     1      24.006   5.053  51.334  1.00  0.00     0.042 NA
HETATM    8  N4  UNL     1      24.610   5.572  50.392  1.00  0.00    -0.172 NA
BRANCH   8   9
HETATM    9  C4  UNL     1      25.111   4.810  49.283  1.00  0.00     0.209 C 
BRANCH   9  10
HETATM   10  C5  UNL     1      26.333   5.520  48.807  1.00  0.00    -0.052 A 
HETATM   11  C6  UNL     1      26.676   6.720  48.382  1.00  0.00     0.007 A 
HETATM   12  C7  UNL     1      28.088   6.813  48.044  1.00  0.00     0.033 A 
HETATM   13  C8  UNL     1      28.580   5.609  48.286  1.00  0.00     0.049 A 
HETATM   14  C10 UNL     1      27.561   4.655  48.792  1.00  0.00     0.100 A 
BRANCH  13  15
HETATM   15  O1  UNL     1      29.841   5.050  48.170  1.00  0.00    -0.360 OA
HETATM   16  C9  UNL     1      31.025   5.773  48.455  1.00  0.00     0.209 C 
ENDBRANCH  13  15
ENDBRANCH   9  10
ENDBRANCH   8   9
ENDBRANCH   3   7
BRANCH   1  17
HETATM   17  N1  UNL     1      21.840   1.202  49.572  1.00  0.00    -0.226 N 
HETATM   18  C1  UNL     1      22.069   1.712  48.238  1.00  0.00     0.165 C 
HETATM   19  H4  UNL     1      21.199   0.499  49.997  1.00  0.00     0.177 HD
ENDBRANCH   1  17
BRANCH   5  20
HETATM   20  N6  UNL     1      24.408   0.680  53.481  1.00  0.00    -0.187 N 
HETATM   21  H14 UNL     1      23.717   0.300  54.164  1.00  0.00     0.184 HD
BRANCH  20  22
HETATM   22  C12 UNL     1      25.757   0.243  53.502  1.00  0.00     0.049 A 
HETATM   23  C13 UNL     1      26.724   0.914  54.202  1.00  0.00     0.030 A 
HETATM   24  C14 UNL     1      28.020   0.474  54.197  1.00  0.00     0.002 A 
HETATM   25  C15 UNL     1      28.428  -0.665  53.491  1.00  0.00     0.000 A 
HETATM   26  C16 UNL     1      27.418  -1.329  52.788  1.00  0.00     0.002 A 
HETATM   27  C17 UNL     1      26.113  -0.901  52.781  1.00  0.00     0.030 A 
ENDBRANCH  20  22
ENDBRANCH   5  20
TORSDOF 7
ENDMDL
MODEL 9
REMARK VINA RESULT:      -7.0      3.094      6.204
REMARK  7 active torsions:
REMARK  status: ('A' for Active; 'I' for Inactive)
REMARK    1  A    between atoms: N1_2  and  C2_3 
REMARK    2  A    between atoms: C3_5  and  N3_6 
REMARK    3  A    between atoms: N4_7  and  C4_8 
REMARK    4  A    between atoms: C4_8  and  C5_9 
REMARK    5  A    between atoms: C8_12  and  O1_13 
REMARK    6  A    between atoms: C11_17  and  N6_18 
REMARK    7  A    between atoms: N6_18  and  C12_19 
ROOT
HETATM    1  C2  UNL     1      27.664   1.166  53.848  1.00  0.00     0.753 A 
HETATM    2  N2  UNL     1      27.785   2.027  52.810  1.00  0.00     0.134 NA
HETATM    3  C3  UNL     1      26.880   1.984  51.806  1.00  0.00     0.798 A 
HETATM    4  N5  UNL     1      25.881   1.107  51.836  1.00  0.00     0.135 NA
HETATM    5  C11 UNL     1      25.761   0.260  52.855  1.00  0.00     0.758 A 
HETATM    6  N7  UNL     1      26.655   0.281  53.874  1.00  0.00     0.131 NA
ENDROOT
BRANCH   3   7
HETATM    7  N3  UNL     1      27.026   2.866  50.727  1.00  0.00     0.042 NA
HETATM    8  N4  UNL     1      26.139   3.636  50.351  1.00  0.00    -0.172 NA
BRANCH   8   9
HETATM    9  C4  UNL     1      24.854   3.703  50.989  1.00  0.00     0.209 C 
BRANCH   9  10
HETATM   10  C5  UNL     1      23.846   3.419  49.928  1.00  0.00    -0.052 A 
HETATM   11  C6  UNL     1      23.081   2.420  49.534  1.00  0.00     0.007 A 
HETATM   12  C7  UNL     1      22.265   2.760  48.379  1.00  0.00     0.033 A 
HETATM   13  C8  UNL     1      22.575   4.014  48.096  1.00  0.00     0.049 A 
HETATM   14  C10 UNL     1      23.589   4.585  49.018  1.00  0.00     0.100 A 
BRANCH  13  15
HETATM   15  O1  UNL     1      22.156   4.907  47.124  1.00  0.00    -0.360 OA
HETATM   16  C9  UNL     1      22.771   6.168  46.931  1.00  0.00     0.209 C 
ENDBRANCH  13  15
ENDBRANCH   9  10
ENDBRANCH   8   9
ENDBRANCH   3   7
BRANCH   1  17
HETATM   17  N1  UNL     1      28.645   1.237  54.893  1.00  0.00    -0.226 N 
HETATM   18  C1  UNL     1      29.768   2.100  54.599  1.00  0.00     0.165 C 
HETATM   19  H4  UNL     1      28.360   0.639  55.697  1.00  0.00     0.177 HD
ENDBRANCH   1  17
BRANCH   5  20
HETATM   20  N6  UNL     1      24.775  -0.760  53.110  1.00  0.00    -0.187 N 
HETATM   21  H14 UNL     1      25.050  -1.765  53.050  1.00  0.00     0.184 HD
BRANCH  20  22
HETATM   22  C12 UNL     1      23.444  -0.397  53.438  1.00  0.00     0.049 A 
HETATM   23  C13 UNL     1      22.737   0.512  52.697  1.00  0.00     0.030 A 
HETATM   24  C14 UNL     1      21.458   0.851  53.044  1.00  0.00     0.002 A 
HETATM   25  C15 UNL     1      20.806   0.300  54.154  1.00  0.00     0.000 A 
HETATM   26  C16 UNL     1      21.551  -0.625  54.890  1.00  0.00     0.002 A 
HETATM   27  C17 UNL     1      22.837  -0.976  54.557  1.00  0.00     0.030 A 
ENDBRANCH  20  22
ENDBRANCH   5  20
TORSDOF 7
ENDMDL
