MODEL 1
REMARK VINA RESULT:      -8.8      0.000      0.000
REMARK  4 active torsions:
REMARK  status: ('A' for Active; 'I' for Inactive)
REMARK    1  A    between atoms: C2_2  and  O1_4 
REMARK    2  A    between atoms: O1_4  and  C4_5 
REMARK    3  A    between atoms: C8_11  and  N3_12 
REMARK    4  A    between atoms: N3_12  and  C9_13 
ROOT
HETATM    1  C4  UNL     1      26.406   0.142  52.960  1.00  0.00     0.107 A 
HETATM    2  C5  UNL     1      25.749  -0.628  53.929  1.00  0.00     0.072 A 
HETATM    3  C6  UNL     1      24.376  -0.542  54.102  1.00  0.00     0.077 A 
HETATM    4  N1  UNL     1      23.709  -1.268  55.027  1.00  0.00    -0.241 NA
HETATM    5  C7  UNL     1      22.376  -1.164  55.176  1.00  0.00     0.236 A 
HETATM    6  N2  UNL     1      21.688  -0.333  54.404  1.00  0.00    -0.223 NA
HETATM    7  C8  UNL     1      22.236   0.436  53.455  1.00  0.00     0.144 A 
HETATM    8  C15 UNL     1      23.589   0.303  53.334  1.00  0.00     0.075 A 
HETATM    9  C16 UNL     1      24.243   1.051  52.389  1.00  0.00     0.121 A 
HETATM   10  C17 UNL     1      25.605   0.959  52.225  1.00  0.00     0.136 A 
HETATM   11  O2  UNL     1      26.219   1.723  51.273  1.00  0.00    -0.344 OA
HETATM   12  C18 UNL     1      25.704   2.994  50.856  1.00  0.00     0.202 C 
HETATM   13  C19 UNL     1      24.250   3.164  51.175  1.00  0.00     0.202 C 
HETATM   14  O3  UNL     1      23.634   1.943  51.534  1.00  0.00    -0.345 OA
ENDROOT
BRANCH   7  15
HETATM   15  N3  UNL     1      21.419   1.293  52.682  1.00  0.00    -0.340 N 
HETATM   16  H10 UNL     1      21.392   2.282  52.396  1.00  0.00     0.167 HD
BRANCH  15  17
HETATM   17  C9  UNL     1      20.248   0.804  52.042  1.00  0.00     0.035 A 
HETATM   18  C10 UNL     1      19.930   1.219  50.757  1.00  0.00     0.032 A 
HETATM   19  C11 UNL     1      18.802   0.805  50.087  1.00  0.00     0.046 A 
HETATM   20  C12 UNL     1      17.909  -0.066  50.677  1.00  0.00     0.138 A 
HETATM   21  F1  UNL     1      16.780  -0.520  50.090  1.00  0.00    -0.204 F 
HETATM   22  C13 UNL     1      18.160  -0.519  51.950  1.00  0.00     0.074 A 
HETATM   23 CL1  UNL     1      17.096  -1.624  52.790  1.00  0.00    -0.081 Cl
HETATM   24  C14 UNL     1      19.295  -0.077  52.572  1.00  0.00     0.056 A 
ENDBRANCH  15  17
ENDBRANCH   7  15
BRANCH   1  25
HETATM   25  O1  UNL     1      27.747  -0.088  52.951  1.00  0.00    -0.344 OA
BRANCH  25  26
HETATM   26  C2  UNL     1      28.670  -0.118  53.973  1.00  0.00     0.121 C 
HETATM   27  C1  UNL     1      29.918  -0.883  53.511  1.00  0.00     0.040 C 
HETATM   28  C3  UNL     1      29.136   1.327  54.201  1.00  0.00     0.040 C 
ENDBRANCH  25  26
ENDBRANCH   1  25
TORSDOF 4
ENDMDL
MODEL 2
REMARK VINA RESULT:      -8.7      3.944      7.686
REMARK  4 active torsions:
REMARK  status: ('A' for Active; 'I' for Inactive)
REMARK    1  A    between atoms: C2_2  and  O1_4 
REMARK    2  A    between atoms: O1_4  and  C4_5 
REMARK    3  A    between atoms: C8_11  and  N3_12 
REMARK    4  A    between atoms: N3_12  and  C9_13 
ROOT
HETATM    1  C4  UNL     1      19.601   0.305  52.373  1.00  0.00     0.107 A 
HETATM    2  C5  UNL     1      19.956  -0.498  53.465  1.00  0.00     0.072 A 
HETATM    3  C6  UNL     1      21.278  -0.612  53.870  1.00  0.00     0.077 A 
HETATM    4  N1  UNL     1      21.658  -1.377  54.917  1.00  0.00    -0.241 NA
HETATM    5  C7  UNL     1      22.948  -1.472  55.288  1.00  0.00     0.236 A 
HETATM    6  N2  UNL     1      23.879  -0.805  54.619  1.00  0.00    -0.223 NA
HETATM    7  C8  UNL     1      23.625  -0.016  53.567  1.00  0.00     0.144 A 
HETATM    8  C15 UNL     1      22.307   0.055  53.222  1.00  0.00     0.075 A 
HETATM    9  C16 UNL     1      21.946   0.837  52.154  1.00  0.00     0.121 A 
HETATM   10  C17 UNL     1      20.633   0.944  51.760  1.00  0.00     0.136 A 
HETATM   11  O2  UNL     1      20.317   1.733  50.691  1.00  0.00    -0.344 OA
HETATM   12  C18 UNL     1      21.230   1.973  49.613  1.00  0.00     0.202 C 
HETATM   13  C19 UNL     1      22.656   1.707  49.991  1.00  0.00     0.202 C 
HETATM   14  O3  UNL     1      22.824   1.574  51.388  1.00  0.00    -0.345 OA
ENDROOT
BRANCH   7  15
HETATM   15  N3  UNL     1      24.686   0.656  52.916  1.00  0.00    -0.340 N 
HETATM   16  H10 UNL     1      24.813   1.393  52.209  1.00  0.00     0.167 HD
BRANCH  15  17
HETATM   17  C9  UNL     1      26.040   0.337  53.208  1.00  0.00     0.035 A 
HETATM   18  C10 UNL     1      26.880   1.296  53.754  1.00  0.00     0.032 A 
HETATM   19  C11 UNL     1      28.206   1.064  54.039  1.00  0.00     0.046 A 
HETATM   20  C12 UNL     1      28.779  -0.166  53.790  1.00  0.00     0.138 A 
HETATM   21  F1  UNL     1      30.069  -0.475  54.039  1.00  0.00    -0.204 F 
HETATM   22  C13 UNL     1      28.005  -1.165  53.249  1.00  0.00     0.074 A 
HETATM   23 CL1  UNL     1      28.628  -2.760  52.894  1.00  0.00    -0.081 Cl
HETATM   24  C14 UNL     1      26.693  -0.884  52.984  1.00  0.00     0.056 A 
ENDBRANCH  15  17
ENDBRANCH   7  15
BRANCH   1  25
HETATM   25  O1  UNL     1      18.261   0.282  52.139  1.00  0.00    -0.344 OA
BRANCH  25  26
HETATM   26  C2  UNL     1      17.408  -0.761  51.852  1.00  0.00     0.121 C 
HETATM   27  C1  UNL     1      16.218  -0.728  52.821  1.00  0.00     0.040 C 
HETATM   28  C3  UNL     1      16.814  -0.487  50.463  1.00  0.00     0.040 C 
ENDBRANCH  25  26
ENDBRANCH   1  25
TORSDOF 4
ENDMDL
MODEL 3
REMARK VINA RESULT:      -8.6      5.107      7.825
REMARK  4 active torsions:
REMARK  status: ('A' for Active; 'I' for Inactive)
REMARK    1  A    between atoms: C2_2  and  O1_4 
REMARK    2  A    between atoms: O1_4  and  C4_5 
REMARK    3  A    between atoms: C8_11  and  N3_12 
REMARK    4  A    between atoms: N3_12  and  C9_13 
ROOT
HETATM    1  C4  UNL     1      22.558   1.270  52.483  1.00  0.00     0.107 A 
HETATM    2  C5  UNL     1      23.786   1.207  53.153  1.00  0.00     0.072 A 
HETATM    3  C6  UNL     1      24.946   1.695  52.569  1.00  0.00     0.077 A 
HETATM    4  N1  UNL     1      26.149   1.650  53.184  1.00  0.00    -0.241 NA
HETATM    5  C7  UNL     1      27.259   2.128  52.595  1.00  0.00     0.236 A 
HETATM    6  N2  UNL     1      27.187   2.658  51.380  1.00  0.00    -0.223 NA
HETATM    7  C8  UNL     1      26.055   2.758  50.673  1.00  0.00     0.144 A 
HETATM    8  C15 UNL     1      24.951   2.263  51.304  1.00  0.00     0.075 A 
HETATM    9  C16 UNL     1      23.742   2.318  50.658  1.00  0.00     0.121 A 
HETATM   10  C17 UNL     1      22.597   1.833  51.246  1.00  0.00     0.136 A 
HETATM   11  O2  UNL     1      21.413   1.906  50.568  1.00  0.00    -0.344 OA
HETATM   12  C18 UNL     1      21.343   1.886  49.136  1.00  0.00     0.202 C 
HETATM   13  C19 UNL     1      22.638   2.264  48.486  1.00  0.00     0.202 C 
HETATM   14  O3  UNL     1      23.547   2.846  49.400  1.00  0.00    -0.345 OA
ENDROOT
BRANCH   7  15
HETATM   15  N3  UNL     1      26.077   3.339  49.383  1.00  0.00    -0.340 N 
HETATM   16  H10 UNL     1      25.837   3.079  48.416  1.00  0.00     0.167 HD
BRANCH  15  17
HETATM   17  C9  UNL     1      26.541   4.668  49.190  1.00  0.00     0.035 A 
HETATM   18  C10 UNL     1      25.792   5.742  49.648  1.00  0.00     0.032 A 
HETATM   19  C11 UNL     1      26.169   7.054  49.474  1.00  0.00     0.046 A 
HETATM   20  C12 UNL     1      27.340   7.373  48.818  1.00  0.00     0.138 A 
HETATM   21  F1  UNL     1      27.782   8.631  48.606  1.00  0.00    -0.204 F 
HETATM   22  C13 UNL     1      28.134   6.358  48.337  1.00  0.00     0.074 A 
HETATM   23 CL1  UNL     1      29.638   6.650  47.493  1.00  0.00    -0.081 Cl
HETATM   24  C14 UNL     1      27.714   5.072  48.536  1.00  0.00     0.056 A 
ENDBRANCH  15  17
ENDBRANCH   7  15
BRANCH   1  25
HETATM   25  O1  UNL     1      21.547   0.741  53.223  1.00  0.00    -0.344 OA
BRANCH  25  26
HETATM   26  C2  UNL     1      21.079  -0.551  53.331  1.00  0.00     0.121 C 
HETATM   27  C1  UNL     1      21.459  -1.119  54.705  1.00  0.00     0.040 C 
HETATM   28  C3  UNL     1      19.546  -0.477  53.326  1.00  0.00     0.040 C 
ENDBRANCH  25  26
ENDBRANCH   1  25
TORSDOF 4
ENDMDL
MODEL 4
REMARK VINA RESULT:      -8.5      4.067      7.646
REMARK  4 active torsions:
REMARK  status: ('A' for Active; 'I' for Inactive)
REMARK    1  A    between atoms: C2_2  and  O1_4 
REMARK    2  A    between atoms: O1_4  and  C4_5 
REMARK    3  A    between atoms: C8_11  and  N3_12 
REMARK    4  A    between atoms: N3_12  and  C9_13 
ROOT
HETATM    1  C4  UNL     1      20.533   2.870  52.227  1.00  0.00     0.107 A 
HETATM    2  C5  UNL     1      20.577   1.699  52.995  1.00  0.00     0.072 A 
HETATM    3  C6  UNL     1      21.769   1.015  53.189  1.00  0.00     0.077 A 
HETATM    4  N1  UNL     1      21.850  -0.117  53.921  1.00  0.00    -0.241 NA
HETATM    5  C7  UNL     1      23.018  -0.763  54.093  1.00  0.00     0.236 A 
HETATM    6  N2  UNL     1      24.123  -0.288  53.534  1.00  0.00    -0.223 NA
HETATM    7  C8  UNL     1      24.168   0.823  52.788  1.00  0.00     0.144 A 
HETATM    8  C15 UNL     1      22.965   1.449  52.638  1.00  0.00     0.075 A 
HETATM    9  C16 UNL     1      22.908   2.597  51.888  1.00  0.00     0.121 A 
HETATM   10  C17 UNL     1      21.722   3.268  51.702  1.00  0.00     0.136 A 
HETATM   11  O2  UNL     1      21.708   4.407  50.947  1.00  0.00    -0.344 OA
HETATM   12  C18 UNL     1      22.638   4.635  49.880  1.00  0.00     0.202 C 
HETATM   13  C19 UNL     1      23.869   3.788  49.992  1.00  0.00     0.202 C 
HETATM   14  O3  UNL     1      23.988   3.181  51.263  1.00  0.00    -0.345 OA
ENDROOT
BRANCH   7  15
HETATM   15  N3  UNL     1      25.396   1.251  52.232  1.00  0.00    -0.340 N 
HETATM   16  H10 UNL     1      25.729   1.909  51.513  1.00  0.00     0.167 HD
BRANCH  15  17
HETATM   17  C9  UNL     1      26.630   0.712  52.685  1.00  0.00     0.035 A 
HETATM   18  C10 UNL     1      27.613   1.549  53.193  1.00  0.00     0.032 A 
HETATM   19  C11 UNL     1      28.837   1.098  53.628  1.00  0.00     0.046 A 
HETATM   20  C12 UNL     1      29.157  -0.243  53.577  1.00  0.00     0.138 A 
HETATM   21  F1  UNL     1      30.334  -0.767  53.982  1.00  0.00    -0.204 F 
HETATM   22  C13 UNL     1      28.230  -1.132  53.085  1.00  0.00     0.074 A 
HETATM   23 CL1  UNL     1      28.530  -2.852  52.978  1.00  0.00    -0.081 Cl
HETATM   24  C14 UNL     1      27.027  -0.633  52.666  1.00  0.00     0.056 A 
ENDBRANCH  15  17
ENDBRANCH   7  15
BRANCH   1  25
HETATM   25  O1  UNL     1      19.276   3.386  52.159  1.00  0.00    -0.344 OA
BRANCH  25  26
HETATM   26  C2  UNL     1      18.129   2.909  51.562  1.00  0.00     0.121 C 
HETATM   27  C1  UNL     1      17.029   3.976  51.643  1.00  0.00     0.040 C 
HETATM   28  C3  UNL     1      18.435   2.747  50.066  1.00  0.00     0.040 C 
ENDBRANCH  25  26
ENDBRANCH   1  25
TORSDOF 4
ENDMDL
MODEL 5
REMARK VINA RESULT:      -8.4      4.797      7.597
REMARK  4 active torsions:
REMARK  status: ('A' for Active; 'I' for Inactive)
REMARK    1  A    between atoms: C2_2  and  O1_4 
REMARK    2  A    between atoms: O1_4  and  C4_5 
REMARK    3  A    between atoms: C8_11  and  N3_12 
REMARK    4  A    between atoms: N3_12  and  C9_13 
ROOT
HETATM    1  C4  UNL     1      23.376   0.927  52.996  1.00  0.00     0.107 A 
HETATM    2  C5  UNL     1      22.463   1.530  52.122  1.00  0.00     0.072 A 
HETATM    3  C6  UNL     1      22.897   2.296  51.049  1.00  0.00     0.077 A 
HETATM    4  N1  UNL     1      22.045   2.894  50.187  1.00  0.00    -0.241 NA
HETATM    5  C7  UNL     1      22.492   3.633  49.155  1.00  0.00     0.236 A 
HETATM    6  N2  UNL     1      23.797   3.787  48.969  1.00  0.00    -0.223 NA
HETATM    7  C8  UNL     1      24.735   3.244  49.755  1.00  0.00     0.144 A 
HETATM    8  C15 UNL     1      24.243   2.502  50.789  1.00  0.00     0.075 A 
HETATM    9  C16 UNL     1      25.127   1.906  51.652  1.00  0.00     0.121 A 
HETATM   10  C17 UNL     1      24.687   1.149  52.713  1.00  0.00     0.136 A 
HETATM   11  O2  UNL     1      25.601   0.574  53.549  1.00  0.00    -0.344 OA
HETATM   12  C18 UNL     1      26.896   1.142  53.785  1.00  0.00     0.202 C 
HETATM   13  C19 UNL     1      27.316   2.093  52.706  1.00  0.00     0.202 C 
HETATM   14  O3  UNL     1      26.499   1.995  51.557  1.00  0.00    -0.345 OA
ENDROOT
BRANCH   7  15
HETATM   15  N3  UNL     1      26.104   3.465  49.477  1.00  0.00    -0.340 N 
HETATM   16  H10 UNL     1      26.973   2.919  49.400  1.00  0.00     0.167 HD
BRANCH  15  17
HETATM   17  C9  UNL     1      26.590   4.772  49.201  1.00  0.00     0.035 A 
HETATM   18  C10 UNL     1      27.779   4.941  48.505  1.00  0.00     0.032 A 
HETATM   19  C11 UNL     1      28.319   6.175  48.224  1.00  0.00     0.046 A 
HETATM   20  C12 UNL     1      27.690   7.333  48.632  1.00  0.00     0.138 A 
HETATM   21  F1  UNL     1      28.153   8.580  48.398  1.00  0.00    -0.204 F 
HETATM   22  C13 UNL     1      26.507   7.241  49.326  1.00  0.00     0.074 A 
HETATM   23 CL1  UNL     1      25.626   8.644  49.887  1.00  0.00    -0.081 Cl
HETATM   24  C14 UNL     1      26.011   5.992  49.580  1.00  0.00     0.056 A 
ENDBRANCH  15  17
ENDBRANCH   7  15
BRANCH   1  25
HETATM   25  O1  UNL     1      22.751   0.223  53.978  1.00  0.00    -0.344 OA
BRANCH  25  26
HETATM   26  C2  UNL     1      22.631  -1.134  54.187  1.00  0.00     0.121 C 
HETATM   27  C1  UNL     1      23.259  -1.500  55.539  1.00  0.00     0.040 C 
HETATM   28  C3  UNL     1      21.132  -1.435  54.336  1.00  0.00     0.040 C 
ENDBRANCH  25  26
ENDBRANCH   1  25
TORSDOF 4
ENDMDL
MODEL 6
REMARK VINA RESULT:      -8.3      1.578      3.103
REMARK  4 active torsions:
REMARK  status: ('A' for Active; 'I' for Inactive)
REMARK    1  A    between atoms: C2_2  and  O1_4 
REMARK    2  A    between atoms: O1_4  and  C4_5 
REMARK    3  A    between atoms: C8_11  and  N3_12 
REMARK    4  A    between atoms: N3_12  and  C9_13 
ROOT
HETATM    1  C4  UNL     1      25.940  -0.111  53.209  1.00  0.00     0.107 A 
HETATM    2  C5  UNL     1      25.999   0.738  52.096  1.00  0.00     0.072 A 
HETATM    3  C6  UNL     1      24.885   1.453  51.681  1.00  0.00     0.077 A 
HETATM    4  N1  UNL     1      24.904   2.280  50.612  1.00  0.00    -0.241 NA
HETATM    5  C7  UNL     1      23.809   2.961  50.229  1.00  0.00     0.236 A 
HETATM    6  N2  UNL     1      22.677   2.827  50.908  1.00  0.00    -0.223 NA
HETATM    7  C8  UNL     1      22.535   2.039  51.981  1.00  0.00     0.144 A 
HETATM    8  C15 UNL     1      23.668   1.365  52.338  1.00  0.00     0.075 A 
HETATM    9  C16 UNL     1      23.622   0.531  53.426  1.00  0.00     0.121 A 
HETATM   10  C17 UNL     1      24.732  -0.174  53.830  1.00  0.00     0.136 A 
HETATM   11  O2  UNL     1      24.644  -0.995  54.918  1.00  0.00    -0.344 OA
HETATM   12  C18 UNL     1      23.421  -1.636  55.304  1.00  0.00     0.202 C 
HETATM   13  C19 UNL     1      22.209  -0.961  54.736  1.00  0.00     0.202 C 
HETATM   14  O3  UNL     1      22.506   0.315  54.204  1.00  0.00    -0.345 OA
ENDROOT
BRANCH   7  15
HETATM   15  N3  UNL     1      21.286   1.960  52.639  1.00  0.00    -0.340 N 
HETATM   16  H10 UNL     1      20.855   2.284  53.516  1.00  0.00     0.167 HD
BRANCH  15  17
HETATM   17  C9  UNL     1      20.196   1.261  52.054  1.00  0.00     0.035 A 
HETATM   18  C10 UNL     1      19.743   1.608  50.789  1.00  0.00     0.032 A 
HETATM   19  C11 UNL     1      18.680   0.990  50.173  1.00  0.00     0.046 A 
HETATM   20  C12 UNL     1      17.994  -0.030  50.799  1.00  0.00     0.138 A 
HETATM   21  F1  UNL     1      16.941  -0.686  50.265  1.00  0.00    -0.204 F 
HETATM   22  C13 UNL     1      18.387  -0.426  52.055  1.00  0.00     0.074 A 
HETATM   23 CL1  UNL     1      17.589  -1.708  52.938  1.00  0.00    -0.081 Cl
HETATM   24  C14 UNL     1      19.450   0.219  52.624  1.00  0.00     0.056 A 
ENDBRANCH  15  17
ENDBRANCH   7  15
BRANCH   1  25
HETATM   25  O1  UNL     1      27.133  -0.719  53.449  1.00  0.00    -0.344 OA
BRANCH  25  26
HETATM   26  C2  UNL     1      28.414  -0.214  53.504  1.00  0.00     0.121 C 
HETATM   27  C1  UNL     1      28.639   0.461  54.864  1.00  0.00     0.040 C 
HETATM   28  C3  UNL     1      29.372  -1.415  53.477  1.00  0.00     0.040 C 
ENDBRANCH  25  26
ENDBRANCH   1  25
TORSDOF 4
ENDMDL
MODEL 7
REMARK VINA RESULT:      -8.2      4.299      8.247
REMARK  4 active torsions:
REMARK  status: ('A' for Active; 'I' for Inactive)
REMARK    1  A    between atoms: C2_2  and  O1_4 
REMARK    2  A    between atoms: O1_4  and  C4_5 
REMARK    3  A    between atoms: C8_11  and  N3_12 
REMARK    4  A    between atoms: N3_12  and  C9_13 
ROOT
HETATM    1  C4  UNL     1      20.490   1.566  51.406  1.00  0.00     0.107 A 
HETATM    2  C5  UNL     1      21.434   2.437  50.845  1.00  0.00     0.072 A 
HETATM    3  C6  UNL     1      22.790   2.273  51.085  1.00  0.00     0.077 A 
HETATM    4  N1  UNL     1      23.729   3.094  50.563  1.00  0.00    -0.241 NA
HETATM    5  C7  UNL     1      25.038   2.914  50.813  1.00  0.00     0.236 A 
HETATM    6  N2  UNL     1      25.432   1.913  51.590  1.00  0.00    -0.223 NA
HETATM    7  C8  UNL     1      24.597   1.037  52.163  1.00  0.00     0.144 A 
HETATM    8  C15 UNL     1      23.278   1.251  51.885  1.00  0.00     0.075 A 
HETATM    9  C16 UNL     1      22.344   0.406  52.429  1.00  0.00     0.121 A 
HETATM   10  C17 UNL     1      21.002   0.576  52.184  1.00  0.00     0.136 A 
HETATM   11  O2  UNL     1      20.104  -0.287  52.746  1.00  0.00    -0.344 OA
HETATM   12  C18 UNL     1      20.352  -0.956  53.990  1.00  0.00     0.202 C 
HETATM   13  C19 UNL     1      21.808  -1.007  54.340  1.00  0.00     0.202 C 
HETATM   14  O3  UNL     1      22.635  -0.664  53.246  1.00  0.00    -0.345 OA
ENDROOT
BRANCH   7  15
HETATM   15  N3  UNL     1      25.111   0.001  52.977  1.00  0.00    -0.340 N 
HETATM   16  H10 UNL     1      24.757  -0.786  53.539  1.00  0.00     0.167 HD
BRANCH  15  17
HETATM   17  C9  UNL     1      26.510  -0.135  53.189  1.00  0.00     0.035 A 
HETATM   18  C10 UNL     1      27.157  -1.311  52.838  1.00  0.00     0.032 A 
HETATM   19  C11 UNL     1      28.503  -1.519  53.036  1.00  0.00     0.046 A 
HETATM   20  C12 UNL     1      29.293  -0.544  53.609  1.00  0.00     0.138 A 
HETATM   21  F1  UNL     1      30.618  -0.668  53.838  1.00  0.00    -0.204 F 
HETATM   22  C13 UNL     1      28.719   0.648  53.982  1.00  0.00     0.074 A 
HETATM   23 CL1  UNL     1      29.627   1.950  54.714  1.00  0.00    -0.081 Cl
HETATM   24  C14 UNL     1      27.378   0.805  53.763  1.00  0.00     0.056 A 
ENDBRANCH  15  17
ENDBRANCH   7  15
BRANCH   1  25
HETATM   25  O1  UNL     1      19.219   1.897  51.050  1.00  0.00    -0.344 OA
BRANCH  25  26
HETATM   26  C2  UNL     1      18.466   1.554  49.948  1.00  0.00     0.121 C 
HETATM   27  C1  UNL     1      17.735   0.233  50.219  1.00  0.00     0.040 C 
HETATM   28  C3  UNL     1      17.363   2.614  49.810  1.00  0.00     0.040 C 
ENDBRANCH  25  26
ENDBRANCH   1  25
TORSDOF 4
ENDMDL
MODEL 8
REMARK VINA RESULT:      -8.1      3.148      4.378
REMARK  4 active torsions:
REMARK  status: ('A' for Active; 'I' for Inactive)
REMARK    1  A    between atoms: C2_2  and  O1_4 
REMARK    2  A    between atoms: O1_4  and  C4_5 
REMARK    3  A    between atoms: C8_11  and  N3_12 
REMARK    4  A    between atoms: N3_12  and  C9_13 
ROOT
HETATM    1  C4  UNL     1      26.360   0.035  52.934  1.00  0.00     0.107 A 
HETATM    2  C5  UNL     1      27.002   0.947  52.086  1.00  0.00     0.072 A 
HETATM    3  C6  UNL     1      26.300   1.979  51.481  1.00  0.00     0.077 A 
HETATM    4  N1  UNL     1      26.885   2.876  50.656  1.00  0.00    -0.241 NA
HETATM    5  C7  UNL     1      26.181   3.867  50.081  1.00  0.00     0.236 A 
HETATM    6  N2  UNL     1      24.881   3.979  50.320  1.00  0.00    -0.223 NA
HETATM    7  C8  UNL     1      24.192   3.152  51.118  1.00  0.00     0.144 A 
HETATM    8  C15 UNL     1      24.941   2.161  51.682  1.00  0.00     0.075 A 
HETATM    9  C16 UNL     1      24.324   1.262  52.514  1.00  0.00     0.121 A 
HETATM   10  C17 UNL     1      25.028   0.242  53.109  1.00  0.00     0.136 A 
HETATM   11  O2  UNL     1      24.375  -0.633  53.931  1.00  0.00    -0.344 OA
HETATM   12  C18 UNL     1      22.987  -0.950  53.771  1.00  0.00     0.202 C 
HETATM   13  C19 UNL     1      22.242   0.086  52.986  1.00  0.00     0.202 C 
HETATM   14  O3  UNL     1      22.983   1.280  52.835  1.00  0.00    -0.345 OA
ENDROOT
BRANCH   7  15
HETATM   15  N3  UNL     1      22.805   3.351  51.310  1.00  0.00    -0.340 N 
HETATM   16  H10 UNL     1      22.160   3.590  52.076  1.00  0.00     0.167 HD
BRANCH  15  17
HETATM   17  C9  UNL     1      21.891   3.217  50.230  1.00  0.00     0.035 A 
HETATM   18  C10 UNL     1      21.804   2.020  49.535  1.00  0.00     0.032 A 
HETATM   19  C11 UNL     1      20.960   1.828  48.466  1.00  0.00     0.046 A 
HETATM   20  C12 UNL     1      20.138   2.844  48.021  1.00  0.00     0.138 A 
HETATM   21  F1  UNL     1      19.283   2.739  46.982  1.00  0.00    -0.204 F 
HETATM   22  C13 UNL     1      20.172   4.059  48.663  1.00  0.00     0.074 A 
HETATM   23 CL1  UNL     1      19.173   5.412  48.185  1.00  0.00    -0.081 Cl
HETATM   24  C14 UNL     1      21.028   4.198  49.721  1.00  0.00     0.056 A 
ENDBRANCH  15  17
ENDBRANCH   7  15
BRANCH   1  25
HETATM   25  O1  UNL     1      27.221  -0.898  53.423  1.00  0.00    -0.344 OA
BRANCH  25  26
HETATM   26  C2  UNL     1      28.538  -1.168  53.117  1.00  0.00     0.121 C 
HETATM   27  C1  UNL     1      29.445  -0.592  54.212  1.00  0.00     0.040 C 
HETATM   28  C3  UNL     1      28.714  -2.691  53.197  1.00  0.00     0.040 C 
ENDBRANCH  25  26
ENDBRANCH   1  25
TORSDOF 4
ENDMDL
MODEL 9
REMARK VINA RESULT:      -8.1      2.812      4.754
REMARK  4 active torsions:
REMARK  status: ('A' for Active; 'I' for Inactive)
REMARK    1  A    between atoms: C2_2  and  O1_4 
REMARK    2  A    between atoms: O1_4  and  C4_5 
REMARK    3  A    between atoms: C8_11  and  N3_12 
REMARK    4  A    between atoms: N3_12  and  C9_13 
ROOT
HETATM    1  C4  UNL     1      25.814   4.316  49.593  1.00  0.00     0.107 A 
HETATM    2  C5  UNL     1      26.497   3.176  50.035  1.00  0.00     0.072 A 
HETATM    3  C6  UNL     1      25.949   2.341  50.999  1.00  0.00     0.077 A 
HETATM    4  N1  UNL     1      26.578   1.234  51.450  1.00  0.00    -0.241 NA
HETATM    5  C7  UNL     1      26.026   0.442  52.387  1.00  0.00     0.236 A 
HETATM    6  N2  UNL     1      24.835   0.744  52.888  1.00  0.00    -0.223 NA
HETATM    7  C8  UNL     1      24.116   1.812  52.521  1.00  0.00     0.144 A 
HETATM    8  C15 UNL     1      24.710   2.590  51.569  1.00  0.00     0.075 A 
HETATM    9  C16 UNL     1      24.051   3.710  51.129  1.00  0.00     0.121 A 
HETATM   10  C17 UNL     1      24.603   4.531  50.173  1.00  0.00     0.136 A 
HETATM   11  O2  UNL     1      23.914   5.637  49.762  1.00  0.00    -0.344 OA
HETATM   12  C18 UNL     1      22.994   6.332  50.614  1.00  0.00     0.202 C 
HETATM   13  C19 UNL     1      22.507   5.489  51.753  1.00  0.00     0.202 C 
HETATM   14  O3  UNL     1      22.814   4.120  51.576  1.00  0.00    -0.345 OA
ENDROOT
BRANCH   7  15
HETATM   15  N3  UNL     1      22.855   2.052  53.114  1.00  0.00    -0.340 N 
HETATM   16  H10 UNL     1      22.328   2.843  53.511  1.00  0.00     0.167 HD
BRANCH  15  17
HETATM   17  C9  UNL     1      21.919   0.997  53.291  1.00  0.00     0.035 A 
HETATM   18  C10 UNL     1      22.146   0.016  54.244  1.00  0.00     0.032 A 
HETATM   19  C11 UNL     1      21.295  -1.044  54.453  1.00  0.00     0.046 A 
HETATM   20  C12 UNL     1      20.146  -1.188  53.703  1.00  0.00     0.138 A 
HETATM   21  F1  UNL     1      19.260  -2.197  53.843  1.00  0.00    -0.204 F 
HETATM   22  C13 UNL     1      19.857  -0.252  52.738  1.00  0.00     0.074 A 
HETATM   23 CL1  UNL     1      18.428  -0.336  51.734  1.00  0.00    -0.081 Cl
HETATM   24  C14 UNL     1      20.734   0.784  52.571  1.00  0.00     0.056 A 
ENDBRANCH  15  17
ENDBRANCH   7  15
BRANCH   1  25
HETATM   25  O1  UNL     1      26.519   4.997  48.650  1.00  0.00    -0.344 OA
BRANCH  25  26
HETATM   26  C2  UNL     1      27.400   6.051  48.760  1.00  0.00     0.121 C 
HETATM   27  C1  UNL     1      28.775   5.623  48.228  1.00  0.00     0.040 C 
HETATM   28  C3  UNL     1      26.912   7.147  47.802  1.00  0.00     0.040 C 
ENDBRANCH  25  26
ENDBRANCH   1  25
TORSDOF 4
ENDMDL
