MODEL 1
REMARK VINA RESULT:      -5.7      0.000      0.000
REMARK  12 active torsions:
REMARK  status: ('A' for Active; 'I' for Inactive)
REMARK    1  A    between atoms: C2_2  and  C3_3 
REMARK    2  A    between atoms: C3_3  and  C4_4 
REMARK    3  A    between atoms: C4_4  and  N1_5 
REMARK    4  A    between atoms: N1_5  and  C5_6 
REMARK    5  A    between atoms: N1_5  and  C8_10 
REMARK    6  A    between atoms: C5_6  and  C6_7 
REMARK    7  A    between atoms: C6_7  and  O1_8 
REMARK    8  A    between atoms: C8_10  and  C9_11 
REMARK    9  A    between atoms: C9_11  and  O2_12 
REMARK   10  A    between atoms: O2_12  and  C10_13 
REMARK   11  A    between atoms: C12_15  and  C13_16 
REMARK   12  A    between atoms: C13_16  and  O3_17 
ROOT
HETATM    1  C9  UNL     1      26.706   2.437  51.542  1.00  0.00     0.190 C 
ENDROOT
BRANCH   1   2
HETATM    2  C8  UNL     1      26.529   3.047  50.212  1.00  0.00     0.143 C 
BRANCH   2   3
HETATM    3  N1  UNL     1      25.694   4.160  50.024  1.00  0.00    -0.408 N 
BRANCH   3   4
HETATM    4  C4  UNL     1      26.189   5.140  49.141  1.00  0.00     0.117 C 
BRANCH   4   5
HETATM    5  C3  UNL     1      27.581   4.842  48.605  1.00  0.00     0.019 C 
BRANCH   5   6
HETATM    6  C2  UNL     1      28.289   6.153  48.238  1.00  0.00    -0.003 C 
HETATM    7  C1  UNL     1      29.745   5.937  47.979  1.00  0.00     0.005 C 
ENDBRANCH   5   6
ENDBRANCH   4   5
ENDBRANCH   3   4
BRANCH   3   8
HETATM    8  C5  UNL     1      24.348   4.013  50.277  1.00  0.00     0.143 C 
BRANCH   8   9
HETATM    9  C6  UNL     1      23.803   4.846  51.437  1.00  0.00     0.186 C 
BRANCH   9  10
HETATM   10  O1  UNL     1      23.707   4.067  52.553  1.00  0.00    -0.394 OA
HETATM   11  C7  UNL     1      23.140   2.825  52.379  1.00  0.00     0.201 C 
ENDBRANCH   9  10
ENDBRANCH   8   9
ENDBRANCH   3   8
ENDBRANCH   2   3
ENDBRANCH   1   2
BRANCH   1  12
HETATM   12  O2  UNL     1      27.888   2.567  52.194  1.00  0.00    -0.363 OA
BRANCH  12  13
HETATM   13  C10 UNL     1      27.889   2.049  53.492  1.00  0.00     0.250 A 
HETATM   14  C11 UNL     1      26.605   1.424  53.875  1.00  0.00     0.112 A 
HETATM   15  C12 UNL     1      26.638   0.011  54.268  1.00  0.00     0.041 A 
HETATM   16  N2  UNL     1      27.717  -0.672  54.288  1.00  0.00    -0.249 NA
HETATM   17  C15 UNL     1      28.955  -0.067  53.919  1.00  0.00     0.229 A 
HETATM   18  N3  UNL     1      28.991   1.143  53.571  1.00  0.00    -0.251 NA
BRANCH  15  19
HETATM   19  C13 UNL     1      25.351  -0.604  54.649  1.00  0.00     0.221 C 
BRANCH  19  20
HETATM   20  O3  UNL     1      24.453  -0.663  53.562  1.00  0.00    -0.390 OA
HETATM   21  C14 UNL     1      23.156  -0.742  54.120  1.00  0.00     0.201 C 
ENDBRANCH  19  20
ENDBRANCH  15  19
ENDBRANCH  12  13
ENDBRANCH   1  12
TORSDOF 12
ENDMDL
MODEL 2
REMARK VINA RESULT:      -5.5      1.939      7.197
REMARK  12 active torsions:
REMARK  status: ('A' for Active; 'I' for Inactive)
REMARK    1  A    between atoms: C2_2  and  C3_3 
REMARK    2  A    between atoms: C3_3  and  C4_4 
REMARK    3  A    between atoms: C4_4  and  N1_5 
REMARK    4  A    between atoms: N1_5  and  C5_6 
REMARK    5  A    between atoms: N1_5  and  C8_10 
REMARK    6  A    between atoms: C5_6  and  C6_7 
REMARK    7  A    between atoms: C6_7  and  O1_8 
REMARK    8  A    between atoms: C8_10  and  C9_11 
REMARK    9  A    between atoms: C9_11  and  O2_12 
REMARK   10  A    between atoms: O2_12  and  C10_13 
REMARK   11  A    between atoms: C12_15  and  C13_16 
REMARK   12  A    between atoms: C13_16  and  O3_17 
ROOT
HETATM    1  C9  UNL     1      26.424   2.183  51.552  1.00  0.00     0.190 C 
ENDROOT
BRANCH   1   2
HETATM    2  C8  UNL     1      26.895   1.725  52.872  1.00  0.00     0.143 C 
BRANCH   2   3
HETATM    3  N1  UNL     1      26.112   0.879  53.672  1.00  0.00    -0.408 N 
BRANCH   3   4
HETATM    4  C4  UNL     1      25.041   0.246  53.009  1.00  0.00     0.117 C 
BRANCH   4   5
HETATM    5  C3  UNL     1      24.149  -0.580  53.924  1.00  0.00     0.019 C 
BRANCH   5   6
HETATM    6  C2  UNL     1      22.690  -0.129  53.774  1.00  0.00    -0.003 C 
HETATM    7  C1  UNL     1      21.803  -0.800  54.772  1.00  0.00     0.005 C 
ENDBRANCH   5   6
ENDBRANCH   4   5
ENDBRANCH   3   4
BRANCH   3   8
HETATM    8  C5  UNL     1      26.677   0.358  54.816  1.00  0.00     0.143 C 
BRANCH   8   9
HETATM    9  C6  UNL     1      28.199   0.220  54.792  1.00  0.00     0.186 C 
BRANCH   9  10
HETATM   10  O1  UNL     1      28.539  -0.979  54.237  1.00  0.00    -0.394 OA
HETATM   11  C7  UNL     1      29.714  -1.005  53.521  1.00  0.00     0.201 C 
ENDBRANCH   9  10
ENDBRANCH   8   9
ENDBRANCH   3   8
ENDBRANCH   2   3
ENDBRANCH   1   2
BRANCH   1  12
HETATM   12  O2  UNL     1      27.166   3.066  50.838  1.00  0.00    -0.363 OA
BRANCH  12  13
HETATM   13  C10 UNL     1      26.499   3.626  49.745  1.00  0.00     0.250 A 
HETATM   14  C11 UNL     1      25.417   4.557  50.133  1.00  0.00     0.112 A 
HETATM   15  C12 UNL     1      25.514   5.937  49.645  1.00  0.00     0.041 A 
HETATM   16  N2  UNL     1      26.481   6.342  48.916  1.00  0.00    -0.249 NA
HETATM   17  C15 UNL     1      27.523   5.443  48.543  1.00  0.00     0.229 A 
HETATM   18  N3  UNL     1      27.496   4.245  48.931  1.00  0.00    -0.251 NA
BRANCH  15  19
HETATM   19  C13 UNL     1      24.429   6.858  50.037  1.00  0.00     0.221 C 
BRANCH  19  20
HETATM   20  O3  UNL     1      23.360   6.180  50.662  1.00  0.00    -0.390 OA
HETATM   21  C14 UNL     1      22.285   7.095  50.717  1.00  0.00     0.201 C 
ENDBRANCH  19  20
ENDBRANCH  15  19
ENDBRANCH  12  13
ENDBRANCH   1  12
TORSDOF 12
ENDMDL
MODEL 3
REMARK VINA RESULT:      -5.4      1.538      3.734
REMARK  12 active torsions:
REMARK  status: ('A' for Active; 'I' for Inactive)
REMARK    1  A    between atoms: C2_2  and  C3_3 
REMARK    2  A    between atoms: C3_3  and  C4_4 
REMARK    3  A    between atoms: C4_4  and  N1_5 
REMARK    4  A    between atoms: N1_5  and  C5_6 
REMARK    5  A    between atoms: N1_5  and  C8_10 
REMARK    6  A    between atoms: C5_6  and  C6_7 
REMARK    7  A    between atoms: C6_7  and  O1_8 
REMARK    8  A    between atoms: C8_10  and  C9_11 
REMARK    9  A    between atoms: C9_11  and  O2_12 
REMARK   10  A    between atoms: O2_12  and  C10_13 
REMARK   11  A    between atoms: C12_15  and  C13_16 
REMARK   12  A    between atoms: C13_16  and  O3_17 
ROOT
HETATM    1  C9  UNL     1      26.784   2.096  51.434  1.00  0.00     0.190 C 
ENDROOT
BRANCH   1   2
HETATM    2  C8  UNL     1      26.467   2.990  50.306  1.00  0.00     0.143 C 
BRANCH   2   3
HETATM    3  N1  UNL     1      25.274   3.728  50.273  1.00  0.00    -0.408 N 
BRANCH   3   4
HETATM    4  C4  UNL     1      24.458   3.603  51.416  1.00  0.00     0.117 C 
BRANCH   4   5
HETATM    5  C3  UNL     1      23.049   3.113  51.119  1.00  0.00     0.019 C 
BRANCH   5   6
HETATM    6  C2  UNL     1      23.044   1.584  50.999  1.00  0.00    -0.003 C 
HETATM    7  C1  UNL     1      21.760   1.083  50.421  1.00  0.00     0.005 C 
ENDBRANCH   5   6
ENDBRANCH   4   5
ENDBRANCH   3   4
BRANCH   3   8
HETATM    8  C5  UNL     1      25.210   4.827  49.444  1.00  0.00     0.143 C 
BRANCH   8   9
HETATM    9  C6  UNL     1      26.554   5.330  48.916  1.00  0.00     0.186 C 
BRANCH   9  10
HETATM   10  O1  UNL     1      26.676   6.663  49.177  1.00  0.00    -0.394 OA
HETATM   11  C7  UNL     1      27.717   7.311  48.552  1.00  0.00     0.201 C 
ENDBRANCH   9  10
ENDBRANCH   8   9
ENDBRANCH   3   8
ENDBRANCH   2   3
ENDBRANCH   1   2
BRANCH   1  12
HETATM   12  O2  UNL     1      27.741   2.447  52.328  1.00  0.00    -0.363 OA
BRANCH  12  13
HETATM   13  C10 UNL     1      27.415   2.170  53.659  1.00  0.00     0.250 A 
HETATM   14  C11 UNL     1      26.202   1.337  53.804  1.00  0.00     0.112 A 
HETATM   15  C12 UNL     1      26.349   0.058  54.507  1.00  0.00     0.041 A 
HETATM   16  N2  UNL     1      27.465  -0.342  54.982  1.00  0.00    -0.249 NA
HETATM   17  C15 UNL     1      28.633   0.463  54.841  1.00  0.00     0.229 A 
HETATM   18  N3  UNL     1      28.572   1.572  54.247  1.00  0.00    -0.251 NA
BRANCH  15  19
HETATM   19  C13 UNL     1      25.132  -0.766  54.648  1.00  0.00     0.221 C 
BRANCH  19  20
HETATM   20  O3  UNL     1      24.175  -0.468  53.654  1.00  0.00    -0.390 OA
HETATM   21  C14 UNL     1      22.914  -0.792  54.205  1.00  0.00     0.201 C 
ENDBRANCH  19  20
ENDBRANCH  15  19
ENDBRANCH  12  13
ENDBRANCH   1  12
TORSDOF 12
ENDMDL
MODEL 4
REMARK VINA RESULT:      -5.3      2.950      5.519
REMARK  12 active torsions:
REMARK  status: ('A' for Active; 'I' for Inactive)
REMARK    1  A    between atoms: C2_2  and  C3_3 
REMARK    2  A    between atoms: C3_3  and  C4_4 
REMARK    3  A    between atoms: C4_4  and  N1_5 
REMARK    4  A    between atoms: N1_5  and  C5_6 
REMARK    5  A    between atoms: N1_5  and  C8_10 
REMARK    6  A    between atoms: C5_6  and  C6_7 
REMARK    7  A    between atoms: C6_7  and  O1_8 
REMARK    8  A    between atoms: C8_10  and  C9_11 
REMARK    9  A    between atoms: C9_11  and  O2_12 
REMARK   10  A    between atoms: O2_12  and  C10_13 
REMARK   11  A    between atoms: C12_15  and  C13_16 
REMARK   12  A    between atoms: C13_16  and  O3_17 
ROOT
HETATM    1  C9  UNL     1      25.939  -0.691  53.674  1.00  0.00     0.190 C 
ENDROOT
BRANCH   1   2
HETATM    2  C8  UNL     1      26.285   0.700  54.017  1.00  0.00     0.143 C 
BRANCH   2   3
HETATM    3  N1  UNL     1      26.919   1.544  53.091  1.00  0.00    -0.408 N 
BRANCH   3   4
HETATM    4  C4  UNL     1      26.058   2.201  52.190  1.00  0.00     0.117 C 
BRANCH   4   5
HETATM    5  C3  UNL     1      26.615   2.323  50.780  1.00  0.00     0.019 C 
BRANCH   5   6
HETATM    6  C2  UNL     1      25.771   3.316  49.970  1.00  0.00    -0.003 C 
HETATM    7  C1  UNL     1      26.623   4.351  49.310  1.00  0.00     0.005 C 
ENDBRANCH   5   6
ENDBRANCH   4   5
ENDBRANCH   3   4
BRANCH   3   8
HETATM    8  C5  UNL     1      28.165   2.039  53.409  1.00  0.00     0.143 C 
BRANCH   8   9
HETATM    9  C6  UNL     1      29.038   1.122  54.264  1.00  0.00     0.186 C 
BRANCH   9  10
HETATM   10  O1  UNL     1      29.812   0.343  53.454  1.00  0.00    -0.394 OA
HETATM   11  C7  UNL     1      29.827  -1.004  53.741  1.00  0.00     0.201 C 
ENDBRANCH   9  10
ENDBRANCH   8   9
ENDBRANCH   3   8
ENDBRANCH   2   3
ENDBRANCH   1   2
BRANCH   1  12
HETATM   12  O2  UNL     1      24.709  -0.979  53.182  1.00  0.00    -0.363 OA
BRANCH  12  13
HETATM   13  C10 UNL     1      23.686  -0.165  53.675  1.00  0.00     0.250 A 
HETATM   14  C11 UNL     1      22.791   0.356  52.621  1.00  0.00     0.112 A 
HETATM   15  C12 UNL     1      21.365   0.026  52.728  1.00  0.00     0.041 A 
HETATM   16  N2  UNL     1      20.893  -0.680  53.682  1.00  0.00    -0.249 NA
HETATM   17  C15 UNL     1      21.758  -1.181  54.699  1.00  0.00     0.229 A 
HETATM   18  N3  UNL     1      22.992  -0.932  54.661  1.00  0.00    -0.251 NA
BRANCH  15  19
HETATM   19  C13 UNL     1      20.479   0.551  51.671  1.00  0.00     0.221 C 
BRANCH  19  20
HETATM   20  O3  UNL     1      19.132   0.602  52.089  1.00  0.00    -0.390 OA
HETATM   21  C14 UNL     1      18.368   0.035  51.044  1.00  0.00     0.201 C 
ENDBRANCH  19  20
ENDBRANCH  15  19
ENDBRANCH  12  13
ENDBRANCH   1  12
TORSDOF 12
ENDMDL
MODEL 5
REMARK VINA RESULT:      -5.3      2.049      3.380
REMARK  12 active torsions:
REMARK  status: ('A' for Active; 'I' for Inactive)
REMARK    1  A    between atoms: C2_2  and  C3_3 
REMARK    2  A    between atoms: C3_3  and  C4_4 
REMARK    3  A    between atoms: C4_4  and  N1_5 
REMARK    4  A    between atoms: N1_5  and  C5_6 
REMARK    5  A    between atoms: N1_5  and  C8_10 
REMARK    6  A    between atoms: C5_6  and  C6_7 
REMARK    7  A    between atoms: C6_7  and  O1_8 
REMARK    8  A    between atoms: C8_10  and  C9_11 
REMARK    9  A    between atoms: C9_11  and  O2_12 
REMARK   10  A    between atoms: O2_12  and  C10_13 
REMARK   11  A    between atoms: C12_15  and  C13_16 
REMARK   12  A    between atoms: C13_16  and  O3_17 
ROOT
HETATM    1  C9  UNL     1      23.764   3.045  52.519  1.00  0.00     0.190 C 
ENDROOT
BRANCH   1   2
HETATM    2  C8  UNL     1      23.895   4.238  51.663  1.00  0.00     0.143 C 
BRANCH   2   3
HETATM    3  N1  UNL     1      24.021   4.125  50.270  1.00  0.00    -0.408 N 
BRANCH   3   4
HETATM    4  C4  UNL     1      25.018   3.233  49.826  1.00  0.00     0.117 C 
BRANCH   4   5
HETATM    5  C3  UNL     1      26.433   3.778  49.944  1.00  0.00     0.019 C 
BRANCH   5   6
HETATM    6  C2  UNL     1      26.603   4.987  49.015  1.00  0.00    -0.003 C 
HETATM    7  C1  UNL     1      28.002   5.090  48.499  1.00  0.00     0.005 C 
ENDBRANCH   5   6
ENDBRANCH   4   5
ENDBRANCH   3   4
BRANCH   3   8
HETATM    8  C5  UNL     1      22.935   4.459  49.489  1.00  0.00     0.143 C 
BRANCH   8   9
HETATM    9  C6  UNL     1      21.720   3.542  49.627  1.00  0.00     0.186 C 
BRANCH   9  10
HETATM   10  O1  UNL     1      21.340   3.099  48.394  1.00  0.00    -0.394 OA
HETATM   11  C7  UNL     1      22.169   2.176  47.798  1.00  0.00     0.201 C 
ENDBRANCH   9  10
ENDBRANCH   8   9
ENDBRANCH   3   8
ENDBRANCH   2   3
ENDBRANCH   1   2
BRANCH   1  12
HETATM   12  O2  UNL     1      24.771   2.702  53.359  1.00  0.00    -0.363 OA
BRANCH  12  13
HETATM   13  C10 UNL     1      25.455   1.539  52.993  1.00  0.00     0.250 A 
HETATM   14  C11 UNL     1      26.817   1.457  53.562  1.00  0.00     0.112 A 
HETATM   15  C12 UNL     1      27.120   0.300  54.410  1.00  0.00     0.041 A 
HETATM   16  N2  UNL     1      26.261  -0.612  54.662  1.00  0.00    -0.249 NA
HETATM   17  C15 UNL     1      24.948  -0.531  54.113  1.00  0.00     0.229 A 
HETATM   18  N3  UNL     1      24.627   0.440  53.377  1.00  0.00    -0.251 NA
BRANCH  15  19
HETATM   19  C13 UNL     1      28.483   0.226  54.973  1.00  0.00     0.221 C 
BRANCH  19  20
HETATM   20  O3  UNL     1      29.471   0.492  54.000  1.00  0.00    -0.390 OA
HETATM   21  C14 UNL     1      29.940  -0.765  53.554  1.00  0.00     0.201 C 
ENDBRANCH  19  20
ENDBRANCH  15  19
ENDBRANCH  12  13
ENDBRANCH   1  12
TORSDOF 12
ENDMDL
MODEL 6
REMARK VINA RESULT:      -5.3      1.396      2.083
REMARK  12 active torsions:
REMARK  status: ('A' for Active; 'I' for Inactive)
REMARK    1  A    between atoms: C2_2  and  C3_3 
REMARK    2  A    between atoms: C3_3  and  C4_4 
REMARK    3  A    between atoms: C4_4  and  N1_5 
REMARK    4  A    between atoms: N1_5  and  C5_6 
REMARK    5  A    between atoms: N1_5  and  C8_10 
REMARK    6  A    between atoms: C5_6  and  C6_7 
REMARK    7  A    between atoms: C6_7  and  O1_8 
REMARK    8  A    between atoms: C8_10  and  C9_11 
REMARK    9  A    between atoms: C9_11  and  O2_12 
REMARK   10  A    between atoms: O2_12  and  C10_13 
REMARK   11  A    between atoms: C12_15  and  C13_16 
REMARK   12  A    between atoms: C13_16  and  O3_17 
ROOT
HETATM    1  C9  UNL     1      26.816   2.030  51.429  1.00  0.00     0.190 C 
ENDROOT
BRANCH   1   2
HETATM    2  C8  UNL     1      26.446   2.891  50.291  1.00  0.00     0.143 C 
BRANCH   2   3
HETATM    3  N1  UNL     1      25.548   3.959  50.446  1.00  0.00    -0.408 N 
BRANCH   3   4
HETATM    4  C4  UNL     1      25.910   5.148  49.782  1.00  0.00     0.117 C 
BRANCH   4   5
HETATM    5  C3  UNL     1      24.738   6.071  49.485  1.00  0.00     0.019 C 
BRANCH   5   6
HETATM    6  C2  UNL     1      24.836   7.332  50.352  1.00  0.00    -0.003 C 
HETATM    7  C1  UNL     1      23.545   8.084  50.376  1.00  0.00     0.005 C 
ENDBRANCH   5   6
ENDBRANCH   4   5
ENDBRANCH   3   4
BRANCH   3   8
HETATM    8  C5  UNL     1      24.241   3.669  50.771  1.00  0.00     0.143 C 
BRANCH   8   9
HETATM    9  C6  UNL     1      23.892   3.785  52.254  1.00  0.00     0.186 C 
BRANCH   9  10
HETATM   10  O1  UNL     1      23.223   4.953  52.476  1.00  0.00    -0.394 OA
HETATM   11  C7  UNL     1      21.978   5.059  51.896  1.00  0.00     0.201 C 
ENDBRANCH   9  10
ENDBRANCH   8   9
ENDBRANCH   3   8
ENDBRANCH   2   3
ENDBRANCH   1   2
BRANCH   1  12
HETATM   12  O2  UNL     1      27.760   2.442  52.310  1.00  0.00    -0.363 OA
BRANCH  12  13
HETATM   13  C10 UNL     1      27.456   2.174  53.647  1.00  0.00     0.250 A 
HETATM   14  C11 UNL     1      26.236   1.357  53.818  1.00  0.00     0.112 A 
HETATM   15  C12 UNL     1      26.379   0.078  54.523  1.00  0.00     0.041 A 
HETATM   16  N2  UNL     1      27.499  -0.334  54.979  1.00  0.00    -0.249 NA
HETATM   17  C15 UNL     1      28.674   0.456  54.814  1.00  0.00     0.229 A 
HETATM   18  N3  UNL     1      28.615   1.563  54.216  1.00  0.00    -0.251 NA
BRANCH  15  19
HETATM   19  C13 UNL     1      25.155  -0.731  54.689  1.00  0.00     0.221 C 
BRANCH  19  20
HETATM   20  O3  UNL     1      24.173  -0.405  53.729  1.00  0.00    -0.390 OA
HETATM   21  C14 UNL     1      22.937  -0.837  54.260  1.00  0.00     0.201 C 
ENDBRANCH  19  20
ENDBRANCH  15  19
ENDBRANCH  12  13
ENDBRANCH   1  12
TORSDOF 12
ENDMDL
MODEL 7
REMARK VINA RESULT:      -5.2      3.340      6.676
REMARK  12 active torsions:
REMARK  status: ('A' for Active; 'I' for Inactive)
REMARK    1  A    between atoms: C2_2  and  C3_3 
REMARK    2  A    between atoms: C3_3  and  C4_4 
REMARK    3  A    between atoms: C4_4  and  N1_5 
REMARK    4  A    between atoms: N1_5  and  C5_6 
REMARK    5  A    between atoms: N1_5  and  C8_10 
REMARK    6  A    between atoms: C5_6  and  C6_7 
REMARK    7  A    between atoms: C6_7  and  O1_8 
REMARK    8  A    between atoms: C8_10  and  C9_11 
REMARK    9  A    between atoms: C9_11  and  O2_12 
REMARK   10  A    between atoms: O2_12  and  C10_13 
REMARK   11  A    between atoms: C12_15  and  C13_16 
REMARK   12  A    between atoms: C13_16  and  O3_17 
ROOT
HETATM    1  C9  UNL     1      22.968   1.319  51.313  1.00  0.00     0.190 C 
ENDROOT
BRANCH   1   2
HETATM    2  C8  UNL     1      21.679   0.606  51.370  1.00  0.00     0.143 C 
BRANCH   2   3
HETATM    3  N1  UNL     1      21.164   0.123  52.583  1.00  0.00    -0.408 N 
BRANCH   3   4
HETATM    4  C4  UNL     1      19.761   0.187  52.708  1.00  0.00     0.117 C 
BRANCH   4   5
HETATM    5  C3  UNL     1      19.036   0.465  51.400  1.00  0.00     0.019 C 
BRANCH   5   6
HETATM    6  C2  UNL     1      17.720  -0.321  51.356  1.00  0.00    -0.003 C 
HETATM    7  C1  UNL     1      17.031  -0.166  50.039  1.00  0.00     0.005 C 
ENDBRANCH   5   6
ENDBRANCH   4   5
ENDBRANCH   3   4
BRANCH   3   8
HETATM    8  C5  UNL     1      21.924  -0.773  53.303  1.00  0.00     0.143 C 
BRANCH   8   9
HETATM    9  C6  UNL     1      21.161  -1.598  54.338  1.00  0.00     0.186 C 
BRANCH   9  10
HETATM   10  O1  UNL     1      22.021  -2.020  55.309  1.00  0.00    -0.394 OA
HETATM   11  C7  UNL     1      23.209  -1.332  55.409  1.00  0.00     0.201 C 
ENDBRANCH   9  10
ENDBRANCH   8   9
ENDBRANCH   3   8
ENDBRANCH   2   3
ENDBRANCH   1   2
BRANCH   1  12
HETATM   12  O2  UNL     1      23.168   2.415  52.085  1.00  0.00    -0.363 OA
BRANCH  12  13
HETATM   13  C10 UNL     1      24.462   2.527  52.601  1.00  0.00     0.250 A 
HETATM   14  C11 UNL     1      24.949   1.285  53.237  1.00  0.00     0.112 A 
HETATM   15  C12 UNL     1      26.177   0.692  52.695  1.00  0.00     0.041 A 
HETATM   16  N2  UNL     1      26.815   1.208  51.716  1.00  0.00    -0.249 NA
HETATM   17  C15 UNL     1      26.344   2.407  51.105  1.00  0.00     0.229 A 
HETATM   18  N3  UNL     1      25.295   2.963  51.525  1.00  0.00    -0.251 NA
BRANCH  15  19
HETATM   19  C13 UNL     1      26.656  -0.548  53.336  1.00  0.00     0.221 C 
BRANCH  19  20
HETATM   20  O3  UNL     1      26.925  -0.362  54.710  1.00  0.00    -0.390 OA
HETATM   21  C14 UNL     1      28.268   0.071  54.798  1.00  0.00     0.201 C 
ENDBRANCH  19  20
ENDBRANCH  15  19
ENDBRANCH  12  13
ENDBRANCH   1  12
TORSDOF 12
ENDMDL
MODEL 8
REMARK VINA RESULT:      -5.2      2.162      6.705
REMARK  12 active torsions:
REMARK  status: ('A' for Active; 'I' for Inactive)
REMARK    1  A    between atoms: C2_2  and  C3_3 
REMARK    2  A    between atoms: C3_3  and  C4_4 
REMARK    3  A    between atoms: C4_4  and  N1_5 
REMARK    4  A    between atoms: N1_5  and  C5_6 
REMARK    5  A    between atoms: N1_5  and  C8_10 
REMARK    6  A    between atoms: C5_6  and  C6_7 
REMARK    7  A    between atoms: C6_7  and  O1_8 
REMARK    8  A    between atoms: C8_10  and  C9_11 
REMARK    9  A    between atoms: C9_11  and  O2_12 
REMARK   10  A    between atoms: O2_12  and  C10_13 
REMARK   11  A    between atoms: C12_15  and  C13_16 
REMARK   12  A    between atoms: C13_16  and  O3_17 
ROOT
HETATM    1  C9  UNL     1      25.730   2.569  51.520  1.00  0.00     0.190 C 
ENDROOT
BRANCH   1   2
HETATM    2  C8  UNL     1      25.299   1.171  51.702  1.00  0.00     0.143 C 
BRANCH   2   3
HETATM    3  N1  UNL     1      25.905   0.339  52.656  1.00  0.00    -0.408 N 
BRANCH   3   4
HETATM    4  C4  UNL     1      26.923  -0.500  52.161  1.00  0.00     0.117 C 
BRANCH   4   5
HETATM    5  C3  UNL     1      26.812  -1.945  52.622  1.00  0.00     0.019 C 
BRANCH   5   6
HETATM    6  C2  UNL     1      28.213  -2.548  52.787  1.00  0.00    -0.003 C 
HETATM    7  C1  UNL     1      29.180  -1.550  53.333  1.00  0.00     0.005 C 
ENDBRANCH   5   6
ENDBRANCH   4   5
ENDBRANCH   3   4
BRANCH   3   8
HETATM    8  C5  UNL     1      25.844   0.714  53.981  1.00  0.00     0.143 C 
BRANCH   8   9
HETATM    9  C6  UNL     1      27.185   1.053  54.630  1.00  0.00     0.186 C 
BRANCH   9  10
HETATM   10  O1  UNL     1      27.568   2.309  54.259  1.00  0.00    -0.394 OA
HETATM   11  C7  UNL     1      28.809   2.418  53.674  1.00  0.00     0.201 C 
ENDBRANCH   9  10
ENDBRANCH   8   9
ENDBRANCH   3   8
ENDBRANCH   2   3
ENDBRANCH   1   2
BRANCH   1  12
HETATM   12  O2  UNL     1      26.775   2.854  50.705  1.00  0.00    -0.363 OA
BRANCH  12  13
HETATM   13  C10 UNL     1      26.409   3.370  49.459  1.00  0.00     0.250 A 
HETATM   14  C11 UNL     1      25.149   4.142  49.491  1.00  0.00     0.112 A 
HETATM   15  C12 UNL     1      25.209   5.542  49.057  1.00  0.00     0.041 A 
HETATM   16  N2  UNL     1      26.292   6.093  48.663  1.00  0.00    -0.249 NA
HETATM   17  C15 UNL     1      27.506   5.347  48.632  1.00  0.00     0.229 A 
HETATM   18  N3  UNL     1      27.519   4.140  48.994  1.00  0.00    -0.251 NA
BRANCH  15  19
HETATM   19  C13 UNL     1      23.945   6.304  49.092  1.00  0.00     0.221 C 
BRANCH  19  20
HETATM   20  O3  UNL     1      23.475   6.484  50.411  1.00  0.00    -0.390 OA
HETATM   21  C14 UNL     1      23.772   7.821  50.761  1.00  0.00     0.201 C 
ENDBRANCH  19  20
ENDBRANCH  15  19
ENDBRANCH  12  13
ENDBRANCH   1  12
TORSDOF 12
ENDMDL
MODEL 9
REMARK VINA RESULT:      -5.1      2.019      3.481
REMARK  12 active torsions:
REMARK  status: ('A' for Active; 'I' for Inactive)
REMARK    1  A    between atoms: C2_2  and  C3_3 
REMARK    2  A    between atoms: C3_3  and  C4_4 
REMARK    3  A    between atoms: C4_4  and  N1_5 
REMARK    4  A    between atoms: N1_5  and  C5_6 
REMARK    5  A    between atoms: N1_5  and  C8_10 
REMARK    6  A    between atoms: C5_6  and  C6_7 
REMARK    7  A    between atoms: C6_7  and  O1_8 
REMARK    8  A    between atoms: C8_10  and  C9_11 
REMARK    9  A    between atoms: C9_11  and  O2_12 
REMARK   10  A    between atoms: O2_12  and  C10_13 
REMARK   11  A    between atoms: C12_15  and  C13_16 
REMARK   12  A    between atoms: C13_16  and  O3_17 
ROOT
HETATM    1  C9  UNL     1      26.433   2.323  51.124  1.00  0.00     0.190 C 
ENDROOT
BRANCH   1   2
HETATM    2  C8  UNL     1      25.921   3.638  50.700  1.00  0.00     0.143 C 
BRANCH   2   3
HETATM    3  N1  UNL     1      24.567   3.827  50.383  1.00  0.00    -0.408 N 
BRANCH   3   4
HETATM    4  C4  UNL     1      23.848   4.641  51.281  1.00  0.00     0.117 C 
BRANCH   4   5
HETATM    5  C3  UNL     1      23.636   4.014  52.651  1.00  0.00     0.019 C 
BRANCH   5   6
HETATM    6  C2  UNL     1      22.790   2.742  52.516  1.00  0.00    -0.003 C 
HETATM    7  C1  UNL     1      21.346   3.063  52.308  1.00  0.00     0.005 C 
ENDBRANCH   5   6
ENDBRANCH   4   5
ENDBRANCH   3   4
BRANCH   3   8
HETATM    8  C5  UNL     1      24.175   3.657  49.073  1.00  0.00     0.143 C 
BRANCH   8   9
HETATM    9  C6  UNL     1      22.752   3.135  48.876  1.00  0.00     0.186 C 
BRANCH   9  10
HETATM   10  O1  UNL     1      22.702   1.812  49.206  1.00  0.00    -0.394 OA
HETATM   11  C7  UNL     1      21.484   1.191  49.042  1.00  0.00     0.201 C 
ENDBRANCH   9  10
ENDBRANCH   8   9
ENDBRANCH   3   8
ENDBRANCH   2   3
ENDBRANCH   1   2
BRANCH   1  12
HETATM   12  O2  UNL     1      27.501   2.249  51.955  1.00  0.00    -0.363 OA
BRANCH  12  13
HETATM   13  C10 UNL     1      27.172   2.112  53.306  1.00  0.00     0.250 A 
HETATM   14  C11 UNL     1      26.015   1.222  53.541  1.00  0.00     0.112 A 
HETATM   15  C12 UNL     1      26.235   0.050  54.396  1.00  0.00     0.041 A 
HETATM   16  N2  UNL     1      27.366  -0.211  54.927  1.00  0.00    -0.249 NA
HETATM   17  C15 UNL     1      28.480   0.649  54.700  1.00  0.00     0.229 A 
HETATM   18  N3  UNL     1      28.355   1.671  53.974  1.00  0.00    -0.251 NA
BRANCH  15  19
HETATM   19  C13 UNL     1      25.074  -0.833  54.624  1.00  0.00     0.221 C 
BRANCH  19  20
HETATM   20  O3  UNL     1      24.004  -0.534  53.753  1.00  0.00    -0.390 OA
HETATM   21  C14 UNL     1      22.822  -0.924  54.424  1.00  0.00     0.201 C 
ENDBRANCH  19  20
ENDBRANCH  15  19
ENDBRANCH  12  13
ENDBRANCH   1  12
TORSDOF 12
ENDMDL
