MODEL 1
REMARK VINA RESULT:      -8.0      0.000      0.000
REMARK  4 active torsions:
REMARK  status: ('A' for Active; 'I' for Inactive)
REMARK    1  A    between atoms: S1_2  and  C2_3 
REMARK    2  A    between atoms: C2_3  and  C3_4 
REMARK    3  A    between atoms: C6_8  and  N2_9 
REMARK    4  A    between atoms: N2_9  and  C7_10 
ROOT
HETATM    1  C7  UNL     1      25.844   1.462  52.954  1.00  0.00     0.240 C 
HETATM    2  O1  UNL     1      26.675   2.091  53.938  1.00  0.00    -0.291 OA
HETATM    3  C8  UNL     1      27.987   1.681  54.048  1.00  0.00     0.295 C 
HETATM    4  O2  UNL     1      28.937   2.425  54.439  1.00  0.00    -0.259 OA
HETATM    5  C9  UNL     1      28.257   0.276  53.673  1.00  0.00     0.046 A 
HETATM    6  C10 UNL     1      29.578  -0.131  53.781  1.00  0.00     0.018 A 
HETATM    7  C11 UNL     1      29.867  -1.440  53.436  1.00  0.00     0.001 A 
HETATM    8  C12 UNL     1      28.855  -2.272  53.007  1.00  0.00     0.001 A 
HETATM    9  C13 UNL     1      27.568  -1.837  52.913  1.00  0.00     0.009 A 
HETATM   10  C14 UNL     1      27.220  -0.543  53.243  1.00  0.00    -0.034 A 
HETATM   11  C15 UNL     1      25.821  -0.033  53.154  1.00  0.00     0.065 C 
HETATM   12  C16 UNL     1      25.067  -0.470  54.376  1.00  0.00     0.019 C 
ENDROOT
BRANCH   1  13
HETATM   13  N2  UNL     1      24.535   2.073  52.993  1.00  0.00    -0.350 N 
HETATM   14  H9  UNL     1      24.125   2.491  53.858  1.00  0.00     0.163 HD
BRANCH  13  15
HETATM   15  C6  UNL     1      23.732   2.124  51.808  1.00  0.00     0.110 A 
HETATM   16  C3  UNL     1      22.302   1.680  51.777  1.00  0.00     0.088 A 
HETATM   17  C4  UNL     1      21.949   1.930  50.369  1.00  0.00     0.006 A 
HETATM   18  C5  UNL     1      22.999   2.428  49.729  1.00  0.00     0.115 A 
HETATM   19  N1  UNL     1      24.099   2.540  50.643  1.00  0.00    -0.247 NA
BRANCH  16  20
HETATM   20  C2  UNL     1      22.165   0.257  52.224  1.00  0.00     0.089 C 
BRANCH  20  21
HETATM   21  S1  UNL     1      21.269   0.110  53.782  1.00  0.00    -0.172 SA
HETATM   22  C1  UNL     1      21.373  -1.550  54.448  1.00  0.00     0.089 C 
ENDBRANCH  20  21
ENDBRANCH  16  20
ENDBRANCH  13  15
ENDBRANCH   1  13
TORSDOF 4
ENDMDL
MODEL 2
REMARK VINA RESULT:      -8.0      1.915      2.727
REMARK  4 active torsions:
REMARK  status: ('A' for Active; 'I' for Inactive)
REMARK    1  A    between atoms: S1_2  and  C2_3 
REMARK    2  A    between atoms: C2_3  and  C3_4 
REMARK    3  A    between atoms: C6_8  and  N2_9 
REMARK    4  A    between atoms: N2_9  and  C7_10 
ROOT
HETATM    1  C7  UNL     1      25.792   1.459  52.914  1.00  0.00     0.240 C 
HETATM    2  O1  UNL     1      26.619   2.114  53.885  1.00  0.00    -0.291 OA
HETATM    3  C8  UNL     1      27.939   1.729  53.988  1.00  0.00     0.295 C 
HETATM    4  O2  UNL     1      28.878   2.495  54.364  1.00  0.00    -0.259 OA
HETATM    5  C9  UNL     1      28.232   0.326  53.627  1.00  0.00     0.046 A 
HETATM    6  C10 UNL     1      29.562  -0.056  53.728  1.00  0.00     0.018 A 
HETATM    7  C11 UNL     1      29.872  -1.363  53.395  1.00  0.00     0.001 A 
HETATM    8  C12 UNL     1      28.872  -2.218  52.983  1.00  0.00     0.001 A 
HETATM    9  C13 UNL     1      27.577  -1.809  52.895  1.00  0.00     0.009 A 
HETATM   10  C14 UNL     1      27.208  -0.517  53.214  1.00  0.00    -0.034 A 
HETATM   11  C15 UNL     1      25.798  -0.035  53.131  1.00  0.00     0.065 C 
HETATM   12  C16 UNL     1      25.063  -0.472  54.364  1.00  0.00     0.019 C 
ENDROOT
BRANCH   1  13
HETATM   13  N2  UNL     1      24.473   2.045  52.958  1.00  0.00    -0.350 N 
HETATM   14  H9  UNL     1      24.143   2.653  53.740  1.00  0.00     0.163 HD
BRANCH  13  15
HETATM   15  C6  UNL     1      23.544   1.802  51.894  1.00  0.00     0.110 A 
HETATM   16  C3  UNL     1      23.682   2.424  50.539  1.00  0.00     0.088 A 
HETATM   17  C4  UNL     1      22.510   1.868  49.841  1.00  0.00     0.006 A 
HETATM   18  C5  UNL     1      21.838   1.073  50.666  1.00  0.00     0.115 A 
HETATM   19  N1  UNL     1      22.499   1.046  51.938  1.00  0.00    -0.247 NA
BRANCH  16  20
HETATM   20  C2  UNL     1      23.718   3.919  50.628  1.00  0.00     0.089 C 
BRANCH  20  21
HETATM   21  S1  UNL     1      25.278   4.604  50.038  1.00  0.00    -0.172 SA
HETATM   22  C1  UNL     1      26.484   3.318  49.722  1.00  0.00     0.089 C 
ENDBRANCH  20  21
ENDBRANCH  16  20
ENDBRANCH  13  15
ENDBRANCH   1  13
TORSDOF 4
ENDMDL
MODEL 3
REMARK VINA RESULT:      -7.5      1.908      2.634
REMARK  4 active torsions:
REMARK  status: ('A' for Active; 'I' for Inactive)
REMARK    1  A    between atoms: S1_2  and  C2_3 
REMARK    2  A    between atoms: C2_3  and  C3_4 
REMARK    3  A    between atoms: C6_8  and  N2_9 
REMARK    4  A    between atoms: N2_9  and  C7_10 
ROOT
HETATM    1  C7  UNL     1      26.437   1.650  51.891  1.00  0.00     0.240 C 
HETATM    2  O1  UNL     1      26.987   2.328  53.028  1.00  0.00    -0.291 OA
HETATM    3  C8  UNL     1      28.163   1.853  53.570  1.00  0.00     0.295 C 
HETATM    4  O2  UNL     1      29.014   2.575  54.172  1.00  0.00    -0.259 OA
HETATM    5  C9  UNL     1      28.404   0.403  53.415  1.00  0.00     0.046 A 
HETATM    6  C10 UNL     1      29.589  -0.071  53.959  1.00  0.00     0.018 A 
HETATM    7  C11 UNL     1      29.848  -1.425  53.830  1.00  0.00     0.001 A 
HETATM    8  C12 UNL     1      28.941  -2.234  53.180  1.00  0.00     0.001 A 
HETATM    9  C13 UNL     1      27.787  -1.735  52.658  1.00  0.00     0.009 A 
HETATM   10  C14 UNL     1      27.475  -0.393  52.756  1.00  0.00    -0.034 A 
HETATM   11  C15 UNL     1      26.220   0.188  52.198  1.00  0.00     0.065 C 
HETATM   12  C16 UNL     1      25.097  -0.069  53.161  1.00  0.00     0.019 C 
ENDROOT
BRANCH   1  13
HETATM   13  N2  UNL     1      25.239   2.339  51.474  1.00  0.00    -0.350 N 
HETATM   14  H9  UNL     1      24.288   2.102  51.835  1.00  0.00     0.163 HD
BRANCH  13  15
HETATM   15  C6  UNL     1      25.320   3.405  50.521  1.00  0.00     0.110 A 
HETATM   16  C3  UNL     1      24.111   4.019  49.886  1.00  0.00     0.088 A 
HETATM   17  C4  UNL     1      24.723   5.035  49.012  1.00  0.00     0.006 A 
HETATM   18  C5  UNL     1      26.044   4.994  49.140  1.00  0.00     0.115 A 
HETATM   19  N1  UNL     1      26.393   3.972  50.084  1.00  0.00    -0.247 NA
BRANCH  16  20
HETATM   20  C2  UNL     1      23.285   2.988  49.179  1.00  0.00     0.089 C 
BRANCH  20  21
HETATM   21  S1  UNL     1      21.774   2.586  50.078  1.00  0.00    -0.172 SA
HETATM   22  C1  UNL     1      21.479   3.738  51.418  1.00  0.00     0.089 C 
ENDBRANCH  20  21
ENDBRANCH  16  20
ENDBRANCH  13  15
ENDBRANCH   1  13
TORSDOF 4
ENDMDL
MODEL 4
REMARK VINA RESULT:      -7.3      2.028      3.538
REMARK  4 active torsions:
REMARK  status: ('A' for Active; 'I' for Inactive)
REMARK    1  A    between atoms: S1_2  and  C2_3 
REMARK    2  A    between atoms: C2_3  and  C3_4 
REMARK    3  A    between atoms: C6_8  and  N2_9 
REMARK    4  A    between atoms: N2_9  and  C7_10 
ROOT
HETATM    1  C7  UNL     1      25.199   0.200  53.244  1.00  0.00     0.240 C 
HETATM    2  O1  UNL     1      25.614  -0.990  52.560  1.00  0.00    -0.291 OA
HETATM    3  C8  UNL     1      26.884  -1.474  52.799  1.00  0.00     0.295 C 
HETATM    4  O2  UNL     1      27.206  -2.698  52.723  1.00  0.00    -0.259 OA
HETATM    5  C9  UNL     1      27.900  -0.465  53.164  1.00  0.00     0.046 A 
HETATM    6  C10 UNL     1      29.175  -0.956  53.407  1.00  0.00     0.018 A 
HETATM    7  C11 UNL     1      30.151  -0.038  53.753  1.00  0.00     0.001 A 
HETATM    8  C12 UNL     1      29.830   1.299  53.845  1.00  0.00     0.001 A 
HETATM    9  C13 UNL     1      28.567   1.746  53.599  1.00  0.00     0.009 A 
HETATM   10  C14 UNL     1      27.553   0.878  53.250  1.00  0.00    -0.034 A 
HETATM   11  C15 UNL     1      26.159   1.332  52.972  1.00  0.00     0.065 C 
HETATM   12  C16 UNL     1      26.092   1.861  51.569  1.00  0.00     0.019 C 
ENDROOT
BRANCH   1  13
HETATM   13  N2  UNL     1      23.835   0.495  52.873  1.00  0.00    -0.350 N 
HETATM   14  H9  UNL     1      23.577   1.237  52.185  1.00  0.00     0.163 HD
BRANCH  13  15
HETATM   15  C6  UNL     1      22.757  -0.245  53.459  1.00  0.00     0.110 A 
HETATM   16  C3  UNL     1      21.354  -0.184  52.939  1.00  0.00     0.088 A 
HETATM   17  C4  UNL     1      20.659  -1.096  53.864  1.00  0.00     0.006 A 
HETATM   18  C5  UNL     1      21.526  -1.581  54.745  1.00  0.00     0.115 A 
HETATM   19  N1  UNL     1      22.825  -1.038  54.475  1.00  0.00    -0.247 NA
BRANCH  16  20
HETATM   20  C2  UNL     1      20.839   1.223  52.927  1.00  0.00     0.089 C 
BRANCH  20  21
HETATM   21  S1  UNL     1      20.487   1.810  51.258  1.00  0.00    -0.172 SA
HETATM   22  C1  UNL     1      21.377   0.863  50.026  1.00  0.00     0.089 C 
ENDBRANCH  20  21
ENDBRANCH  16  20
ENDBRANCH  13  15
ENDBRANCH   1  13
TORSDOF 4
ENDMDL
MODEL 5
REMARK VINA RESULT:      -6.9      2.107      3.153
REMARK  4 active torsions:
REMARK  status: ('A' for Active; 'I' for Inactive)
REMARK    1  A    between atoms: S1_2  and  C2_3 
REMARK    2  A    between atoms: C2_3  and  C3_4 
REMARK    3  A    between atoms: C6_8  and  N2_9 
REMARK    4  A    between atoms: N2_9  and  C7_10 
ROOT
HETATM    1  C7  UNL     1      25.460   0.867  53.418  1.00  0.00     0.240 C 
HETATM    2  O1  UNL     1      25.414  -0.249  52.519  1.00  0.00    -0.291 OA
HETATM    3  C8  UNL     1      26.424  -1.186  52.586  1.00  0.00     0.295 C 
HETATM    4  O2  UNL     1      26.283  -2.411  52.286  1.00  0.00    -0.259 OA
HETATM    5  C9  UNL     1      27.738  -0.686  53.043  1.00  0.00     0.046 A 
HETATM    6  C10 UNL     1      28.751  -1.633  53.112  1.00  0.00     0.018 A 
HETATM    7  C11 UNL     1      29.994  -1.199  53.538  1.00  0.00     0.001 A 
HETATM    8  C12 UNL     1      30.178   0.126  53.871  1.00  0.00     0.001 A 
HETATM    9  C13 UNL     1      29.161   1.028  53.791  1.00  0.00     0.009 A 
HETATM   10  C14 UNL     1      27.900   0.654  53.373  1.00  0.00    -0.034 A 
HETATM   11  C15 UNL     1      26.763   1.615  53.272  1.00  0.00     0.065 C 
HETATM   12  C16 UNL     1      26.884   2.375  51.984  1.00  0.00     0.019 C 
ENDROOT
BRANCH   1  13
HETATM   13  N2  UNL     1      24.292   1.688  53.196  1.00  0.00    -0.350 N 
HETATM   14  H9  UNL     1      24.154   2.619  53.649  1.00  0.00     0.163 HD
BRANCH  13  15
HETATM   15  C6  UNL     1      23.253   1.235  52.321  1.00  0.00     0.110 A 
HETATM   16  C3  UNL     1      23.149   1.670  50.892  1.00  0.00     0.088 A 
HETATM   17  C4  UNL     1      21.947   0.942  50.451  1.00  0.00     0.006 A 
HETATM   18  C5  UNL     1      21.466   0.225  51.460  1.00  0.00     0.115 A 
HETATM   19  N1  UNL     1      22.295   0.422  52.614  1.00  0.00    -0.247 NA
BRANCH  16  20
HETATM   20  C2  UNL     1      23.064   3.162  50.782  1.00  0.00     0.089 C 
BRANCH  20  21
HETATM   21  S1  UNL     1      21.446   3.717  50.211  1.00  0.00    -0.172 SA
HETATM   22  C1  UNL     1      20.343   4.052  51.582  1.00  0.00     0.089 C 
ENDBRANCH  20  21
ENDBRANCH  16  20
ENDBRANCH  13  15
ENDBRANCH   1  13
TORSDOF 4
ENDMDL
MODEL 6
REMARK VINA RESULT:      -6.8      4.139      5.785
REMARK  4 active torsions:
REMARK  status: ('A' for Active; 'I' for Inactive)
REMARK    1  A    between atoms: S1_2  and  C2_3 
REMARK    2  A    between atoms: C2_3  and  C3_4 
REMARK    3  A    between atoms: C6_8  and  N2_9 
REMARK    4  A    between atoms: N2_9  and  C7_10 
ROOT
HETATM    1  C7  UNL     1      25.354   3.172  50.300  1.00  0.00     0.240 C 
HETATM    2  O1  UNL     1      26.490   3.249  51.172  1.00  0.00    -0.291 OA
HETATM    3  C8  UNL     1      26.773   2.166  51.977  1.00  0.00     0.295 C 
HETATM    4  O2  UNL     1      27.939   1.856  52.371  1.00  0.00    -0.259 OA
HETATM    5  C9  UNL     1      25.614   1.343  52.382  1.00  0.00     0.046 A 
HETATM    6  C10 UNL     1      25.904   0.253  53.190  1.00  0.00     0.018 A 
HETATM    7  C11 UNL     1      24.842  -0.541  53.586  1.00  0.00     0.001 A 
HETATM    8  C12 UNL     1      23.565  -0.229  53.173  1.00  0.00     0.001 A 
HETATM    9  C13 UNL     1      23.317   0.850  52.379  1.00  0.00     0.009 A 
HETATM   10  C14 UNL     1      24.336   1.678  51.953  1.00  0.00    -0.034 A 
HETATM   11  C15 UNL     1      24.101   2.869  51.086  1.00  0.00     0.065 C 
HETATM   12  C16 UNL     1      23.633   4.008  51.943  1.00  0.00     0.019 C 
ENDROOT
BRANCH   1  13
HETATM   13  N2  UNL     1      25.275   4.392  49.531  1.00  0.00    -0.350 N 
HETATM   14  H9  UNL     1      24.373   4.854  49.283  1.00  0.00     0.163 HD
BRANCH  13  15
HETATM   15  C6  UNL     1      26.474   5.026  49.068  1.00  0.00     0.110 A 
HETATM   16  C3  UNL     1      26.606   6.511  48.935  1.00  0.00     0.088 A 
HETATM   17  C4  UNL     1      27.987   6.638  48.436  1.00  0.00     0.006 A 
HETATM   18  C5  UNL     1      28.528   5.432  48.314  1.00  0.00     0.115 A 
HETATM   19  N1  UNL     1      27.569   4.443  48.712  1.00  0.00    -0.247 NA
BRANCH  16  20
HETATM   20  C2  UNL     1      25.550   7.073  48.034  1.00  0.00     0.089 C 
BRANCH  20  21
HETATM   21  S1  UNL     1      24.573   8.358  48.840  1.00  0.00    -0.172 SA
HETATM   22  C1  UNL     1      24.124   7.892  50.510  1.00  0.00     0.089 C 
ENDBRANCH  20  21
ENDBRANCH  16  20
ENDBRANCH  13  15
ENDBRANCH   1  13
TORSDOF 4
ENDMDL
MODEL 7
REMARK VINA RESULT:      -6.8      3.750      6.589
REMARK  4 active torsions:
REMARK  status: ('A' for Active; 'I' for Inactive)
REMARK    1  A    between atoms: S1_2  and  C2_3 
REMARK    2  A    between atoms: C2_3  and  C3_4 
REMARK    3  A    between atoms: C6_8  and  N2_9 
REMARK    4  A    between atoms: N2_9  and  C7_10 
ROOT
HETATM    1  C7  UNL     1      26.014   3.585  50.638  1.00  0.00     0.240 C 
HETATM    2  O1  UNL     1      27.000   3.460  49.604  1.00  0.00    -0.291 OA
HETATM    3  C8  UNL     1      27.375   4.595  48.916  1.00  0.00     0.295 C 
HETATM    4  O2  UNL     1      28.520   4.769  48.397  1.00  0.00    -0.259 OA
HETATM    5  C9  UNL     1      26.346   5.651  48.802  1.00  0.00     0.046 A 
HETATM    6  C10 UNL     1      26.729   6.792  48.113  1.00  0.00     0.018 A 
HETATM    7  C11 UNL     1      25.790   7.801  47.990  1.00  0.00     0.001 A 
HETATM    8  C12 UNL     1      24.539   7.641  48.544  1.00  0.00     0.001 A 
HETATM    9  C13 UNL     1      24.197   6.506  49.215  1.00  0.00     0.009 A 
HETATM   10  C14 UNL     1      25.091   5.466  49.370  1.00  0.00    -0.034 A 
HETATM   11  C15 UNL     1      24.751   4.208  50.097  1.00  0.00     0.065 C 
HETATM   12  C16 UNL     1      23.978   3.310  49.176  1.00  0.00     0.019 C 
ENDROOT
BRANCH   1  13
HETATM   13  N2  UNL     1      25.809   2.289  51.241  1.00  0.00    -0.350 N 
HETATM   14  H9  UNL     1      24.984   1.685  51.031  1.00  0.00     0.163 HD
BRANCH  13  15
HETATM   15  C6  UNL     1      26.763   1.775  52.178  1.00  0.00     0.110 A 
HETATM   16  C3  UNL     1      26.512   0.550  53.002  1.00  0.00     0.088 A 
HETATM   17  C4  UNL     1      27.763   0.456  53.775  1.00  0.00     0.006 A 
HETATM   18  C5  UNL     1      28.569   1.455  53.438  1.00  0.00     0.115 A 
HETATM   19  N1  UNL     1      27.928   2.264  52.443  1.00  0.00    -0.247 NA
BRANCH  16  20
HETATM   20  C2  UNL     1      25.267   0.692  53.822  1.00  0.00     0.089 C 
BRANCH  20  21
HETATM   21  S1  UNL     1      23.978  -0.466  53.319  1.00  0.00    -0.172 SA
HETATM   22  C1  UNL     1      23.021  -1.036  54.722  1.00  0.00     0.089 C 
ENDBRANCH  20  21
ENDBRANCH  16  20
ENDBRANCH  13  15
ENDBRANCH   1  13
TORSDOF 4
ENDMDL
MODEL 8
REMARK VINA RESULT:      -6.4      1.835      2.717
REMARK  4 active torsions:
REMARK  status: ('A' for Active; 'I' for Inactive)
REMARK    1  A    between atoms: S1_2  and  C2_3 
REMARK    2  A    between atoms: C2_3  and  C3_4 
REMARK    3  A    between atoms: C6_8  and  N2_9 
REMARK    4  A    between atoms: N2_9  and  C7_10 
ROOT
HETATM    1  C7  UNL     1      24.687   2.193  52.587  1.00  0.00     0.240 C 
HETATM    2  O1  UNL     1      24.645   0.792  52.283  1.00  0.00    -0.291 OA
HETATM    3  C8  UNL     1      25.543  -0.042  52.915  1.00  0.00     0.295 C 
HETATM    4  O2  UNL     1      25.321  -1.265  53.172  1.00  0.00    -0.259 OA
HETATM    5  C9  UNL     1      26.833   0.570  53.298  1.00  0.00     0.046 A 
HETATM    6  C10 UNL     1      27.731  -0.273  53.937  1.00  0.00     0.018 A 
HETATM    7  C11 UNL     1      28.949   0.269  54.312  1.00  0.00     0.001 A 
HETATM    8  C12 UNL     1      29.218   1.594  54.046  1.00  0.00     0.001 A 
HETATM    9  C13 UNL     1      28.311   2.392  53.417  1.00  0.00     0.009 A 
HETATM   10  C14 UNL     1      27.081   1.908  53.019  1.00  0.00    -0.034 A 
HETATM   11  C15 UNL     1      26.064   2.752  52.327  1.00  0.00     0.065 C 
HETATM   12  C16 UNL     1      26.418   2.841  50.871  1.00  0.00     0.019 C 
ENDROOT
BRANCH   1  13
HETATM   13  N2  UNL     1      23.641   2.859  51.846  1.00  0.00    -0.350 N 
HETATM   14  H9  UNL     1      23.596   3.896  51.728  1.00  0.00     0.163 HD
BRANCH  13  15
HETATM   15  C6  UNL     1      22.598   2.093  51.231  1.00  0.00     0.110 A 
HETATM   16  C3  UNL     1      21.252   1.906  51.859  1.00  0.00     0.088 A 
HETATM   17  C4  UNL     1      20.575   1.067  50.855  1.00  0.00     0.006 A 
HETATM   18  C5  UNL     1      21.402   0.830  49.844  1.00  0.00     0.115 A 
HETATM   19  N1  UNL     1      22.656   1.478  50.099  1.00  0.00    -0.247 NA
BRANCH  16  20
HETATM   20  C2  UNL     1      21.367   1.296  53.222  1.00  0.00     0.089 C 
BRANCH  20  21
HETATM   21  S1  UNL     1      21.487  -0.502  53.162  1.00  0.00    -0.172 SA
HETATM   22  C1  UNL     1      22.080  -1.175  54.713  1.00  0.00     0.089 C 
ENDBRANCH  20  21
ENDBRANCH  16  20
ENDBRANCH  13  15
ENDBRANCH   1  13
TORSDOF 4
ENDMDL
MODEL 9
REMARK VINA RESULT:      -6.4      3.720      5.563
REMARK  4 active torsions:
REMARK  status: ('A' for Active; 'I' for Inactive)
REMARK    1  A    between atoms: S1_2  and  C2_3 
REMARK    2  A    between atoms: C2_3  and  C3_4 
REMARK    3  A    between atoms: C6_8  and  N2_9 
REMARK    4  A    between atoms: N2_9  and  C7_10 
ROOT
HETATM    1  C7  UNL     1      24.443   3.359  50.034  1.00  0.00     0.240 C 
HETATM    2  O1  UNL     1      24.116   4.453  50.901  1.00  0.00    -0.291 OA
HETATM    3  C8  UNL     1      24.535   5.718  50.547  1.00  0.00     0.295 C 
HETATM    4  O2  UNL     1      23.929   6.787  50.865  1.00  0.00    -0.259 OA
HETATM    5  C9  UNL     1      25.775   5.786  49.745  1.00  0.00     0.046 A 
HETATM    6  C10 UNL     1      26.192   7.060  49.388  1.00  0.00     0.018 A 
HETATM    7  C11 UNL     1      27.349   7.159  48.634  1.00  0.00     0.001 A 
HETATM    8  C12 UNL     1      28.028   6.016  48.272  1.00  0.00     0.001 A 
HETATM    9  C13 UNL     1      27.589   4.780  48.641  1.00  0.00     0.009 A 
HETATM   10  C14 UNL     1      26.443   4.619  49.392  1.00  0.00    -0.034 A 
HETATM   11  C15 UNL     1      25.934   3.282  49.815  1.00  0.00     0.065 C 
HETATM   12  C16 UNL     1      26.702   2.831  51.024  1.00  0.00     0.019 C 
ENDROOT
BRANCH   1  13
HETATM   13  N2  UNL     1      23.873   2.149  50.580  1.00  0.00    -0.350 N 
HETATM   14  H9  UNL     1      24.377   1.235  50.592  1.00  0.00     0.163 HD
BRANCH  13  15
HETATM   15  C6  UNL     1      22.554   2.167  51.139  1.00  0.00     0.110 A 
HETATM   16  C3  UNL     1      22.298   2.116  52.613  1.00  0.00     0.088 A 
HETATM   17  C4  UNL     1      20.826   2.158  52.656  1.00  0.00     0.006 A 
HETATM   18  C5  UNL     1      20.347   2.221  51.419  1.00  0.00     0.115 A 
HETATM   19  N1  UNL     1      21.440   2.225  50.491  1.00  0.00    -0.247 NA
BRANCH  16  20
HETATM   20  C2  UNL     1      22.917   0.901  53.232  1.00  0.00     0.089 C 
BRANCH  20  21
HETATM   21  S1  UNL     1      21.948  -0.591  52.934  1.00  0.00    -0.172 SA
HETATM   22  C1  UNL     1      21.461  -1.377  54.468  1.00  0.00     0.089 C 
ENDBRANCH  20  21
ENDBRANCH  16  20
ENDBRANCH  13  15
ENDBRANCH   1  13
TORSDOF 4
ENDMDL
