MODEL 1
REMARK VINA RESULT:      -8.8      0.000      0.000
REMARK  5 active torsions:
REMARK  status: ('A' for Active; 'I' for Inactive)
REMARK    1  A    between atoms: N1_1  and  C1_2 
REMARK    2  A    between atoms: C11_14  and  C12_15 
REMARK    3  A    between atoms: C12_15  and  C13_16 
REMARK    4  A    between atoms: C18_21  and  N4_22 
REMARK    5  A    between atoms: C23_27  and  O1_28 
ROOT
HETATM    1  C1  UNL     1      22.684   6.177  47.244  1.00  0.00     0.102 C 
HETATM    2  N2  UNL     1      23.224   7.072  47.979  1.00  0.00    -0.229 NA
HETATM    3  C2  UNL     1      23.273   8.402  47.518  1.00  0.00     0.229 C 
HETATM    4  N3  UNL     1      22.313   8.545  48.407  1.00  0.00    -0.271 NA
HETATM    5  C3  UNL     1      21.916   7.366  49.156  1.00  0.00     0.068 A 
HETATM    6  C4  UNL     1      20.467   7.336  49.351  1.00  0.00     0.042 A 
HETATM    7  C5  UNL     1      21.494   7.485  50.500  1.00  0.00     0.030 A 
HETATM    8  C6  UNL     1      22.966   7.156  50.166  1.00  0.00     0.054 A 
HETATM    9  C7  UNL     1      23.414   5.747  50.133  1.00  0.00    -0.041 C 
HETATM   10  C8  UNL     1      23.324   4.774  49.209  1.00  0.00    -0.064 C 
HETATM   11  C9  UNL     1      23.836   3.354  49.316  1.00  0.00     0.062 C 
HETATM   12  C10 UNL     1      23.846   2.846  50.692  1.00  0.00    -0.019 C 
HETATM   13  C11 UNL     1      23.620   3.222  51.925  1.00  0.00    -0.076 C 
HETATM   14  C22 UNL     1      23.196   4.612  52.252  1.00  0.00     0.070 C 
HETATM   15  C23 UNL     1      24.074   5.556  51.469  1.00  0.00     0.151 C 
HETATM   16  C24 UNL     1      22.712   4.865  47.882  1.00  0.00     0.112 C 
ENDROOT
BRANCH  13  17
HETATM   17  C12 UNL     1      23.759   2.327  53.093  1.00  0.00     0.074 C 
BRANCH  17  18
HETATM   18  C13 UNL     1      24.878   1.372  52.946  1.00  0.00    -0.028 A 
HETATM   19  C14 UNL     1      26.176   1.764  52.607  1.00  0.00     0.010 A 
HETATM   20  C15 UNL     1      27.228   0.887  52.462  1.00  0.00     0.001 A 
HETATM   21  C16 UNL     1      27.005  -0.455  52.661  1.00  0.00     0.002 A 
HETATM   22  C17 UNL     1      25.733  -0.859  52.995  1.00  0.00     0.030 A 
HETATM   23  C18 UNL     1      24.645   0.007  53.149  1.00  0.00     0.036 A 
BRANCH  23  24
HETATM   24  N4  UNL     1      23.372  -0.530  53.501  1.00  0.00    -0.380 N 
HETATM   25  C19 UNL     1      22.036  -0.856  53.100  1.00  0.00     0.124 C 
HETATM   26  C20 UNL     1      21.783  -1.640  54.371  1.00  0.00     0.040 C 
HETATM   27  C21 UNL     1      23.087  -1.034  54.835  1.00  0.00     0.124 C 
ENDBRANCH  23  24
ENDBRANCH  17  18
ENDBRANCH  13  17
BRANCH  15  28
HETATM   28  O1  UNL     1      24.398   6.717  52.110  1.00  0.00    -0.391 OA
HETATM   29  H26 UNL     1      24.945   6.595  52.923  1.00  0.00     0.210 HD
ENDBRANCH  15  28
BRANCH   1  30
HETATM   30  N1  UNL     1      22.130   6.508  45.963  1.00  0.00    -0.387 N 
HETATM   31  H1  UNL     1      22.468   7.447  45.630  1.00  0.00     0.157 HD
HETATM   32  H2  UNL     1      21.477   6.035  45.290  1.00  0.00     0.157 HD
ENDBRANCH   1  30
TORSDOF 5
ENDMDL
MODEL 2
REMARK VINA RESULT:      -8.8      2.869      3.551
REMARK  5 active torsions:
REMARK  status: ('A' for Active; 'I' for Inactive)
REMARK    1  A    between atoms: N1_1  and  C1_2 
REMARK    2  A    between atoms: C11_14  and  C12_15 
REMARK    3  A    between atoms: C12_15  and  C13_16 
REMARK    4  A    between atoms: C18_21  and  N4_22 
REMARK    5  A    between atoms: C23_27  and  O1_28 
ROOT
HETATM    1  C1  UNL     1      27.648   7.813  48.531  1.00  0.00     0.102 C 
HETATM    2  N2  UNL     1      27.202   8.259  49.643  1.00  0.00    -0.229 NA
HETATM    3  C2  UNL     1      27.543   9.565  50.046  1.00  0.00     0.229 C 
HETATM    4  N3  UNL     1      26.298   9.797  49.688  1.00  0.00    -0.271 NA
HETATM    5  C3  UNL     1      25.529   8.674  49.182  1.00  0.00     0.068 A 
HETATM    6  C4  UNL     1      24.672   9.088  48.072  1.00  0.00     0.042 A 
HETATM    7  C5  UNL     1      24.141   8.589  49.438  1.00  0.00     0.030 A 
HETATM    8  C6  UNL     1      25.154   7.876  50.360  1.00  0.00     0.054 A 
HETATM    9  C7  UNL     1      25.486   6.454  50.126  1.00  0.00    -0.041 C 
HETATM   10  C8  UNL     1      26.318   5.833  49.271  1.00  0.00    -0.064 C 
HETATM   11  C9  UNL     1      26.559   4.345  49.141  1.00  0.00     0.062 C 
HETATM   12  C10 UNL     1      25.389   3.536  49.500  1.00  0.00    -0.019 C 
HETATM   13  C11 UNL     1      24.175   3.646  49.976  1.00  0.00    -0.076 C 
HETATM   14  C22 UNL     1      23.596   4.969  50.342  1.00  0.00     0.070 C 
HETATM   15  C23 UNL     1      24.639   5.724  51.129  1.00  0.00     0.151 C 
HETATM   16  C24 UNL     1      27.187   6.454  48.269  1.00  0.00     0.112 C 
ENDROOT
BRANCH  13  17
HETATM   17  C12 UNL     1      23.273   2.495  50.194  1.00  0.00     0.074 C 
BRANCH  17  18
HETATM   18  C13 UNL     1      23.664   1.684  51.367  1.00  0.00    -0.028 A 
HETATM   19  C14 UNL     1      24.993   1.397  51.688  1.00  0.00     0.010 A 
HETATM   20  C15 UNL     1      25.372   0.640  52.774  1.00  0.00     0.001 A 
HETATM   21  C16 UNL     1      24.399   0.131  53.600  1.00  0.00     0.002 A 
HETATM   22  C17 UNL     1      23.084   0.403  53.300  1.00  0.00     0.030 A 
HETATM   23  C18 UNL     1      22.668   1.168  52.204  1.00  0.00     0.036 A 
BRANCH  23  24
HETATM   24  N4  UNL     1      21.275   1.385  51.996  1.00  0.00    -0.380 N 
HETATM   25  C19 UNL     1      20.137   2.238  52.168  1.00  0.00     0.124 C 
HETATM   26  C20 UNL     1      19.292   1.400  51.231  1.00  0.00     0.040 C 
HETATM   27  C21 UNL     1      20.434   0.413  51.314  1.00  0.00     0.124 C 
ENDBRANCH  23  24
ENDBRANCH  17  18
ENDBRANCH  13  17
BRANCH  15  28
HETATM   28  O1  UNL     1      24.155   6.508  52.136  1.00  0.00    -0.391 OA
HETATM   29  H26 UNL     1      24.612   6.384  53.003  1.00  0.00     0.210 HD
ENDBRANCH  15  28
BRANCH   1  30
HETATM   30  N1  UNL     1      28.489   8.621  47.696  1.00  0.00    -0.387 N 
HETATM   31  H1  UNL     1      28.739   9.528  48.165  1.00  0.00     0.157 HD
HETATM   32  H2  UNL     1      28.908   8.516  46.738  1.00  0.00     0.157 HD
ENDBRANCH   1  30
TORSDOF 5
ENDMDL
MODEL 3
REMARK VINA RESULT:      -8.8      0.871      2.435
REMARK  5 active torsions:
REMARK  status: ('A' for Active; 'I' for Inactive)
REMARK    1  A    between atoms: N1_1  and  C1_2 
REMARK    2  A    between atoms: C11_14  and  C12_15 
REMARK    3  A    between atoms: C12_15  and  C13_16 
REMARK    4  A    between atoms: C18_21  and  N4_22 
REMARK    5  A    between atoms: C23_27  and  O1_28 
ROOT
HETATM    1  C1  UNL     1      22.454   6.147  47.201  1.00  0.00     0.102 C 
HETATM    2  N2  UNL     1      22.928   7.128  47.868  1.00  0.00    -0.229 NA
HETATM    3  C2  UNL     1      22.779   8.436  47.367  1.00  0.00     0.229 C 
HETATM    4  N3  UNL     1      21.870   8.494  48.318  1.00  0.00    -0.271 NA
HETATM    5  C3  UNL     1      21.676   7.304  49.127  1.00  0.00     0.068 A 
HETATM    6  C4  UNL     1      20.258   7.104  49.426  1.00  0.00     0.042 A 
HETATM    7  C5  UNL     1      21.333   7.421  50.494  1.00  0.00     0.030 A 
HETATM    8  C6  UNL     1      22.809   7.262  50.065  1.00  0.00     0.054 A 
HETATM    9  C7  UNL     1      23.426   5.918  50.041  1.00  0.00    -0.041 C 
HETATM   10  C8  UNL     1      23.395   4.907  49.155  1.00  0.00    -0.064 C 
HETATM   11  C9  UNL     1      24.086   3.566  49.266  1.00  0.00     0.062 C 
HETATM   12  C10 UNL     1      24.252   3.115  50.652  1.00  0.00    -0.019 C 
HETATM   13  C11 UNL     1      24.065   3.506  51.886  1.00  0.00    -0.076 C 
HETATM   14  C22 UNL     1      23.494   4.846  52.203  1.00  0.00     0.070 C 
HETATM   15  C23 UNL     1      24.193   5.860  51.332  1.00  0.00     0.151 C 
HETATM   16  C24 UNL     1      22.689   4.873  47.872  1.00  0.00     0.112 C 
ENDROOT
BRANCH  13  17
HETATM   17  C12 UNL     1      24.393   2.680  53.067  1.00  0.00     0.074 C 
BRANCH  17  18
HETATM   18  C13 UNL     1      23.578   1.448  53.141  1.00  0.00    -0.028 A 
HETATM   19  C14 UNL     1      22.186   1.446  53.023  1.00  0.00     0.010 A 
HETATM   20  C15 UNL     1      21.413   0.308  53.093  1.00  0.00     0.001 A 
HETATM   21  C16 UNL     1      22.032  -0.903  53.288  1.00  0.00     0.002 A 
HETATM   22  C17 UNL     1      23.403  -0.921  53.407  1.00  0.00     0.030 A 
HETATM   23  C18 UNL     1      24.215   0.218  53.340  1.00  0.00     0.036 A 
BRANCH  23  24
HETATM   24  N4  UNL     1      25.627   0.075  53.474  1.00  0.00    -0.380 N 
HETATM   25  C19 UNL     1      26.780   0.131  54.321  1.00  0.00     0.124 C 
HETATM   26  C20 UNL     1      27.658  -0.513  53.268  1.00  0.00     0.040 C 
HETATM   27  C21 UNL     1      26.477  -0.290  52.352  1.00  0.00     0.124 C 
ENDBRANCH  23  24
ENDBRANCH  17  18
ENDBRANCH  13  17
BRANCH  15  28
HETATM   28  O1  UNL     1      24.412   7.076  51.913  1.00  0.00    -0.391 OA
HETATM   29  H26 UNL     1      24.005   7.836  51.431  1.00  0.00     0.210 HD
ENDBRANCH  15  28
BRANCH   1  30
HETATM   30  N1  UNL     1      21.779   6.359  45.953  1.00  0.00    -0.387 N 
HETATM   31  H1  UNL     1      21.921   5.548  45.298  1.00  0.00     0.157 HD
HETATM   32  H2  UNL     1      21.184   7.125  45.550  1.00  0.00     0.157 HD
ENDBRANCH   1  30
TORSDOF 5
ENDMDL
MODEL 4
REMARK VINA RESULT:      -8.7      3.341      4.514
REMARK  5 active torsions:
REMARK  status: ('A' for Active; 'I' for Inactive)
REMARK    1  A    between atoms: N1_1  and  C1_2 
REMARK    2  A    between atoms: C11_14  and  C12_15 
REMARK    3  A    between atoms: C12_15  and  C13_16 
REMARK    4  A    between atoms: C18_21  and  N4_22 
REMARK    5  A    between atoms: C23_27  and  O1_28 
ROOT
HETATM    1  C1  UNL     1      28.417   9.043  47.454  1.00  0.00     0.102 C 
HETATM    2  N2  UNL     1      27.808   9.549  48.457  1.00  0.00    -0.229 NA
HETATM    3  C2  UNL     1      27.867  10.941  48.668  1.00  0.00     0.229 C 
HETATM    4  N3  UNL     1      26.633  10.870  48.214  1.00  0.00    -0.271 NA
HETATM    5  C3  UNL     1      26.129   9.558  47.853  1.00  0.00     0.068 A 
HETATM    6  C4  UNL     1      25.303   9.631  46.649  1.00  0.00     0.042 A 
HETATM    7  C5  UNL     1      24.765   9.241  48.047  1.00  0.00     0.030 A 
HETATM    8  C6  UNL     1      25.816   8.881  49.121  1.00  0.00     0.054 A 
HETATM    9  C7  UNL     1      26.424   7.532  49.131  1.00  0.00    -0.041 C 
HETATM   10  C8  UNL     1      27.422   6.969  48.427  1.00  0.00    -0.064 C 
HETATM   11  C9  UNL     1      27.945   5.554  48.546  1.00  0.00     0.062 C 
HETATM   12  C10 UNL     1      26.920   4.593  48.967  1.00  0.00    -0.019 C 
HETATM   13  C11 UNL     1      25.673   4.531  49.357  1.00  0.00    -0.076 C 
HETATM   14  C22 UNL     1      24.831   5.753  49.481  1.00  0.00     0.070 C 
HETATM   15  C23 UNL     1      25.648   6.804  50.191  1.00  0.00     0.151 C 
HETATM   16  C24 UNL     1      28.239   7.596  47.387  1.00  0.00     0.112 C 
ENDROOT
BRANCH  13  17
HETATM   17  C12 UNL     1      24.986   3.270  49.708  1.00  0.00     0.074 C 
BRANCH  17  18
HETATM   18  C13 UNL     1      25.425   2.728  51.012  1.00  0.00    -0.028 A 
HETATM   19  C14 UNL     1      26.605   1.999  51.177  1.00  0.00     0.010 A 
HETATM   20  C15 UNL     1      27.025   1.485  52.384  1.00  0.00     0.001 A 
HETATM   21  C16 UNL     1      26.251   1.694  53.500  1.00  0.00     0.002 A 
HETATM   22  C17 UNL     1      25.085   2.411  53.356  1.00  0.00     0.030 A 
HETATM   23  C18 UNL     1      24.631   2.945  52.145  1.00  0.00     0.036 A 
BRANCH  23  24
HETATM   24  N4  UNL     1      23.406   3.673  52.120  1.00  0.00    -0.380 N 
HETATM   25  C19 UNL     1      22.740   4.936  52.227  1.00  0.00     0.124 C 
HETATM   26  C20 UNL     1      21.433   4.356  51.727  1.00  0.00     0.040 C 
HETATM   27  C21 UNL     1      22.124   3.023  51.898  1.00  0.00     0.124 C 
ENDBRANCH  23  24
ENDBRANCH  17  18
ENDBRANCH  13  17
BRANCH  15  28
HETATM   28  O1  UNL     1      24.948   7.616  51.036  1.00  0.00    -0.391 OA
HETATM   29  H26 UNL     1      25.390   7.777  51.905  1.00  0.00     0.210 HD
ENDBRANCH  15  28
BRANCH   1  30
HETATM   30  N1  UNL     1      29.158   9.870  46.546  1.00  0.00    -0.387 N 
HETATM   31  H1  UNL     1      30.116   9.475  46.362  1.00  0.00     0.157 HD
HETATM   32  H2  UNL     1      28.967  10.765  46.029  1.00  0.00     0.157 HD
ENDBRANCH   1  30
TORSDOF 5
ENDMDL
MODEL 5
REMARK VINA RESULT:      -8.6      2.036      8.121
REMARK  5 active torsions:
REMARK  status: ('A' for Active; 'I' for Inactive)
REMARK    1  A    between atoms: N1_1  and  C1_2 
REMARK    2  A    between atoms: C11_14  and  C12_15 
REMARK    3  A    between atoms: C12_15  and  C13_16 
REMARK    4  A    between atoms: C18_21  and  N4_22 
REMARK    5  A    between atoms: C23_27  and  O1_28 
ROOT
HETATM    1  C1  UNL     1      24.686  -0.596  54.725  1.00  0.00     0.102 C 
HETATM    2  N2  UNL     1      25.657   0.228  54.619  1.00  0.00    -0.229 NA
HETATM    3  C2  UNL     1      26.783   0.072  55.451  1.00  0.00     0.229 C 
HETATM    4  N3  UNL     1      27.311  -0.377  54.332  1.00  0.00    -0.271 NA
HETATM    5  C3  UNL     1      26.462  -0.399  53.155  1.00  0.00     0.068 A 
HETATM    6  C4  UNL     1      26.707  -1.600  52.358  1.00  0.00     0.042 A 
HETATM    7  C5  UNL     1      27.013  -0.162  51.875  1.00  0.00     0.030 A 
HETATM    8  C6  UNL     1      26.384   0.993  52.685  1.00  0.00     0.054 A 
HETATM    9  C7  UNL     1      24.971   1.366  52.459  1.00  0.00    -0.041 C 
HETATM   10  C8  UNL     1      23.805   0.856  52.893  1.00  0.00    -0.064 C 
HETATM   11  C9  UNL     1      22.411   1.349  52.573  1.00  0.00     0.062 C 
HETATM   12  C10 UNL     1      22.310   1.980  51.252  1.00  0.00    -0.019 C 
HETATM   13  C11 UNL     1      23.044   2.343  50.232  1.00  0.00    -0.076 C 
HETATM   14  C22 UNL     1      24.518   2.126  50.213  1.00  0.00     0.070 C 
HETATM   15  C23 UNL     1      25.063   2.560  51.552  1.00  0.00     0.151 C 
HETATM   16  C24 UNL     1      23.614  -0.291  53.782  1.00  0.00     0.112 C 
ENDROOT
BRANCH  13  17
HETATM   17  C12 UNL     1      22.500   2.991  49.020  1.00  0.00     0.074 C 
BRANCH  17  18
HETATM   18  C13 UNL     1      21.620   4.136  49.336  1.00  0.00    -0.028 A 
HETATM   19  C14 UNL     1      20.226   4.045  49.356  1.00  0.00     0.010 A 
HETATM   20  C15 UNL     1      19.393   5.103  49.645  1.00  0.00     0.001 A 
HETATM   21  C16 UNL     1      19.950   6.326  49.933  1.00  0.00     0.002 A 
HETATM   22  C17 UNL     1      21.321   6.435  49.919  1.00  0.00     0.030 A 
HETATM   23  C18 UNL     1      22.193   5.380  49.629  1.00  0.00     0.036 A 
BRANCH  23  24
HETATM   24  N4  UNL     1      23.599   5.613  49.647  1.00  0.00    -0.380 N 
HETATM   25  C19 UNL     1      24.843   5.602  48.938  1.00  0.00     0.124 C 
HETATM   26  C20 UNL     1      25.553   6.345  50.051  1.00  0.00     0.040 C 
HETATM   27  C21 UNL     1      24.291   6.079  50.838  1.00  0.00     0.124 C 
ENDBRANCH  23  24
ENDBRANCH  17  18
ENDBRANCH  13  17
BRANCH  15  28
HETATM   28  O1  UNL     1      26.293   3.149  51.517  1.00  0.00    -0.391 OA
HETATM   29  H26 UNL     1      26.452   3.713  50.721  1.00  0.00     0.210 HD
ENDBRANCH  15  28
BRANCH   1  30
HETATM   30  N1  UNL     1      24.726  -1.669  55.675  1.00  0.00    -0.387 N 
HETATM   31  H1  UNL     1      25.655  -2.162  55.659  1.00  0.00     0.157 HD
HETATM   32  H2  UNL     1      24.053  -2.069  56.375  1.00  0.00     0.157 HD
ENDBRANCH   1  30
TORSDOF 5
ENDMDL
MODEL 6
REMARK VINA RESULT:      -8.6      1.842      2.553
REMARK  5 active torsions:
REMARK  status: ('A' for Active; 'I' for Inactive)
REMARK    1  A    between atoms: N1_1  and  C1_2 
REMARK    2  A    between atoms: C11_14  and  C12_15 
REMARK    3  A    between atoms: C12_15  and  C13_16 
REMARK    4  A    between atoms: C18_21  and  N4_22 
REMARK    5  A    between atoms: C23_27  and  O1_28 
ROOT
HETATM    1  C1  UNL     1      20.519   3.272  46.886  1.00  0.00     0.102 C 
HETATM    2  N2  UNL     1      21.679   3.724  46.597  1.00  0.00    -0.229 NA
HETATM    3  C2  UNL     1      21.862   4.422  45.388  1.00  0.00     0.229 C 
HETATM    4  N3  UNL     1      21.890   5.452  46.207  1.00  0.00    -0.271 NA
HETATM    5  C3  UNL     1      21.729   5.182  47.624  1.00  0.00     0.068 A 
HETATM    6  C4  UNL     1      20.911   6.213  48.261  1.00  0.00     0.042 A 
HETATM    7  C5  UNL     1      22.406   5.972  48.581  1.00  0.00     0.030 A 
HETATM    8  C6  UNL     1      23.019   4.644  48.084  1.00  0.00     0.054 A 
HETATM    9  C7  UNL     1      22.797   3.399  48.851  1.00  0.00    -0.041 C 
HETATM   10  C8  UNL     1      21.773   2.529  48.914  1.00  0.00    -0.064 C 
HETATM   11  C9  UNL     1      21.683   1.278  49.760  1.00  0.00     0.062 C 
HETATM   12  C10 UNL     1      22.443   1.369  51.011  1.00  0.00    -0.019 C 
HETATM   13  C11 UNL     1      23.261   2.159  51.657  1.00  0.00    -0.076 C 
HETATM   14  C22 UNL     1      23.693   3.468  51.091  1.00  0.00     0.070 C 
HETATM   15  C23 UNL     1      24.062   3.244  49.645  1.00  0.00     0.151 C 
HETATM   16  C24 UNL     1      20.511   2.588  48.176  1.00  0.00     0.112 C 
ENDROOT
BRANCH  13  17
HETATM   17  C12 UNL     1      23.830   1.843  52.984  1.00  0.00     0.074 C 
BRANCH  17  18
HETATM   18  C13 UNL     1      24.936   0.865  52.908  1.00  0.00    -0.028 A 
HETATM   19  C14 UNL     1      26.171   1.154  52.324  1.00  0.00     0.010 A 
HETATM   20  C15 UNL     1      27.210   0.253  52.242  1.00  0.00     0.001 A 
HETATM   21  C16 UNL     1      27.037  -1.007  52.762  1.00  0.00     0.002 A 
HETATM   22  C17 UNL     1      25.826  -1.311  53.342  1.00  0.00     0.030 A 
HETATM   23  C18 UNL     1      24.753  -0.417  53.439  1.00  0.00     0.036 A 
BRANCH  23  24
HETATM   24  N4  UNL     1      23.546  -0.845  54.065  1.00  0.00    -0.380 N 
HETATM   25  C19 UNL     1      22.835  -1.118  55.278  1.00  0.00     0.124 C 
HETATM   26  C20 UNL     1      21.517  -1.253  54.545  1.00  0.00     0.040 C 
HETATM   27  C21 UNL     1      22.371  -1.228  53.299  1.00  0.00     0.124 C 
ENDBRANCH  23  24
ENDBRANCH  17  18
ENDBRANCH  13  17
BRANCH  15  28
HETATM   28  O1  UNL     1      25.110   3.990  49.189  1.00  0.00    -0.391 OA
HETATM   29  H26 UNL     1      26.000   3.611  49.395  1.00  0.00     0.210 HD
ENDBRANCH  15  28
BRANCH   1  30
HETATM   30  N1  UNL     1      19.408   3.464  45.999  1.00  0.00    -0.387 N 
HETATM   31  H1  UNL     1      19.726   3.796  45.053  1.00  0.00     0.157 HD
HETATM   32  H2  UNL     1      18.367   3.350  46.075  1.00  0.00     0.157 HD
ENDBRANCH   1  30
TORSDOF 5
ENDMDL
MODEL 7
REMARK VINA RESULT:      -8.5      2.031      3.834
REMARK  5 active torsions:
REMARK  status: ('A' for Active; 'I' for Inactive)
REMARK    1  A    between atoms: N1_1  and  C1_2 
REMARK    2  A    between atoms: C11_14  and  C12_15 
REMARK    3  A    between atoms: C12_15  and  C13_16 
REMARK    4  A    between atoms: C18_21  and  N4_22 
REMARK    5  A    between atoms: C23_27  and  O1_28 
ROOT
HETATM    1  C1  UNL     1      21.506   6.934  50.482  1.00  0.00     0.102 C 
HETATM    2  N2  UNL     1      20.653   6.081  50.060  1.00  0.00    -0.229 NA
HETATM    3  C2  UNL     1      19.525   6.532  49.347  1.00  0.00     0.229 C 
HETATM    4  N3  UNL     1      20.208   6.044  48.333  1.00  0.00    -0.271 NA
HETATM    5  C3  UNL     1      21.500   5.450  48.623  1.00  0.00     0.068 A 
HETATM    6  C4  UNL     1      22.470   5.778  47.579  1.00  0.00     0.042 A 
HETATM    7  C5  UNL     1      21.962   4.346  47.870  1.00  0.00     0.030 A 
HETATM    8  C6  UNL     1      21.218   4.130  49.207  1.00  0.00     0.054 A 
HETATM    9  C7  UNL     1      21.989   3.962  50.458  1.00  0.00    -0.041 C 
HETATM   10  C8  UNL     1      22.579   4.831  51.298  1.00  0.00    -0.064 C 
HETATM   11  C9  UNL     1      23.348   4.510  52.561  1.00  0.00     0.062 C 
HETATM   12  C10 UNL     1      24.017   3.205  52.514  1.00  0.00    -0.019 C 
HETATM   13  C11 UNL     1      24.139   2.143  51.761  1.00  0.00    -0.076 C 
HETATM   14  C22 UNL     1      23.430   2.025  50.456  1.00  0.00     0.070 C 
HETATM   15  C23 UNL     1      22.004   2.474  50.665  1.00  0.00     0.151 C 
HETATM   16  C24 UNL     1      22.610   6.290  51.187  1.00  0.00     0.112 C 
ENDROOT
BRANCH  13  17
HETATM   17  C12 UNL     1      24.973   0.976  52.118  1.00  0.00     0.074 C 
BRANCH  17  18
HETATM   18  C13 UNL     1      24.408   0.198  53.241  1.00  0.00    -0.028 A 
HETATM   19  C14 UNL     1      23.037   0.001  53.419  1.00  0.00     0.010 A 
HETATM   20  C15 UNL     1      22.495  -0.718  54.462  1.00  0.00     0.001 A 
HETATM   21  C16 UNL     1      23.340  -1.281  55.389  1.00  0.00     0.002 A 
HETATM   22  C17 UNL     1      24.694  -1.097  55.229  1.00  0.00     0.030 A 
HETATM   23  C18 UNL     1      25.274  -0.372  54.182  1.00  0.00     0.036 A 
BRANCH  23  24
HETATM   24  N4  UNL     1      26.693  -0.252  54.120  1.00  0.00    -0.380 N 
HETATM   25  C19 UNL     1      27.883   0.378  54.607  1.00  0.00     0.124 C 
HETATM   26  C20 UNL     1      28.774  -0.610  53.885  1.00  0.00     0.040 C 
HETATM   27  C21 UNL     1      27.497  -1.045  53.204  1.00  0.00     0.124 C 
ENDBRANCH  23  24
ENDBRANCH  17  18
ENDBRANCH  13  17
BRANCH  15  28
HETATM   28  O1  UNL     1      21.067   1.794  49.944  1.00  0.00    -0.391 OA
HETATM   29  H26 UNL     1      20.135   1.959  50.229  1.00  0.00     0.210 HD
ENDBRANCH  15  28
BRANCH   1  30
HETATM   30  N1  UNL     1      21.330   8.336  50.241  1.00  0.00    -0.387 N 
HETATM   31  H1  UNL     1      21.759   8.915  51.008  1.00  0.00     0.157 HD
HETATM   32  H2  UNL     1      20.880   8.911  49.485  1.00  0.00     0.157 HD
ENDBRANCH   1  30
TORSDOF 5
ENDMDL
MODEL 8
REMARK VINA RESULT:      -8.3      3.158      4.907
REMARK  5 active torsions:
REMARK  status: ('A' for Active; 'I' for Inactive)
REMARK    1  A    between atoms: N1_1  and  C1_2 
REMARK    2  A    between atoms: C11_14  and  C12_15 
REMARK    3  A    between atoms: C12_15  and  C13_16 
REMARK    4  A    between atoms: C18_21  and  N4_22 
REMARK    5  A    between atoms: C23_27  and  O1_28 
ROOT
HETATM    1  C1  UNL     1      28.457   7.083  48.416  1.00  0.00     0.102 C 
HETATM    2  N2  UNL     1      27.651   7.843  49.053  1.00  0.00    -0.229 NA
HETATM    3  C2  UNL     1      27.961   9.209  49.196  1.00  0.00     0.229 C 
HETATM    4  N3  UNL     1      27.022   9.323  48.280  1.00  0.00    -0.271 NA
HETATM    5  C3  UNL     1      26.393   8.101  47.814  1.00  0.00     0.068 A 
HETATM    6  C4  UNL     1      26.141   8.161  46.375  1.00  0.00     0.042 A 
HETATM    7  C5  UNL     1      25.028   8.097  47.448  1.00  0.00     0.030 A 
HETATM    8  C6  UNL     1      25.459   7.694  48.875  1.00  0.00     0.054 A 
HETATM    9  C7  UNL     1      25.668   6.268  49.205  1.00  0.00    -0.041 C 
HETATM   10  C8  UNL     1      26.691   5.418  49.003  1.00  0.00    -0.064 C 
HETATM   11  C9  UNL     1      26.765   3.960  49.400  1.00  0.00     0.062 C 
HETATM   12  C10 UNL     1      25.456   3.297  49.414  1.00  0.00    -0.019 C 
HETATM   13  C11 UNL     1      24.181   3.545  49.261  1.00  0.00    -0.076 C 
HETATM   14  C22 UNL     1      23.682   4.917  48.964  1.00  0.00     0.070 C 
HETATM   15  C23 UNL     1      24.391   5.874  49.891  1.00  0.00     0.151 C 
HETATM   16  C24 UNL     1      27.972   5.708  48.358  1.00  0.00     0.112 C 
ENDROOT
BRANCH  13  17
HETATM   17  C12 UNL     1      23.127   2.514  49.365  1.00  0.00     0.074 C 
BRANCH  17  18
HETATM   18  C13 UNL     1      21.957   2.976  50.141  1.00  0.00    -0.028 A 
HETATM   19  C14 UNL     1      20.775   3.423  49.546  1.00  0.00     0.010 A 
HETATM   20  C15 UNL     1      19.678   3.860  50.255  1.00  0.00     0.001 A 
HETATM   21  C16 UNL     1      19.733   3.861  51.629  1.00  0.00     0.002 A 
HETATM   22  C17 UNL     1      20.889   3.424  52.233  1.00  0.00     0.030 A 
HETATM   23  C18 UNL     1      22.019   2.975  51.540  1.00  0.00     0.036 A 
BRANCH  23  24
HETATM   24  N4  UNL     1      23.161   2.543  52.276  1.00  0.00    -0.380 N 
HETATM   25  C19 UNL     1      23.959   1.454  52.755  1.00  0.00     0.124 C 
HETATM   26  C20 UNL     1      25.070   2.385  53.196  1.00  0.00     0.040 C 
HETATM   27  C21 UNL     1      24.067   3.481  52.920  1.00  0.00     0.124 C 
ENDBRANCH  23  24
ENDBRANCH  17  18
ENDBRANCH  13  17
BRANCH  15  28
HETATM   28  O1  UNL     1      23.639   6.925  50.330  1.00  0.00    -0.391 OA
HETATM   29  H26 UNL     1      24.105   7.796  50.309  1.00  0.00     0.210 HD
ENDBRANCH  15  28
BRANCH   1  30
HETATM   30  N1  UNL     1      29.668   7.601  47.850  1.00  0.00    -0.387 N 
HETATM   31  H1  UNL     1      30.301   7.996  48.592  1.00  0.00     0.157 HD
HETATM   32  H2  UNL     1      30.065   7.675  46.879  1.00  0.00     0.157 HD
ENDBRANCH   1  30
TORSDOF 5
ENDMDL
MODEL 9
REMARK VINA RESULT:      -8.2      4.404      7.786
REMARK  5 active torsions:
REMARK  status: ('A' for Active; 'I' for Inactive)
REMARK    1  A    between atoms: N1_1  and  C1_2 
REMARK    2  A    between atoms: C11_14  and  C12_15 
REMARK    3  A    between atoms: C12_15  and  C13_16 
REMARK    4  A    between atoms: C18_21  and  N4_22 
REMARK    5  A    between atoms: C23_27  and  O1_28 
ROOT
HETATM    1  C1  UNL     1      24.344   1.884  51.902  1.00  0.00     0.102 C 
HETATM    2  N2  UNL     1      23.326   2.319  51.264  1.00  0.00    -0.229 NA
HETATM    3  C2  UNL     1      22.041   1.882  51.641  1.00  0.00     0.229 C 
HETATM    4  N3  UNL     1      21.984   3.094  52.150  1.00  0.00    -0.271 NA
HETATM    5  C3  UNL     1      23.153   3.940  51.989  1.00  0.00     0.068 A 
HETATM    6  C4  UNL     1      23.392   4.732  53.195  1.00  0.00     0.042 A 
HETATM    7  C5  UNL     1      23.004   5.336  51.824  1.00  0.00     0.030 A 
HETATM    8  C6  UNL     1      23.125   4.409  50.595  1.00  0.00     0.054 A 
HETATM    9  C7  UNL     1      24.447   4.189  49.968  1.00  0.00    -0.041 C 
HETATM   10  C8  UNL     1      25.486   3.391  50.270  1.00  0.00    -0.064 C 
HETATM   11  C9  UNL     1      26.798   3.270  49.526  1.00  0.00     0.062 C 
HETATM   12  C10 UNL     1      27.198   4.512  48.854  1.00  0.00    -0.019 C 
HETATM   13  C11 UNL     1      26.773   5.723  48.605  1.00  0.00    -0.076 C 
HETATM   14  C22 UNL     1      25.445   6.200  49.083  1.00  0.00     0.070 C 
HETATM   15  C23 UNL     1      24.436   5.119  48.788  1.00  0.00     0.151 C 
HETATM   16  C24 UNL     1      25.587   2.448  51.386  1.00  0.00     0.112 C 
ENDROOT
BRANCH  13  17
HETATM   17  C12 UNL     1      27.549   6.722  47.839  1.00  0.00     0.074 C 
BRANCH  17  18
HETATM   18  C13 UNL     1      28.984   6.719  48.195  1.00  0.00    -0.028 A 
HETATM   19  C14 UNL     1      29.802   5.596  48.056  1.00  0.00     0.010 A 
HETATM   20  C15 UNL     1      31.139   5.576  48.387  1.00  0.00     0.001 A 
HETATM   21  C16 UNL     1      31.717   6.720  48.883  1.00  0.00     0.002 A 
HETATM   22  C17 UNL     1      30.926   7.837  49.027  1.00  0.00     0.030 A 
HETATM   23  C18 UNL     1      29.566   7.888  48.701  1.00  0.00     0.036 A 
BRANCH  23  24
HETATM   24  N4  UNL     1      28.849   9.105  48.891  1.00  0.00    -0.380 N 
HETATM   25  C19 UNL     1      27.919   9.858  49.677  1.00  0.00     0.124 C 
HETATM   26  C20 UNL     1      28.229  11.137  48.927  1.00  0.00     0.040 C 
HETATM   27  C21 UNL     1      28.978  10.230  47.979  1.00  0.00     0.124 C 
ENDBRANCH  23  24
ENDBRANCH  17  18
ENDBRANCH  13  17
BRANCH  15  28
HETATM   28  O1  UNL     1      23.195   5.561  48.430  1.00  0.00    -0.391 OA
HETATM   29  H26 UNL     1      22.698   6.012  49.155  1.00  0.00     0.210 HD
ENDBRANCH  15  28
BRANCH   1  30
HETATM   30  N1  UNL     1      24.196   0.959  52.987  1.00  0.00    -0.387 N 
HETATM   31  H1  UNL     1      23.235   1.015  53.412  1.00  0.00     0.157 HD
HETATM   32  H2  UNL     1      24.816   0.247  53.449  1.00  0.00     0.157 HD
ENDBRANCH   1  30
TORSDOF 5
ENDMDL
