MODEL 1
REMARK VINA RESULT:      -9.6      0.000      0.000
REMARK  2 active torsions:
REMARK  status: ('A' for Active; 'I' for Inactive)
REMARK    1  A    between atoms: C14_14  and  C15_15 
REMARK    2  A    between atoms: C15_15  and  N1_16 
ROOT
HETATM    1  C1  UNL     1      24.716   1.721  52.289  1.00  0.00     0.010 C 
HETATM    2  C2  UNL     1      24.698   0.721  53.359  1.00  0.00     0.039 C 
HETATM    3  C3  UNL     1      23.234   0.235  53.267  1.00  0.00    -0.051 A 
HETATM    4  C4  UNL     1      22.969  -0.460  54.422  1.00  0.00     0.007 A 
HETATM    5  C5  UNL     1      21.775  -1.043  54.723  1.00  0.00     0.001 A 
HETATM    6  C6  UNL     1      20.748  -0.936  53.809  1.00  0.00     0.001 A 
HETATM    7  C7  UNL     1      21.061  -0.230  52.666  1.00  0.00     0.008 A 
HETATM    8  C8  UNL     1      22.260   0.396  52.287  1.00  0.00    -0.048 A 
HETATM    9  C9  UNL     1      22.258   1.066  50.970  1.00  0.00     0.078 C 
HETATM   10  C10 UNL     1      22.667   2.432  50.808  1.00  0.00    -0.045 C 
HETATM   11  C11 UNL     1      23.755   2.966  50.176  1.00  0.00    -0.035 C 
HETATM   12  C12 UNL     1      23.781   4.210  49.297  1.00  0.00    -0.006 C 
HETATM   13  C13 UNL     1      22.711   4.769  48.668  1.00  0.00    -0.039 C 
HETATM   14  C14 UNL     1      21.934   4.913  47.383  1.00  0.00     0.048 C 
HETATM   15  C19 UNL     1      20.709   4.904  48.324  1.00  0.00     0.040 C 
HETATM   16  C20 UNL     1      21.622   5.683  49.202  1.00  0.00     0.116 C 
HETATM   17  N2  UNL     1      21.502   5.542  50.636  1.00  0.00    -0.364 N 
HETATM   18  C21 UNL     1      21.213   4.474  51.528  1.00  0.00     0.088 C 
HETATM   19  C22 UNL     1      21.556   3.164  51.521  1.00  0.00     0.025 C 
HETATM   20  C23 UNL     1      21.774   6.790  51.418  1.00  0.00     0.274 C 
HETATM   21  N3  UNL     1      23.098   7.130  50.785  1.00  0.00    -0.263 NA
HETATM   22  C24 UNL     1      23.929   6.154  50.576  1.00  0.00     0.228 C 
HETATM   23  N4  UNL     1      25.192   5.692  50.090  1.00  0.00    -0.254 NA
HETATM   24  C25 UNL     1      25.226   4.591  49.346  1.00  0.00     0.130 C 
HETATM   25  C26 UNL     1      25.125   2.579  50.099  1.00  0.00     0.024 A 
HETATM   26  C27 UNL     1      26.452   2.622  50.568  1.00  0.00     0.015 A 
HETATM   27  C28 UNL     1      25.525   2.660  51.647  1.00  0.00    -0.005 A 
ENDROOT
BRANCH  14  28
HETATM   28  C15 UNL     1      22.037   3.752  46.463  1.00  0.00     0.281 C 
BRANCH  28  29
HETATM   29  N1  UNL     1      22.017   4.169  45.103  1.00  0.00     0.089 N 
HETATM   30  C16 UNL     1      20.749   3.945  44.404  1.00  0.00     0.274 A 
HETATM   31  C17 UNL     1      20.574   5.399  44.095  1.00  0.00     0.060 A 
HETATM   32  C18 UNL     1      21.871   5.570  44.841  1.00  0.00     0.274 A 
ENDBRANCH  28  29
ENDBRANCH  14  28
TORSDOF 2
ENDMDL
MODEL 2
REMARK VINA RESULT:      -8.6      2.148      4.735
REMARK  2 active torsions:
REMARK  status: ('A' for Active; 'I' for Inactive)
REMARK    1  A    between atoms: C14_14  and  C15_15 
REMARK    2  A    between atoms: C15_15  and  N1_16 
ROOT
HETATM    1  C1  UNL     1      22.944   0.490  53.151  1.00  0.00     0.010 C 
HETATM    2  C2  UNL     1      23.877  -0.342  53.915  1.00  0.00     0.039 C 
HETATM    3  C3  UNL     1      25.183   0.467  53.743  1.00  0.00    -0.051 A 
HETATM    4  C4  UNL     1      26.216  -0.357  54.117  1.00  0.00     0.007 A 
HETATM    5  C5  UNL     1      27.534  -0.011  54.100  1.00  0.00     0.001 A 
HETATM    6  C6  UNL     1      27.868   1.259  53.678  1.00  0.00     0.001 A 
HETATM    7  C7  UNL     1      26.798   2.050  53.313  1.00  0.00     0.008 A 
HETATM    8  C8  UNL     1      25.423   1.765  53.303  1.00  0.00    -0.048 A 
HETATM    9  C9  UNL     1      24.533   2.857  52.858  1.00  0.00     0.078 C 
HETATM   10  C10 UNL     1      23.556   2.672  51.823  1.00  0.00    -0.045 C 
HETATM   11  C11 UNL     1      22.190   2.671  51.878  1.00  0.00    -0.035 C 
HETATM   12  C12 UNL     1      21.234   3.306  50.877  1.00  0.00    -0.006 C 
HETATM   13  C13 UNL     1      21.540   4.299  49.998  1.00  0.00    -0.039 C 
HETATM   14  C14 UNL     1      21.494   5.776  49.693  1.00  0.00     0.048 C 
HETATM   15  C19 UNL     1      22.883   5.516  49.070  1.00  0.00     0.040 C 
HETATM   16  C20 UNL     1      22.243   4.241  48.652  1.00  0.00     0.116 C 
HETATM   17  N2  UNL     1      23.054   3.048  48.557  1.00  0.00    -0.364 N 
HETATM   18  C21 UNL     1      24.145   2.505  49.288  1.00  0.00     0.088 C 
HETATM   19  C22 UNL     1      24.435   2.485  50.610  1.00  0.00     0.025 C 
HETATM   20  C23 UNL     1      22.668   2.108  47.458  1.00  0.00     0.274 C 
HETATM   21  N3  UNL     1      21.201   2.017  47.788  1.00  0.00    -0.263 NA
HETATM   22  C24 UNL     1      20.875   1.915  49.041  1.00  0.00     0.228 C 
HETATM   23  N4  UNL     1      19.866   1.805  50.048  1.00  0.00    -0.254 NA
HETATM   24  C25 UNL     1      19.969   2.555  51.140  1.00  0.00     0.130 C 
HETATM   25  C26 UNL     1      21.253   2.143  52.815  1.00  0.00     0.024 A 
HETATM   26  C27 UNL     1      20.418   1.110  53.282  1.00  0.00     0.015 A 
HETATM   27  C28 UNL     1      21.618   0.586  52.726  1.00  0.00    -0.005 A 
ENDROOT
BRANCH  14  28
HETATM   28  C15 UNL     1      21.487   6.656  50.890  1.00  0.00     0.281 C 
BRANCH  28  29
HETATM   29  N1  UNL     1      20.900   7.918  50.598  1.00  0.00     0.089 N 
HETATM   30  C16 UNL     1      21.685   8.777  49.707  1.00  0.00     0.274 A 
HETATM   31  C17 UNL     1      20.593   8.849  48.687  1.00  0.00     0.060 A 
HETATM   32  C18 UNL     1      19.841   7.950  49.633  1.00  0.00     0.274 A 
ENDBRANCH  28  29
ENDBRANCH  14  28
TORSDOF 2
ENDMDL
MODEL 3
REMARK VINA RESULT:      -8.2      9.985     13.546
REMARK  2 active torsions:
REMARK  status: ('A' for Active; 'I' for Inactive)
REMARK    1  A    between atoms: C14_14  and  C15_15 
REMARK    2  A    between atoms: C15_15  and  N1_16 
ROOT
HETATM    1  C1  UNL     1      35.024   7.832  43.238  1.00  0.00     0.010 C 
HETATM    2  C2  UNL     1      35.458   7.412  41.904  1.00  0.00     0.039 C 
HETATM    3  C3  UNL     1      34.597   6.143  41.712  1.00  0.00    -0.051 A 
HETATM    4  C4  UNL     1      35.134   5.450  40.654  1.00  0.00     0.007 A 
HETATM    5  C5  UNL     1      34.658   4.266  40.177  1.00  0.00     0.001 A 
HETATM    6  C6  UNL     1      33.555   3.712  40.792  1.00  0.00     0.001 A 
HETATM    7  C7  UNL     1      33.051   4.443  41.848  1.00  0.00     0.008 A 
HETATM    8  C8  UNL     1      33.484   5.662  42.395  1.00  0.00    -0.048 A 
HETATM    9  C9  UNL     1      32.700   6.182  43.533  1.00  0.00     0.078 C 
HETATM   10  C10 UNL     1      33.314   6.562  44.774  1.00  0.00    -0.045 C 
HETATM   11  C11 UNL     1      33.458   7.789  45.357  1.00  0.00    -0.035 C 
HETATM   12  C12 UNL     1      33.287   8.126  46.832  1.00  0.00    -0.006 C 
HETATM   13  C13 UNL     1      32.591   7.394  47.745  1.00  0.00    -0.039 C 
HETATM   14  C14 UNL     1      31.301   7.220  48.507  1.00  0.00     0.048 C 
HETATM   15  C19 UNL     1      31.578   5.716  48.294  1.00  0.00     0.040 C 
HETATM   16  C20 UNL     1      32.986   6.142  48.510  1.00  0.00     0.116 C 
HETATM   17  N2  UNL     1      34.044   5.440  47.818  1.00  0.00    -0.364 N 
HETATM   18  C21 UNL     1      34.198   4.852  46.534  1.00  0.00     0.088 C 
HETATM   19  C22 UNL     1      33.767   5.223  45.305  1.00  0.00     0.025 C 
HETATM   20  C23 UNL     1      35.321   5.305  48.589  1.00  0.00     0.274 C 
HETATM   21  N3  UNL     1      35.475   6.757  48.963  1.00  0.00    -0.263 NA
HETATM   22  C24 UNL     1      35.216   7.640  48.048  1.00  0.00     0.228 C 
HETATM   23  N4  UNL     1      35.122   9.010  47.646  1.00  0.00    -0.254 NA
HETATM   24  C25 UNL     1      34.060   9.400  46.948  1.00  0.00     0.130 C 
HETATM   25  C26 UNL     1      33.772   9.082  44.842  1.00  0.00     0.024 A 
HETATM   26  C27 UNL     1      34.697  10.087  44.500  1.00  0.00     0.015 A 
HETATM   27  C28 UNL     1      35.224   8.793  44.230  1.00  0.00    -0.005 A 
ENDROOT
BRANCH  14  28
HETATM   28  C15 UNL     1      30.097   7.750  47.816  1.00  0.00     0.281 C 
BRANCH  28  29
HETATM   29  N1  UNL     1      29.710   9.010  48.351  1.00  0.00     0.089 N 
HETATM   30  C16 UNL     1      30.595   9.541  49.392  1.00  0.00     0.274 A 
HETATM   31  C17 UNL     1      30.897  10.782  48.611  1.00  0.00     0.060 A 
HETATM   32  C18 UNL     1      29.993  10.178  47.568  1.00  0.00     0.274 A 
ENDBRANCH  28  29
ENDBRANCH  14  28
TORSDOF 2
ENDMDL
MODEL 4
REMARK VINA RESULT:      -8.1      2.205      4.805
REMARK  2 active torsions:
REMARK  status: ('A' for Active; 'I' for Inactive)
REMARK    1  A    between atoms: C14_14  and  C15_15 
REMARK    2  A    between atoms: C15_15  and  N1_16 
ROOT
HETATM    1  C1  UNL     1      20.825   1.329  52.006  1.00  0.00     0.010 C 
HETATM    2  C2  UNL     1      21.442   0.301  52.847  1.00  0.00     0.039 C 
HETATM    3  C3  UNL     1      22.874   0.868  52.983  1.00  0.00    -0.051 A 
HETATM    4  C4  UNL     1      23.663  -0.149  53.462  1.00  0.00     0.007 A 
HETATM    5  C5  UNL     1      24.999  -0.047  53.710  1.00  0.00     0.001 A 
HETATM    6  C6  UNL     1      25.615   1.162  53.468  1.00  0.00     0.001 A 
HETATM    7  C7  UNL     1      24.783   2.153  52.989  1.00  0.00     0.008 A 
HETATM    8  C8  UNL     1      23.407   2.123  52.708  1.00  0.00    -0.048 A 
HETATM    9  C9  UNL     1      22.815   3.381  52.210  1.00  0.00     0.078 C 
HETATM   10  C10 UNL     1      22.037   3.434  51.005  1.00  0.00    -0.045 C 
HETATM   11  C11 UNL     1      20.705   3.676  50.816  1.00  0.00    -0.035 C 
HETATM   12  C12 UNL     1      20.079   4.529  49.720  1.00  0.00    -0.006 C 
HETATM   13  C13 UNL     1      20.709   5.497  49.000  1.00  0.00    -0.039 C 
HETATM   14  C14 UNL     1      20.970   6.972  48.822  1.00  0.00     0.048 C 
HETATM   15  C19 UNL     1      22.389   6.500  48.438  1.00  0.00     0.040 C 
HETATM   16  C20 UNL     1      21.636   5.387  47.801  1.00  0.00     0.116 C 
HETATM   17  N2  UNL     1      22.239   4.074  47.748  1.00  0.00    -0.364 N 
HETATM   18  C21 UNL     1      23.063   3.303  48.611  1.00  0.00     0.088 C 
HETATM   19  C22 UNL     1      23.088   3.158  49.957  1.00  0.00     0.025 C 
HETATM   20  C23 UNL     1      21.917   3.281  46.519  1.00  0.00     0.274 C 
HETATM   21  N3  UNL     1      20.420   3.440  46.573  1.00  0.00    -0.263 NA
HETATM   22  C24 UNL     1      19.849   3.330  47.734  1.00  0.00     0.228 C 
HETATM   23  N4  UNL     1      18.662   3.348  48.531  1.00  0.00    -0.254 NA
HETATM   24  C25 UNL     1      18.679   4.006  49.686  1.00  0.00     0.130 C 
HETATM   25  C26 UNL     1      19.531   3.276  51.520  1.00  0.00     0.024 A 
HETATM   26  C27 UNL     1      18.461   2.388  51.737  1.00  0.00     0.015 A 
HETATM   27  C28 UNL     1      19.640   1.686  51.361  1.00  0.00    -0.005 A 
ENDROOT
BRANCH  14  28
HETATM   28  C15 UNL     1      20.883   7.771  50.072  1.00  0.00     0.281 C 
BRANCH  28  29
HETATM   29  N1  UNL     1      20.500   9.114  49.799  1.00  0.00     0.089 N 
HETATM   30  C16 UNL     1      19.886   9.329  48.486  1.00  0.00     0.274 A 
HETATM   31  C17 UNL     1      18.617   9.855  49.079  1.00  0.00     0.060 A 
HETATM   32  C18 UNL     1      19.291   9.595  50.401  1.00  0.00     0.274 A 
ENDBRANCH  28  29
ENDBRANCH  14  28
TORSDOF 2
ENDMDL
MODEL 5
REMARK VINA RESULT:      -8.1      7.328     10.385
REMARK  2 active torsions:
REMARK  status: ('A' for Active; 'I' for Inactive)
REMARK    1  A    between atoms: C14_14  and  C15_15 
REMARK    2  A    between atoms: C15_15  and  N1_16 
ROOT
HETATM    1  C1  UNL     1      28.562   9.565  49.335  1.00  0.00     0.010 C 
HETATM    2  C2  UNL     1      27.372   9.277  50.138  1.00  0.00     0.039 C 
HETATM    3  C3  UNL     1      26.973   7.896  49.567  1.00  0.00    -0.051 A 
HETATM    4  C4  UNL     1      25.687   7.647  49.982  1.00  0.00     0.007 A 
HETATM    5  C5  UNL     1      24.974   6.528  49.677  1.00  0.00     0.001 A 
HETATM    6  C6  UNL     1      25.577   5.564  48.895  1.00  0.00     0.001 A 
HETATM    7  C7  UNL     1      26.867   5.858  48.504  1.00  0.00     0.008 A 
HETATM    8  C8  UNL     1      27.663   6.983  48.776  1.00  0.00    -0.048 A 
HETATM    9  C9  UNL     1      29.024   6.973  48.203  1.00  0.00     0.078 C 
HETATM   10  C10 UNL     1      29.527   8.060  47.412  1.00  0.00    -0.045 C 
HETATM   11  C11 UNL     1      30.516   8.967  47.671  1.00  0.00    -0.035 C 
HETATM   12  C12 UNL     1      31.570   9.473  46.696  1.00  0.00    -0.006 C 
HETATM   13  C13 UNL     1      31.970   8.849  45.554  1.00  0.00    -0.039 C 
HETATM   14  C14 UNL     1      32.998   7.969  44.888  1.00  0.00     0.048 C 
HETATM   15  C19 UNL     1      31.772   7.387  44.151  1.00  0.00     0.040 C 
HETATM   16  C20 UNL     1      31.325   8.806  44.179  1.00  0.00     0.116 C 
HETATM   17  N2  UNL     1      29.912   9.093  44.274  1.00  0.00    -0.364 N 
HETATM   18  C21 UNL     1      28.803   8.511  44.947  1.00  0.00     0.088 C 
HETATM   19  C22 UNL     1      28.676   7.944  46.170  1.00  0.00     0.025 C 
HETATM   20  C23 UNL     1      29.463  10.311  43.527  1.00  0.00     0.274 C 
HETATM   21  N3  UNL     1      30.483  11.267  44.087  1.00  0.00    -0.263 NA
HETATM   22  C24 UNL     1      30.739  11.192  45.358  1.00  0.00     0.228 C 
HETATM   23  N4  UNL     1      31.464  11.656  46.500  1.00  0.00    -0.254 NA
HETATM   24  C25 UNL     1      31.985  10.760  47.332  1.00  0.00     0.130 C 
HETATM   25  C26 UNL     1      30.896   9.686  48.843  1.00  0.00     0.024 A 
HETATM   26  C27 UNL     1      30.822  10.814  49.682  1.00  0.00     0.015 A 
HETATM   27  C28 UNL     1      29.554  10.520  49.105  1.00  0.00    -0.005 A 
ENDROOT
BRANCH  14  28
HETATM   28  C15 UNL     1      33.695   7.029  45.804  1.00  0.00     0.281 C 
BRANCH  28  29
HETATM   29  N1  UNL     1      32.782   6.110  46.390  1.00  0.00     0.089 N 
HETATM   30  C16 UNL     1      33.189   4.703  46.325  1.00  0.00     0.274 A 
HETATM   31  C17 UNL     1      33.172   4.549  47.814  1.00  0.00     0.060 A 
HETATM   32  C18 UNL     1      32.774   6.002  47.820  1.00  0.00     0.274 A 
ENDBRANCH  28  29
ENDBRANCH  14  28
TORSDOF 2
ENDMDL
MODEL 6
REMARK VINA RESULT:      -7.9      1.971      4.729
REMARK  2 active torsions:
REMARK  status: ('A' for Active; 'I' for Inactive)
REMARK    1  A    between atoms: C14_14  and  C15_15 
REMARK    2  A    between atoms: C15_15  and  N1_16 
ROOT
HETATM    1  C1  UNL     1      19.680   1.647  52.005  1.00  0.00     0.010 C 
HETATM    2  C2  UNL     1      19.641   0.456  52.857  1.00  0.00     0.039 C 
HETATM    3  C3  UNL     1      21.149   0.253  53.129  1.00  0.00    -0.051 A 
HETATM    4  C4  UNL     1      21.297  -1.016  53.633  1.00  0.00     0.007 A 
HETATM    5  C5  UNL     1      22.486  -1.576  53.993  1.00  0.00     0.001 A 
HETATM    6  C6  UNL     1      23.632  -0.824  53.846  1.00  0.00     0.001 A 
HETATM    7  C7  UNL     1      23.433   0.443  53.336  1.00  0.00     0.008 A 
HETATM    8  C8  UNL     1      22.248   1.086  52.944  1.00  0.00    -0.048 A 
HETATM    9  C9  UNL     1      22.390   2.469  52.444  1.00  0.00     0.078 C 
HETATM   10  C10 UNL     1      21.846   2.884  51.183  1.00  0.00    -0.045 C 
HETATM   11  C11 UNL     1      20.824   3.745  50.894  1.00  0.00    -0.035 C 
HETATM   12  C12 UNL     1      20.792   4.785  49.782  1.00  0.00    -0.006 C 
HETATM   13  C13 UNL     1      21.875   5.316  49.152  1.00  0.00    -0.039 C 
HETATM   14  C14 UNL     1      22.836   6.475  49.049  1.00  0.00     0.048 C 
HETATM   15  C19 UNL     1      23.873   5.367  48.764  1.00  0.00     0.040 C 
HETATM   16  C20 UNL     1      22.732   4.758  48.029  1.00  0.00     0.116 C 
HETATM   17  N2  UNL     1      22.622   3.317  47.978  1.00  0.00    -0.364 N 
HETATM   18  C21 UNL     1      22.886   2.249  48.877  1.00  0.00     0.088 C 
HETATM   19  C22 UNL     1      22.718   2.122  50.215  1.00  0.00     0.025 C 
HETATM   20  C23 UNL     1      22.065   2.771  46.699  1.00  0.00     0.274 C 
HETATM   21  N3  UNL     1      20.837   3.641  46.637  1.00  0.00    -0.263 NA
HETATM   22  C24 UNL     1      20.184   3.834  47.743  1.00  0.00     0.228 C 
HETATM   23  N4  UNL     1      19.091   4.436  48.441  1.00  0.00    -0.254 NA
HETATM   24  C25 UNL     1      19.324   5.012  49.616  1.00  0.00     0.130 C 
HETATM   25  C26 UNL     1      19.547   3.974  51.486  1.00  0.00     0.024 A 
HETATM   26  C27 UNL     1      18.165   3.723  51.584  1.00  0.00     0.015 A 
HETATM   27  C28 UNL     1      18.881   2.532  51.279  1.00  0.00    -0.005 A 
ENDROOT
BRANCH  14  28
HETATM   28  C15 UNL     1      23.038   7.225  50.315  1.00  0.00     0.281 C 
BRANCH  28  29
HETATM   29  N1  UNL     1      23.660   8.481  50.075  1.00  0.00     0.089 N 
HETATM   30  C16 UNL     1      25.120   8.485  50.205  1.00  0.00     0.274 A 
HETATM   31  C17 UNL     1      25.321   8.936  48.791  1.00  0.00     0.060 A 
HETATM   32  C18 UNL     1      23.818   8.894  48.712  1.00  0.00     0.274 A 
ENDBRANCH  28  29
ENDBRANCH  14  28
TORSDOF 2
ENDMDL
MODEL 7
REMARK VINA RESULT:      -7.8      8.656     10.921
REMARK  2 active torsions:
REMARK  status: ('A' for Active; 'I' for Inactive)
REMARK    1  A    between atoms: C14_14  and  C15_15 
REMARK    2  A    between atoms: C15_15  and  N1_16 
ROOT
HETATM    1  C1  UNL     1      34.032   7.479  47.758  1.00  0.00     0.010 C 
HETATM    2  C2  UNL     1      34.926   6.371  48.099  1.00  0.00     0.039 C 
HETATM    3  C3  UNL     1      34.122   5.175  47.539  1.00  0.00    -0.051 A 
HETATM    4  C4  UNL     1      34.668   4.036  48.079  1.00  0.00     0.007 A 
HETATM    5  C5  UNL     1      34.229   2.771  47.832  1.00  0.00     0.001 A 
HETATM    6  C6  UNL     1      33.159   2.607  46.979  1.00  0.00     0.001 A 
HETATM    7  C7  UNL     1      32.644   3.778  46.462  1.00  0.00     0.008 A 
HETATM    8  C8  UNL     1      33.039   5.110  46.668  1.00  0.00    -0.048 A 
HETATM    9  C9  UNL     1      32.269   6.139  45.940  1.00  0.00     0.078 C 
HETATM   10  C10 UNL     1      31.681   7.266  46.606  1.00  0.00    -0.045 C 
HETATM   11  C11 UNL     1      31.983   8.598  46.537  1.00  0.00    -0.035 C 
HETATM   12  C12 UNL     1      30.995   9.756  46.487  1.00  0.00    -0.006 C 
HETATM   13  C13 UNL     1      29.690   9.680  46.106  1.00  0.00    -0.039 C 
HETATM   14  C14 UNL     1      28.682   9.884  45.004  1.00  0.00     0.048 C 
HETATM   15  C19 UNL     1      28.037   8.610  45.591  1.00  0.00     0.040 C 
HETATM   16  C20 UNL     1      28.465   9.222  46.878  1.00  0.00     0.116 C 
HETATM   17  N2  UNL     1      28.851   8.356  47.970  1.00  0.00    -0.364 N 
HETATM   18  C21 UNL     1      29.539   7.118  48.087  1.00  0.00     0.088 C 
HETATM   19  C22 UNL     1      30.600   6.601  47.424  1.00  0.00     0.025 C 
HETATM   20  C23 UNL     1      28.489   8.861  49.333  1.00  0.00     0.274 C 
HETATM   21  N3  UNL     1      29.086  10.237  49.193  1.00  0.00    -0.263 NA
HETATM   22  C24 UNL     1      30.246  10.331  48.618  1.00  0.00     0.228 C 
HETATM   23  N4  UNL     1      31.333  11.137  48.157  1.00  0.00    -0.254 NA
HETATM   24  C25 UNL     1      31.839  10.899  46.952  1.00  0.00     0.130 C 
HETATM   25  C26 UNL     1      33.213   9.316  46.471  1.00  0.00     0.024 A 
HETATM   26  C27 UNL     1      34.292   9.982  47.084  1.00  0.00     0.015 A 
HETATM   27  C28 UNL     1      33.874   8.862  47.858  1.00  0.00    -0.005 A 
ENDROOT
BRANCH  14  28
HETATM   28  C15 UNL     1      29.229   9.744  43.629  1.00  0.00     0.281 C 
BRANCH  28  29
HETATM   29  N1  UNL     1      29.489  11.016  43.047  1.00  0.00     0.089 N 
HETATM   30  C16 UNL     1      29.162  12.165  43.895  1.00  0.00     0.274 A 
HETATM   31  C17 UNL     1      30.568  12.679  43.874  1.00  0.00     0.060 A 
HETATM   32  C18 UNL     1      30.849  11.469  43.022  1.00  0.00     0.274 A 
ENDBRANCH  28  29
ENDBRANCH  14  28
TORSDOF 2
ENDMDL
MODEL 8
REMARK VINA RESULT:      -7.7      6.495      9.346
REMARK  2 active torsions:
REMARK  status: ('A' for Active; 'I' for Inactive)
REMARK    1  A    between atoms: C14_14  and  C15_15 
REMARK    2  A    between atoms: C15_15  and  N1_16 
ROOT
HETATM    1  C1  UNL     1      31.544   8.494  48.999  1.00  0.00     0.010 C 
HETATM    2  C2  UNL     1      32.822   7.789  49.127  1.00  0.00     0.039 C 
HETATM    3  C3  UNL     1      32.646   6.687  48.057  1.00  0.00    -0.051 A 
HETATM    4  C4  UNL     1      33.618   5.744  48.289  1.00  0.00     0.007 A 
HETATM    5  C5  UNL     1      33.790   4.608  47.559  1.00  0.00     0.001 A 
HETATM    6  C6  UNL     1      32.932   4.375  46.504  1.00  0.00     0.001 A 
HETATM    7  C7  UNL     1      31.974   5.349  46.309  1.00  0.00     0.008 A 
HETATM    8  C8  UNL     1      31.735   6.539  47.016  1.00  0.00    -0.048 A 
HETATM    9  C9  UNL     1      30.617   7.373  46.529  1.00  0.00     0.078 C 
HETATM   10  C10 UNL     1      29.570   7.829  47.399  1.00  0.00    -0.045 C 
HETATM   11  C11 UNL     1      29.258   9.087  47.832  1.00  0.00    -0.035 C 
HETATM   12  C12 UNL     1      27.864   9.685  47.971  1.00  0.00    -0.006 C 
HETATM   13  C13 UNL     1      26.740   9.253  47.335  1.00  0.00    -0.039 C 
HETATM   14  C14 UNL     1      25.785   9.447  46.184  1.00  0.00     0.048 C 
HETATM   15  C19 UNL     1      25.746   7.904  46.180  1.00  0.00     0.040 C 
HETATM   16  C20 UNL     1      25.814   8.092  47.654  1.00  0.00     0.116 C 
HETATM   17  N2  UNL     1      26.502   7.103  48.454  1.00  0.00    -0.364 N 
HETATM   18  C21 UNL     1      27.659   6.295  48.292  1.00  0.00     0.088 C 
HETATM   19  C22 UNL     1      28.863   6.534  47.720  1.00  0.00     0.025 C 
HETATM   20  C23 UNL     1      25.906   6.861  49.807  1.00  0.00     0.274 C 
HETATM   21  N3  UNL     1      25.841   8.300  50.249  1.00  0.00    -0.263 NA
HETATM   22  C24 UNL     1      26.861   9.055  49.979  1.00  0.00     0.228 C 
HETATM   23  N4  UNL     1      27.498  10.334  50.034  1.00  0.00    -0.254 NA
HETATM   24  C25 UNL     1      28.101  10.795  48.943  1.00  0.00     0.130 C 
HETATM   25  C26 UNL     1      30.048  10.198  48.252  1.00  0.00     0.024 A 
HETATM   26  C27 UNL     1      30.701  10.945  49.250  1.00  0.00     0.015 A 
HETATM   27  C28 UNL     1      30.791   9.549  49.514  1.00  0.00    -0.005 A 
ENDROOT
BRANCH  14  28
HETATM   28  C15 UNL     1      26.388  10.071  44.978  1.00  0.00     0.281 C 
BRANCH  28  29
HETATM   29  N1  UNL     1      26.046  11.449  44.886  1.00  0.00     0.089 N 
HETATM   30  C16 UNL     1      25.260  11.970  46.008  1.00  0.00     0.274 A 
HETATM   31  C17 UNL     1      26.292  12.997  46.355  1.00  0.00     0.060 A 
HETATM   32  C18 UNL     1      27.063  12.408  45.203  1.00  0.00     0.274 A 
ENDBRANCH  28  29
ENDBRANCH  14  28
TORSDOF 2
ENDMDL
MODEL 9
REMARK VINA RESULT:      -7.7      7.118      9.408
REMARK  2 active torsions:
REMARK  status: ('A' for Active; 'I' for Inactive)
REMARK    1  A    between atoms: C14_14  and  C15_15 
REMARK    2  A    between atoms: C15_15  and  N1_16 
ROOT
HETATM    1  C1  UNL     1      29.644   6.682  47.541  1.00  0.00     0.010 C 
HETATM    2  C2  UNL     1      29.062   5.489  48.161  1.00  0.00     0.039 C 
HETATM    3  C3  UNL     1      27.590   5.938  48.309  1.00  0.00    -0.051 A 
HETATM    4  C4  UNL     1      26.989   5.060  49.178  1.00  0.00     0.007 A 
HETATM    5  C5  UNL     1      25.687   5.123  49.573  1.00  0.00     0.001 A 
HETATM    6  C6  UNL     1      24.902   6.138  49.068  1.00  0.00     0.001 A 
HETATM    7  C7  UNL     1      25.548   6.994  48.200  1.00  0.00     0.008 A 
HETATM    8  C8  UNL     1      26.878   6.994  47.749  1.00  0.00    -0.048 A 
HETATM    9  C9  UNL     1      27.245   8.063  46.799  1.00  0.00     0.078 C 
HETATM   10  C10 UNL     1      28.376   8.921  47.014  1.00  0.00    -0.045 C 
HETATM   11  C11 UNL     1      29.558   9.023  46.335  1.00  0.00    -0.035 C 
HETATM   12  C12 UNL     1      30.293  10.305  45.968  1.00  0.00    -0.006 C 
HETATM   13  C13 UNL     1      29.744  11.548  45.887  1.00  0.00    -0.039 C 
HETATM   14  C14 UNL     1      29.176  12.623  44.995  1.00  0.00     0.048 C 
HETATM   15  C19 UNL     1      28.198  12.842  46.170  1.00  0.00     0.040 C 
HETATM   16  C20 UNL     1      29.410  12.550  46.980  1.00  0.00     0.116 C 
HETATM   17  N2  UNL     1      29.258  11.879  48.251  1.00  0.00    -0.364 N 
HETATM   18  C21 UNL     1      28.414  10.856  48.762  1.00  0.00     0.088 C 
HETATM   19  C22 UNL     1      27.921   9.723  48.209  1.00  0.00     0.025 C 
HETATM   20  C23 UNL     1      30.226  12.307  49.311  1.00  0.00     0.274 C 
HETATM   21  N3  UNL     1      31.485  12.143  48.499  1.00  0.00    -0.263 NA
HETATM   22  C24 UNL     1      31.579  11.089  47.748  1.00  0.00     0.228 C 
HETATM   23  N4  UNL     1      32.320  10.306  46.808  1.00  0.00    -0.254 NA
HETATM   24  C25 UNL     1      31.686   9.809  45.751  1.00  0.00     0.130 C 
HETATM   25  C26 UNL     1      30.437   8.059  45.759  1.00  0.00     0.024 A 
HETATM   26  C27 UNL     1      31.544   7.192  45.835  1.00  0.00     0.015 A 
HETATM   27  C28 UNL     1      30.838   7.230  47.069  1.00  0.00    -0.005 A 
ENDROOT
BRANCH  14  28
HETATM   28  C15 UNL     1      28.560  12.123  43.738  1.00  0.00     0.281 C 
BRANCH  28  29
HETATM   29  N1  UNL     1      27.419  11.318  44.010  1.00  0.00     0.089 N 
HETATM   30  C16 UNL     1      26.221  11.657  43.236  1.00  0.00     0.274 A 
HETATM   31  C17 UNL     1      26.136  10.294  42.625  1.00  0.00     0.060 A 
HETATM   32  C18 UNL     1      27.378  10.008  43.428  1.00  0.00     0.274 A 
ENDBRANCH  28  29
ENDBRANCH  14  28
TORSDOF 2
ENDMDL
