MODEL 1
REMARK VINA RESULT:      -8.1      0.000      0.000
REMARK  6 active torsions:
REMARK  status: ('A' for Active; 'I' for Inactive)
REMARK    1  A    between atoms: O1_2  and  C2_3 
REMARK    2  A    between atoms: C2_3  and  C3_4 
REMARK    3  A    between atoms: C3_4  and  O2_5 
REMARK    4  A    between atoms: O2_5  and  C4_6 
REMARK    5  A    between atoms: C8_12  and  N3_13 
REMARK    6  A    between atoms: N3_13  and  C9_14 
ROOT
HETATM    1  C9  UNL     1      26.639   4.876  49.104  1.00  0.00     0.035 A 
HETATM    2  C10 UNL     1      27.895   4.796  48.559  1.00  0.00     0.032 A 
HETATM    3  C11 UNL     1      28.619   5.887  48.150  1.00  0.00     0.046 A 
HETATM    4  C12 UNL     1      28.056   7.124  48.292  1.00  0.00     0.135 A 
HETATM    5  F1  UNL     1      28.716   8.241  47.913  1.00  0.00    -0.205 F 
HETATM    6  C13 UNL     1      26.794   7.159  48.845  1.00  0.00     0.066 A 
HETATM    7  S1  UNL     1      26.177   8.591  49.017  1.00  0.00     0.038 SA
HETATM    8  N4  UNL     1      25.685   9.733  49.176  1.00  0.00    -0.103 N 
HETATM    9  C14 UNL     1      26.034   6.094  49.268  1.00  0.00     0.053 A 
ENDROOT
BRANCH   1  10
HETATM   10  N3  UNL     1      26.029   3.659  49.491  1.00  0.00    -0.340 N 
HETATM   11  H10 UNL     1      25.409   3.102  48.865  1.00  0.00     0.167 HD
BRANCH  10  12
HETATM   12  C8  UNL     1      26.031   2.879  50.670  1.00  0.00     0.144 A 
HETATM   13  N2  UNL     1      27.194   2.809  51.328  1.00  0.00    -0.223 NA
HETATM   14  C7  UNL     1      27.272   2.078  52.477  1.00  0.00     0.236 A 
HETATM   15  N1  UNL     1      26.204   1.428  52.965  1.00  0.00    -0.241 NA
HETATM   16  C6  UNL     1      25.033   1.472  52.341  1.00  0.00     0.077 A 
HETATM   17  C5  UNL     1      23.924   0.829  52.790  1.00  0.00     0.072 A 
HETATM   18  C15 UNL     1      24.922   2.211  51.162  1.00  0.00     0.075 A 
HETATM   19  C4  UNL     1      22.714   0.899  52.101  1.00  0.00     0.107 A 
HETATM   20  C17 UNL     1      22.647   1.641  50.937  1.00  0.00     0.136 A 
HETATM   21  C16 UNL     1      23.734   2.303  50.450  1.00  0.00     0.121 A 
HETATM   22  O3  UNL     1      21.486   1.758  50.199  1.00  0.00    -0.344 OA
HETATM   23  O4  UNL     1      23.656   3.044  49.285  1.00  0.00    -0.345 OA
HETATM   24  C19 UNL     1      22.667   2.799  48.330  1.00  0.00     0.202 C 
HETATM   25  C18 UNL     1      21.451   2.099  48.831  1.00  0.00     0.202 C 
BRANCH  19  26
HETATM   26  O2  UNL     1      21.576   0.233  52.573  1.00  0.00    -0.346 OA
BRANCH  26  27
HETATM   27  C3  UNL     1      21.571  -0.028  53.982  1.00  0.00     0.201 C 
BRANCH  27  28
HETATM   28  C2  UNL     1      21.078  -1.401  54.292  1.00  0.00     0.193 C 
BRANCH  28  29
HETATM   29  O1  UNL     1      21.900  -2.102  55.165  1.00  0.00    -0.394 OA
HETATM   30  C1  UNL     1      23.058  -1.424  55.493  1.00  0.00     0.201 C 
ENDBRANCH  28  29
ENDBRANCH  27  28
ENDBRANCH  26  27
ENDBRANCH  19  26
ENDBRANCH  10  12
ENDBRANCH   1  10
TORSDOF 6
ENDMDL
MODEL 2
REMARK VINA RESULT:      -8.1      4.724      6.371
REMARK  6 active torsions:
REMARK  status: ('A' for Active; 'I' for Inactive)
REMARK    1  A    between atoms: O1_2  and  C2_3 
REMARK    2  A    between atoms: C2_3  and  C3_4 
REMARK    3  A    between atoms: C3_4  and  O2_5 
REMARK    4  A    between atoms: O2_5  and  C4_6 
REMARK    5  A    between atoms: C8_12  and  N3_13 
REMARK    6  A    between atoms: N3_13  and  C9_14 
ROOT
HETATM    1  C9  UNL     1      25.572   0.599  53.013  1.00  0.00     0.035 A 
HETATM    2  C10 UNL     1      25.963   1.902  53.182  1.00  0.00     0.032 A 
HETATM    3  C11 UNL     1      27.257   2.285  53.427  1.00  0.00     0.046 A 
HETATM    4  C12 UNL     1      28.212   1.311  53.509  1.00  0.00     0.135 A 
HETATM    5  F1  UNL     1      29.507   1.617  53.745  1.00  0.00    -0.205 F 
HETATM    6  C13 UNL     1      27.777   0.015  53.333  1.00  0.00     0.066 A 
HETATM    7  S1  UNL     1      28.894  -1.084  53.413  1.00  0.00     0.038 SA
HETATM    8  N4  UNL     1      29.784  -1.966  53.454  1.00  0.00    -0.103 N 
HETATM    9  C14 UNL     1      26.494  -0.413  53.087  1.00  0.00     0.053 A 
ENDROOT
BRANCH   1  10
HETATM   10  N3  UNL     1      24.201   0.368  52.752  1.00  0.00    -0.340 N 
HETATM   11  H10 UNL     1      23.718   0.689  51.887  1.00  0.00     0.167 HD
BRANCH  10  12
HETATM   12  C8  UNL     1      23.153  -0.275  53.450  1.00  0.00     0.144 A 
HETATM   13  N2  UNL     1      23.507  -0.962  54.543  1.00  0.00    -0.223 NA
HETATM   14  C7  UNL     1      22.548  -1.603  55.271  1.00  0.00     0.236 A 
HETATM   15  N1  UNL     1      21.255  -1.560  54.915  1.00  0.00    -0.241 NA
HETATM   16  C6  UNL     1      20.864  -0.890  53.838  1.00  0.00     0.077 A 
HETATM   17  C5  UNL     1      19.570  -0.820  53.433  1.00  0.00     0.072 A 
HETATM   18  C15 UNL     1      21.821  -0.224  53.072  1.00  0.00     0.075 A 
HETATM   19  C4  UNL     1      19.203  -0.107  52.292  1.00  0.00     0.107 A 
HETATM   20  C17 UNL     1      20.182   0.539  51.561  1.00  0.00     0.136 A 
HETATM   21  C16 UNL     1      21.493   0.495  51.931  1.00  0.00     0.121 A 
HETATM   22  O3  UNL     1      19.899   1.262  50.420  1.00  0.00    -0.344 OA
HETATM   23  O4  UNL     1      22.465   1.145  51.193  1.00  0.00    -0.345 OA
HETATM   24  C19 UNL     1      22.265   1.471  49.849  1.00  0.00     0.202 C 
HETATM   25  C18 UNL     1      20.843   1.553  49.414  1.00  0.00     0.202 C 
BRANCH  19  26
HETATM   26  O2  UNL     1      17.865  -0.039  51.883  1.00  0.00    -0.346 OA
BRANCH  26  27
HETATM   27  C3  UNL     1      17.018  -1.061  52.422  1.00  0.00     0.201 C 
BRANCH  27  28
HETATM   28  C2  UNL     1      15.576  -0.683  52.351  1.00  0.00     0.193 C 
BRANCH  28  29
HETATM   29  O1  UNL     1      15.208   0.280  53.281  1.00  0.00    -0.394 OA
HETATM   30  C1  UNL     1      13.859   0.572  53.267  1.00  0.00     0.201 C 
ENDBRANCH  28  29
ENDBRANCH  27  28
ENDBRANCH  26  27
ENDBRANCH  19  26
ENDBRANCH  10  12
ENDBRANCH   1  10
TORSDOF 6
ENDMDL
MODEL 3
REMARK VINA RESULT:      -8.0      4.540      6.369
REMARK  6 active torsions:
REMARK  status: ('A' for Active; 'I' for Inactive)
REMARK    1  A    between atoms: O1_2  and  C2_3 
REMARK    2  A    between atoms: C2_3  and  C3_4 
REMARK    3  A    between atoms: C3_4  and  O2_5 
REMARK    4  A    between atoms: O2_5  and  C4_6 
REMARK    5  A    between atoms: C8_12  and  N3_13 
REMARK    6  A    between atoms: N3_13  and  C9_14 
ROOT
HETATM    1  C9  UNL     1      26.311   0.033  52.945  1.00  0.00     0.035 A 
HETATM    2  C10 UNL     1      26.776  -1.229  52.677  1.00  0.00     0.032 A 
HETATM    3  C11 UNL     1      28.056  -1.643  52.944  1.00  0.00     0.046 A 
HETATM    4  C12 UNL     1      28.918  -0.745  53.508  1.00  0.00     0.135 A 
HETATM    5  F1  UNL     1      30.193  -1.087  53.800  1.00  0.00    -0.205 F 
HETATM    6  C13 UNL     1      28.411   0.510  53.762  1.00  0.00     0.066 A 
HETATM    7  S1  UNL     1      29.413   1.517  54.428  1.00  0.00     0.038 SA
HETATM    8  N4  UNL     1      30.202   2.321  54.979  1.00  0.00    -0.103 N 
HETATM    9  C14 UNL     1      27.138   0.967  53.511  1.00  0.00     0.053 A 
ENDROOT
BRANCH   1  10
HETATM   10  N3  UNL     1      24.959   0.300  52.625  1.00  0.00    -0.340 N 
HETATM   11  H10 UNL     1      24.656   0.746  51.733  1.00  0.00     0.167 HD
BRANCH  10  12
HETATM   12  C8  UNL     1      23.725   0.097  53.284  1.00  0.00     0.144 A 
HETATM   13  N2  UNL     1      23.692  -0.893  54.183  1.00  0.00    -0.223 NA
HETATM   14  C7  UNL     1      22.537  -1.144  54.863  1.00  0.00     0.236 A 
HETATM   15  N1  UNL     1      21.428  -0.418  54.649  1.00  0.00    -0.241 NA
HETATM   16  C6  UNL     1      21.420   0.572  53.765  1.00  0.00     0.077 A 
HETATM   17  C5  UNL     1      20.325   1.333  53.509  1.00  0.00     0.072 A 
HETATM   18  C15 UNL     1      22.587   0.854  53.053  1.00  0.00     0.075 A 
HETATM   19  C4  UNL     1      20.358   2.362  52.568  1.00  0.00     0.107 A 
HETATM   20  C17 UNL     1      21.534   2.608  51.884  1.00  0.00     0.136 A 
HETATM   21  C16 UNL     1      22.657   1.869  52.110  1.00  0.00     0.121 A 
HETATM   22  O3  UNL     1      21.646   3.606  50.938  1.00  0.00    -0.344 OA
HETATM   23  O4  UNL     1      23.829   2.123  51.421  1.00  0.00    -0.345 OA
HETATM   24  C19 UNL     1      23.823   2.786  50.191  1.00  0.00     0.202 C 
HETATM   25  C18 UNL     1      22.622   3.624  49.920  1.00  0.00     0.202 C 
BRANCH  19  26
HETATM   26  O2  UNL     1      19.224   3.142  52.312  1.00  0.00    -0.346 OA
BRANCH  26  27
HETATM   27  C3  UNL     1      18.226   2.507  51.504  1.00  0.00     0.201 C 
BRANCH  27  28
HETATM   28  C2  UNL     1      17.099   3.431  51.182  1.00  0.00     0.193 C 
BRANCH  28  29
HETATM   29  O1  UNL     1      16.684   4.197  52.264  1.00  0.00    -0.394 OA
HETATM   30  C1  UNL     1      15.422   3.870  52.718  1.00  0.00     0.201 C 
ENDBRANCH  28  29
ENDBRANCH  27  28
ENDBRANCH  26  27
ENDBRANCH  19  26
ENDBRANCH  10  12
ENDBRANCH   1  10
TORSDOF 6
ENDMDL
MODEL 4
REMARK VINA RESULT:      -8.0      4.588      6.491
REMARK  6 active torsions:
REMARK  status: ('A' for Active; 'I' for Inactive)
REMARK    1  A    between atoms: O1_2  and  C2_3 
REMARK    2  A    between atoms: C2_3  and  C3_4 
REMARK    3  A    between atoms: C3_4  and  O2_5 
REMARK    4  A    between atoms: O2_5  and  C4_6 
REMARK    5  A    between atoms: C8_12  and  N3_13 
REMARK    6  A    between atoms: N3_13  and  C9_14 
ROOT
HETATM    1  C9  UNL     1      26.343   1.346  53.016  1.00  0.00     0.035 A 
HETATM    2  C10 UNL     1      27.260   2.321  53.317  1.00  0.00     0.032 A 
HETATM    3  C11 UNL     1      28.578   2.067  53.597  1.00  0.00     0.046 A 
HETATM    4  C12 UNL     1      29.003   0.769  53.577  1.00  0.00     0.135 A 
HETATM    5  F1  UNL     1      30.289   0.448  53.840  1.00  0.00    -0.205 F 
HETATM    6  C13 UNL     1      28.050  -0.178  53.269  1.00  0.00     0.066 A 
HETATM    7  S1  UNL     1      28.565  -1.660  53.232  1.00  0.00     0.038 SA
HETATM    8  N4  UNL     1      28.974  -2.844  53.181  1.00  0.00    -0.103 N 
HETATM    9  C14 UNL     1      26.722   0.030  52.983  1.00  0.00     0.053 A 
ENDROOT
BRANCH   1  10
HETATM   10  N3  UNL     1      25.023   1.771  52.735  1.00  0.00    -0.340 N 
HETATM   11  H10 UNL     1      24.788   2.720  52.375  1.00  0.00     0.167 HD
BRANCH  10  12
HETATM   12  C8  UNL     1      23.747   1.168  52.824  1.00  0.00     0.144 A 
HETATM   13  N2  UNL     1      23.730  -0.128  53.154  1.00  0.00    -0.223 NA
HETATM   14  C7  UNL     1      22.534  -0.776  53.264  1.00  0.00     0.236 A 
HETATM   15  N1  UNL     1      21.372  -0.140  53.049  1.00  0.00    -0.241 NA
HETATM   16  C6  UNL     1      21.348   1.145  52.719  1.00  0.00     0.077 A 
HETATM   17  C5  UNL     1      20.200   1.834  52.487  1.00  0.00     0.072 A 
HETATM   18  C15 UNL     1      22.555   1.836  52.598  1.00  0.00     0.075 A 
HETATM   19  C4  UNL     1      20.220   3.184  52.139  1.00  0.00     0.107 A 
HETATM   20  C17 UNL     1      21.436   3.831  52.029  1.00  0.00     0.136 A 
HETATM   21  C16 UNL     1      22.613   3.179  52.254  1.00  0.00     0.121 A 
HETATM   22  O3  UNL     1      21.538   5.164  51.688  1.00  0.00    -0.344 OA
HETATM   23  O4  UNL     1      23.825   3.836  52.142  1.00  0.00    -0.345 OA
HETATM   24  C19 UNL     1      23.957   4.999  51.380  1.00  0.00     0.202 C 
HETATM   25  C18 UNL     1      22.695   5.752  51.135  1.00  0.00     0.202 C 
BRANCH  19  26
HETATM   26  O2  UNL     1      19.031   3.885  51.902  1.00  0.00    -0.346 OA
BRANCH  26  27
HETATM   27  C3  UNL     1      17.884   3.061  51.657  1.00  0.00     0.201 C 
BRANCH  27  28
HETATM   28  C2  UNL     1      16.637   3.869  51.527  1.00  0.00     0.193 C 
BRANCH  28  29
HETATM   29  O1  UNL     1      16.195   4.404  52.730  1.00  0.00    -0.394 OA
HETATM   30  C1  UNL     1      14.946   3.953  53.107  1.00  0.00     0.201 C 
ENDBRANCH  28  29
ENDBRANCH  27  28
ENDBRANCH  26  27
ENDBRANCH  19  26
ENDBRANCH  10  12
ENDBRANCH   1  10
TORSDOF 6
ENDMDL
MODEL 5
REMARK VINA RESULT:      -7.8      4.572      8.322
REMARK  6 active torsions:
REMARK  status: ('A' for Active; 'I' for Inactive)
REMARK    1  A    between atoms: O1_2  and  C2_3 
REMARK    2  A    between atoms: C2_3  and  C3_4 
REMARK    3  A    between atoms: C3_4  and  O2_5 
REMARK    4  A    between atoms: O2_5  and  C4_6 
REMARK    5  A    between atoms: C8_12  and  N3_13 
REMARK    6  A    between atoms: N3_13  and  C9_14 
ROOT
HETATM    1  C9  UNL     1      21.931   0.618  53.322  1.00  0.00     0.035 A 
HETATM    2  C10 UNL     1      21.972  -0.371  54.270  1.00  0.00     0.032 A 
HETATM    3  C11 UNL     1      20.968  -1.286  54.462  1.00  0.00     0.046 A 
HETATM    4  C12 UNL     1      19.863  -1.205  53.663  1.00  0.00     0.135 A 
HETATM    5  F1  UNL     1      18.838  -2.076  53.796  1.00  0.00    -0.205 F 
HETATM    6  C13 UNL     1      19.862  -0.197  52.724  1.00  0.00     0.066 A 
HETATM    7  S1  UNL     1      18.591  -0.137  51.805  1.00  0.00     0.038 SA
HETATM    8  N4  UNL     1      17.588  -0.095  51.054  1.00  0.00    -0.103 N 
HETATM    9  C14 UNL     1      20.843   0.739  52.497  1.00  0.00     0.053 A 
ENDROOT
BRANCH   1  10
HETATM   10  N3  UNL     1      23.054   1.475  53.239  1.00  0.00    -0.340 N 
HETATM   11  H10 UNL     1      23.093   2.418  53.681  1.00  0.00     0.167 HD
BRANCH  10  12
HETATM   12  C8  UNL     1      24.326   1.387  52.628  1.00  0.00     0.144 A 
HETATM   13  N2  UNL     1      25.058   0.312  52.942  1.00  0.00    -0.223 NA
HETATM   14  C7  UNL     1      26.294   0.155  52.387  1.00  0.00     0.236 A 
HETATM   15  N1  UNL     1      26.793   1.059  51.529  1.00  0.00    -0.241 NA
HETATM   16  C6  UNL     1      26.098   2.139  51.193  1.00  0.00     0.077 A 
HETATM   17  C5  UNL     1      26.560   3.084  50.333  1.00  0.00     0.072 A 
HETATM   18  C15 UNL     1      24.831   2.327  51.744  1.00  0.00     0.075 A 
HETATM   19  C4  UNL     1      25.799   4.206  50.010  1.00  0.00     0.107 A 
HETATM   20  C17 UNL     1      24.548   4.355  50.579  1.00  0.00     0.136 A 
HETATM   21  C16 UNL     1      24.045   3.432  51.446  1.00  0.00     0.121 A 
HETATM   22  O3  UNL     1      23.736   5.438  50.310  1.00  0.00    -0.344 OA
HETATM   23  O4  UNL     1      22.792   3.589  52.009  1.00  0.00    -0.345 OA
HETATM   24  C19 UNL     1      22.189   4.845  52.106  1.00  0.00     0.202 C 
HETATM   25  C18 UNL     1      22.695   5.875  51.156  1.00  0.00     0.202 C 
BRANCH  19  26
HETATM   26  O2  UNL     1      26.283   5.175  49.122  1.00  0.00    -0.346 OA
BRANCH  26  27
HETATM   27  C3  UNL     1      27.610   4.938  48.637  1.00  0.00     0.201 C 
BRANCH  27  28
HETATM   28  C2  UNL     1      28.279   6.201  48.208  1.00  0.00     0.193 C 
BRANCH  28  29
HETATM   29  O1  UNL     1      29.614   6.278  48.586  1.00  0.00    -0.394 OA
HETATM   30  C1  UNL     1      30.442   5.452  47.851  1.00  0.00     0.201 C 
ENDBRANCH  28  29
ENDBRANCH  27  28
ENDBRANCH  26  27
ENDBRANCH  19  26
ENDBRANCH  10  12
ENDBRANCH   1  10
TORSDOF 6
ENDMDL
MODEL 6
REMARK VINA RESULT:      -7.7      4.847      6.469
REMARK  6 active torsions:
REMARK  status: ('A' for Active; 'I' for Inactive)
REMARK    1  A    between atoms: O1_2  and  C2_3 
REMARK    2  A    between atoms: C2_3  and  C3_4 
REMARK    3  A    between atoms: C3_4  and  O2_5 
REMARK    4  A    between atoms: O2_5  and  C4_6 
REMARK    5  A    between atoms: C8_12  and  N3_13 
REMARK    6  A    between atoms: N3_13  and  C9_14 
ROOT
HETATM    1  C9  UNL     1      25.847   0.016  53.135  1.00  0.00     0.035 A 
HETATM    2  C10 UNL     1      26.293  -1.211  52.716  1.00  0.00     0.032 A 
HETATM    3  C11 UNL     1      27.605  -1.606  52.771  1.00  0.00     0.046 A 
HETATM    4  C12 UNL     1      28.522  -0.725  53.271  1.00  0.00     0.135 A 
HETATM    5  F1  UNL     1      29.831  -1.050  53.357  1.00  0.00    -0.205 F 
HETATM    6  C13 UNL     1      28.033   0.496  53.682  1.00  0.00     0.066 A 
HETATM    7  S1  UNL     1      29.101   1.483  54.271  1.00  0.00     0.038 SA
HETATM    8  N4  UNL     1      29.945   2.269  54.761  1.00  0.00    -0.103 N 
HETATM    9  C14 UNL     1      26.730   0.932  53.645  1.00  0.00     0.053 A 
ENDROOT
BRANCH   1  10
HETATM   10  N3  UNL     1      24.459   0.267  53.027  1.00  0.00    -0.340 N 
HETATM   11  H10 UNL     1      24.053   1.004  52.413  1.00  0.00     0.167 HD
BRANCH  10  12
HETATM   12  C8  UNL     1      23.301  -0.295  53.613  1.00  0.00     0.144 A 
HETATM   13  N2  UNL     1      23.502  -1.096  54.665  1.00  0.00    -0.223 NA
HETATM   14  C7  UNL     1      22.431  -1.669  55.286  1.00  0.00     0.236 A 
HETATM   15  N1  UNL     1      21.177  -1.447  54.863  1.00  0.00    -0.241 NA
HETATM   16  C6  UNL     1      20.937  -0.659  53.822  1.00  0.00     0.077 A 
HETATM   17  C5  UNL     1      19.688  -0.405  53.352  1.00  0.00     0.072 A 
HETATM   18  C15 UNL     1      22.011  -0.058  53.166  1.00  0.00     0.075 A 
HETATM   19  C4  UNL     1      19.480   0.427  52.253  1.00  0.00     0.107 A 
HETATM   20  C17 UNL     1      20.572   1.002  51.631  1.00  0.00     0.136 A 
HETATM   21  C16 UNL     1      21.842   0.775  52.068  1.00  0.00     0.121 A 
HETATM   22  O3  UNL     1      20.448   1.834  50.537  1.00  0.00    -0.344 OA
HETATM   23  O4  UNL     1      22.928   1.356  51.439  1.00  0.00    -0.345 OA
HETATM   24  C19 UNL     1      22.854   1.799  50.117  1.00  0.00     0.202 C 
HETATM   25  C18 UNL     1      21.482   2.082  49.611  1.00  0.00     0.202 C 
BRANCH  19  26
HETATM   26  O2  UNL     1      18.188   0.684  51.777  1.00  0.00    -0.346 OA
BRANCH  26  27
HETATM   27  C3  UNL     1      17.544  -0.433  51.150  1.00  0.00     0.201 C 
BRANCH  27  28
HETATM   28  C2  UNL     1      16.455   0.000  50.226  1.00  0.00     0.193 C 
BRANCH  28  29
HETATM   29  O1  UNL     1      16.358  -0.779  49.080  1.00  0.00    -0.394 OA
HETATM   30  C1  UNL     1      15.101  -1.316  48.886  1.00  0.00     0.201 C 
ENDBRANCH  28  29
ENDBRANCH  27  28
ENDBRANCH  26  27
ENDBRANCH  19  26
ENDBRANCH  10  12
ENDBRANCH   1  10
TORSDOF 6
ENDMDL
MODEL 7
REMARK VINA RESULT:      -7.5      3.842      6.128
REMARK  6 active torsions:
REMARK  status: ('A' for Active; 'I' for Inactive)
REMARK    1  A    between atoms: O1_2  and  C2_3 
REMARK    2  A    between atoms: C2_3  and  C3_4 
REMARK    3  A    between atoms: C3_4  and  O2_5 
REMARK    4  A    between atoms: O2_5  and  C4_6 
REMARK    5  A    between atoms: C8_12  and  N3_13 
REMARK    6  A    between atoms: N3_13  and  C9_14 
ROOT
HETATM    1  C9  UNL     1      26.327   1.214  52.290  1.00  0.00     0.035 A 
HETATM    2  C10 UNL     1      26.976   2.312  52.794  1.00  0.00     0.032 A 
HETATM    3  C11 UNL     1      28.186   2.254  53.436  1.00  0.00     0.046 A 
HETATM    4  C12 UNL     1      28.779   1.032  53.585  1.00  0.00     0.135 A 
HETATM    5  F1  UNL     1      29.973   0.904  54.205  1.00  0.00    -0.205 F 
HETATM    6  C13 UNL     1      28.094  -0.044  53.065  1.00  0.00     0.066 A 
HETATM    7  S1  UNL     1      28.803  -1.434  53.230  1.00  0.00     0.038 SA
HETATM    8  N4  UNL     1      29.373  -2.546  53.340  1.00  0.00    -0.103 N 
HETATM    9  C14 UNL     1      26.882  -0.033  52.415  1.00  0.00     0.053 A 
ENDROOT
BRANCH   1  10
HETATM   10  N3  UNL     1      25.091   1.440  51.640  1.00  0.00    -0.340 N 
HETATM   11  H10 UNL     1      24.443   0.676  51.353  1.00  0.00     0.167 HD
BRANCH  10  12
HETATM   12  C8  UNL     1      24.393   2.592  51.211  1.00  0.00     0.144 A 
HETATM   13  N2  UNL     1      25.100   3.481  50.504  1.00  0.00    -0.223 NA
HETATM   14  C7  UNL     1      24.492   4.614  50.051  1.00  0.00     0.236 A 
HETATM   15  N1  UNL     1      23.195   4.858  50.299  1.00  0.00    -0.241 NA
HETATM   16  C6  UNL     1      22.460   4.002  50.997  1.00  0.00     0.077 A 
HETATM   17  C5  UNL     1      21.147   4.204  51.279  1.00  0.00     0.072 A 
HETATM   18  C15 UNL     1      23.054   2.833  51.475  1.00  0.00     0.075 A 
HETATM   19  C4  UNL     1      20.412   3.279  52.020  1.00  0.00     0.107 A 
HETATM   20  C17 UNL     1      21.038   2.135  52.475  1.00  0.00     0.136 A 
HETATM   21  C16 UNL     1      22.354   1.891  52.215  1.00  0.00     0.121 A 
HETATM   22  O3  UNL     1      20.379   1.174  53.215  1.00  0.00    -0.344 OA
HETATM   23  O4  UNL     1      22.971   0.742  52.675  1.00  0.00    -0.345 OA
HETATM   24  C19 UNL     1      22.466   0.028  53.764  1.00  0.00     0.202 C 
HETATM   25  C18 UNL     1      21.024   0.249  54.063  1.00  0.00     0.202 C 
BRANCH  19  26
HETATM   26  O2  UNL     1      19.058   3.496  52.304  1.00  0.00    -0.346 OA
BRANCH  26  27
HETATM   27  C3  UNL     1      18.188   3.445  51.167  1.00  0.00     0.201 C 
BRANCH  27  28
HETATM   28  C2  UNL     1      17.119   2.417  51.330  1.00  0.00     0.193 C 
BRANCH  28  29
HETATM   29  O1  UNL     1      17.610   1.129  51.502  1.00  0.00    -0.394 OA
HETATM   30  C1  UNL     1      17.830   0.460  50.314  1.00  0.00     0.201 C 
ENDBRANCH  28  29
ENDBRANCH  27  28
ENDBRANCH  26  27
ENDBRANCH  19  26
ENDBRANCH  10  12
ENDBRANCH   1  10
TORSDOF 6
ENDMDL
MODEL 8
REMARK VINA RESULT:      -7.4      4.326      6.537
REMARK  6 active torsions:
REMARK  status: ('A' for Active; 'I' for Inactive)
REMARK    1  A    between atoms: O1_2  and  C2_3 
REMARK    2  A    between atoms: C2_3  and  C3_4 
REMARK    3  A    between atoms: C3_4  and  O2_5 
REMARK    4  A    between atoms: O2_5  and  C4_6 
REMARK    5  A    between atoms: C8_12  and  N3_13 
REMARK    6  A    between atoms: N3_13  and  C9_14 
ROOT
HETATM    1  C9  UNL     1      25.623   0.444  53.163  1.00  0.00     0.035 A 
HETATM    2  C10 UNL     1      25.887  -0.837  52.750  1.00  0.00     0.032 A 
HETATM    3  C11 UNL     1      27.133  -1.409  52.786  1.00  0.00     0.046 A 
HETATM    4  C12 UNL     1      28.172  -0.658  53.260  1.00  0.00     0.135 A 
HETATM    5  F1  UNL     1      29.426  -1.160  53.326  1.00  0.00    -0.205 F 
HETATM    6  C13 UNL     1      27.864   0.622  53.665  1.00  0.00     0.066 A 
HETATM    7  S1  UNL     1      29.069   1.457  54.224  1.00  0.00     0.038 SA
HETATM    8  N4  UNL     1      30.023   2.124  54.690  1.00  0.00    -0.103 N 
HETATM    9  C14 UNL     1      26.633   1.234  53.647  1.00  0.00     0.053 A 
ENDROOT
BRANCH   1  10
HETATM   10  N3  UNL     1      24.281   0.883  53.077  1.00  0.00    -0.340 N 
HETATM   11  H10 UNL     1      23.467   0.311  53.387  1.00  0.00     0.167 HD
BRANCH  10  12
HETATM   12  C8  UNL     1      23.651   2.061  52.616  1.00  0.00     0.144 A 
HETATM   13  N2  UNL     1      24.455   3.101  52.369  1.00  0.00    -0.223 NA
HETATM   14  C7  UNL     1      23.919   4.271  51.915  1.00  0.00     0.236 A 
HETATM   15  N1  UNL     1      22.599   4.401  51.710  1.00  0.00    -0.241 NA
HETATM   16  C6  UNL     1      21.768   3.392  51.944  1.00  0.00     0.077 A 
HETATM   17  C5  UNL     1      20.425   3.474  51.757  1.00  0.00     0.072 A 
HETATM   18  C15 UNL     1      22.286   2.183  52.409  1.00  0.00     0.075 A 
HETATM   19  C4  UNL     1      19.588   2.390  52.019  1.00  0.00     0.107 A 
HETATM   20  C17 UNL     1      20.141   1.210  52.479  1.00  0.00     0.136 A 
HETATM   21  C16 UNL     1      21.483   1.084  52.680  1.00  0.00     0.121 A 
HETATM   22  O3  UNL     1      19.379   0.095  52.762  1.00  0.00    -0.344 OA
HETATM   23  O4  UNL     1      22.028  -0.102  53.140  1.00  0.00    -0.345 OA
HETATM   24  C19 UNL     1      21.259  -1.034  53.840  1.00  0.00     0.202 C 
HETATM   25  C18 UNL     1      19.788  -0.943  53.625  1.00  0.00     0.202 C 
BRANCH  19  26
HETATM   26  O2  UNL     1      18.205   2.483  51.822  1.00  0.00    -0.346 OA
BRANCH  26  27
HETATM   27  C3  UNL     1      17.739   3.779  51.423  1.00  0.00     0.201 C 
BRANCH  27  28
HETATM   28  C2  UNL     1      16.350   4.042  51.900  1.00  0.00     0.193 C 
BRANCH  28  29
HETATM   29  O1  UNL     1      15.468   3.000  51.642  1.00  0.00    -0.394 OA
HETATM   30  C1  UNL     1      14.731   2.617  52.744  1.00  0.00     0.201 C 
ENDBRANCH  28  29
ENDBRANCH  27  28
ENDBRANCH  26  27
ENDBRANCH  19  26
ENDBRANCH  10  12
ENDBRANCH   1  10
TORSDOF 6
ENDMDL
MODEL 9
REMARK VINA RESULT:      -7.3      2.141      3.502
REMARK  6 active torsions:
REMARK  status: ('A' for Active; 'I' for Inactive)
REMARK    1  A    between atoms: O1_2  and  C2_3 
REMARK    2  A    between atoms: C2_3  and  C3_4 
REMARK    3  A    between atoms: C3_4  and  O2_5 
REMARK    4  A    between atoms: O2_5  and  C4_6 
REMARK    5  A    between atoms: C8_12  and  N3_13 
REMARK    6  A    between atoms: N3_13  and  C9_14 
ROOT
HETATM    1  C9  UNL     1      26.416   5.094  49.234  1.00  0.00     0.035 A 
HETATM    2  C10 UNL     1      25.738   6.165  49.756  1.00  0.00     0.032 A 
HETATM    3  C11 UNL     1      26.157   7.465  49.636  1.00  0.00     0.046 A 
HETATM    4  C12 UNL     1      27.318   7.708  48.958  1.00  0.00     0.135 A 
HETATM    5  F1  UNL     1      27.787   8.965  48.799  1.00  0.00    -0.205 F 
HETATM    6  C13 UNL     1      27.968   6.604  48.448  1.00  0.00     0.066 A 
HETATM    7  S1  UNL     1      29.288   6.909  47.656  1.00  0.00     0.038 SA
HETATM    8  N4  UNL     1      30.332   7.146  47.005  1.00  0.00    -0.103 N 
HETATM    9  C14 UNL     1      27.585   5.287  48.545  1.00  0.00     0.053 A 
ENDROOT
BRANCH   1  10
HETATM   10  N3  UNL     1      25.845   3.815  49.430  1.00  0.00    -0.340 N 
HETATM   11  H10 UNL     1      26.396   2.930  49.419  1.00  0.00     0.167 HD
BRANCH  10  12
HETATM   12  C8  UNL     1      24.536   3.339  49.674  1.00  0.00     0.144 A 
HETATM   13  N2  UNL     1      23.577   3.821  48.875  1.00  0.00    -0.223 NA
HETATM   14  C7  UNL     1      22.289   3.404  49.047  1.00  0.00     0.236 A 
HETATM   15  N1  UNL     1      21.963   2.518  50.001  1.00  0.00    -0.241 NA
HETATM   16  C6  UNL     1      22.887   2.018  50.813  1.00  0.00     0.077 A 
HETATM   17  C5  UNL     1      22.608   1.123  51.797  1.00  0.00     0.072 A 
HETATM   18  C15 UNL     1      24.213   2.425  50.663  1.00  0.00     0.075 A 
HETATM   19  C4  UNL     1      23.608   0.625  52.631  1.00  0.00     0.107 A 
HETATM   20  C17 UNL     1      24.909   1.055  52.449  1.00  0.00     0.136 A 
HETATM   21  C16 UNL     1      25.234   1.951  51.475  1.00  0.00     0.121 A 
HETATM   22  O3  UNL     1      25.953   0.610  53.234  1.00  0.00    -0.344 OA
HETATM   23  O4  UNL     1      26.539   2.375  51.301  1.00  0.00    -0.345 OA
HETATM   24  C19 UNL     1      27.475   2.296  52.333  1.00  0.00     0.202 C 
HETATM   25  C18 UNL     1      27.167   1.308  53.405  1.00  0.00     0.202 C 
BRANCH  19  26
HETATM   26  O2  UNL     1      23.312  -0.298  53.641  1.00  0.00    -0.346 OA
BRANCH  26  27
HETATM   27  C3  UNL     1      22.238  -1.197  53.339  1.00  0.00     0.201 C 
BRANCH  27  28
HETATM   28  C2  UNL     1      21.309  -1.364  54.495  1.00  0.00     0.193 C 
BRANCH  28  29
HETATM   29  O1  UNL     1      20.208  -0.519  54.447  1.00  0.00    -0.394 OA
HETATM   30  C1  UNL     1      19.699  -0.351  53.174  1.00  0.00     0.201 C 
ENDBRANCH  28  29
ENDBRANCH  27  28
ENDBRANCH  26  27
ENDBRANCH  19  26
ENDBRANCH  10  12
ENDBRANCH   1  10
TORSDOF 6
ENDMDL
