MODEL 1
REMARK VINA RESULT:      -7.4      0.000      0.000
REMARK  9 active torsions:
REMARK  status: ('A' for Active; 'I' for Inactive)
REMARK    1  A    between atoms: C2_2  and  C3_3 
REMARK    2  A    between atoms: C4_4  and  C6_6 
REMARK    3  A    between atoms: C7_7  and  C8_8 
REMARK    4  A    between atoms: N2_10  and  C9_11 
REMARK    5  A    between atoms: C10_13  and  O1_14 
REMARK    6  A    between atoms: C12_17  and  C13_18 
REMARK    7  A    between atoms: C13_18  and  C15_20 
REMARK    8  A    between atoms: C15_20  and  C16_21 
REMARK    9  A    between atoms: C16_21  and  C17_22 
ROOT
HETATM    1  C8  UNL     1      25.828   2.311  52.133  1.00  0.00     0.057 C 
HETATM    2  N1  UNL     1      24.781   1.641  51.863  1.00  0.00    -0.175 NA
HETATM    3  N2  UNL     1      24.393   0.766  52.873  1.00  0.00    -0.240 N 
HETATM    4  C12 UNL     1      25.645   0.491  53.515  1.00  0.00     0.125 C 
HETATM    5  C18 UNL     1      26.258   1.903  53.476  1.00  0.00     0.089 C 
ENDROOT
BRANCH   1   6
HETATM    6  C7  UNL     1      26.054   3.144  50.971  1.00  0.00     0.029 C 
HETATM    7  C6  UNL     1      26.401   3.213  49.711  1.00  0.00     0.008 C 
BRANCH   7   8
HETATM    8  C4  UNL     1      26.391   4.550  49.178  1.00  0.00    -0.066 C 
HETATM    9  C3  UNL     1      27.546   5.027  48.783  1.00  0.00    -0.020 C 
HETATM   10  C5  UNL     1      25.124   5.314  49.093  1.00  0.00     0.048 C 
BRANCH   9  11
HETATM   11  C2  UNL     1      27.956   6.314  48.194  1.00  0.00     0.023 C 
HETATM   12  C1  UNL     1      29.427   6.329  47.858  1.00  0.00     0.009 C 
ENDBRANCH   9  11
ENDBRANCH   7   8
ENDBRANCH   1   6
BRANCH   3  13
HETATM   13  C9  UNL     1      23.134   0.195  53.314  1.00  0.00     0.192 A 
HETATM   14  N3  UNL     1      22.600  -0.620  53.968  1.00  0.00    -0.198 NA
HETATM   15  C10 UNL     1      21.284  -0.785  54.091  1.00  0.00     0.171 A 
HETATM   16  C11 UNL     1      20.417   0.147  53.328  1.00  0.00     0.111 A 
HETATM   17  S1  UNL     1      21.691   1.185  52.496  1.00  0.00    -0.058 SA
BRANCH  15  18
HETATM   18  O1  UNL     1      20.973  -1.852  54.958  1.00  0.00    -0.344 OA
HETATM   19  H12 UNL     1      19.994  -1.950  55.189  1.00  0.00     0.219 HD
ENDBRANCH  15  18
ENDBRANCH   3  13
BRANCH   4  20
HETATM   20  C13 UNL     1      26.564  -0.332  52.614  1.00  0.00     0.029 C 
HETATM   21  C14 UNL     1      26.007  -1.744  52.425  1.00  0.00     0.016 C 
BRANCH  20  22
HETATM   22  C15 UNL     1      27.918  -0.344  53.163  1.00  0.00    -0.022 C 
BRANCH  22  23
HETATM   23  C16 UNL     1      29.152  -0.397  53.560  1.00  0.00     0.000 C 
BRANCH  23  24
HETATM   24  C17 UNL     1      30.575  -0.522  53.833  1.00  0.00     0.249 C 
HETATM   25  F1  UNL     1      30.923  -1.775  54.297  1.00  0.00    -0.251 F 
ENDBRANCH  23  24
ENDBRANCH  22  23
ENDBRANCH  20  22
ENDBRANCH   4  20
TORSDOF 9
ENDMDL
MODEL 2
REMARK VINA RESULT:      -7.1      3.935      5.788
REMARK  9 active torsions:
REMARK  status: ('A' for Active; 'I' for Inactive)
REMARK    1  A    between atoms: C2_2  and  C3_3 
REMARK    2  A    between atoms: C4_4  and  C6_6 
REMARK    3  A    between atoms: C7_7  and  C8_8 
REMARK    4  A    between atoms: N2_10  and  C9_11 
REMARK    5  A    between atoms: C10_13  and  O1_14 
REMARK    6  A    between atoms: C12_17  and  C13_18 
REMARK    7  A    between atoms: C13_18  and  C15_20 
REMARK    8  A    between atoms: C15_20  and  C16_21 
REMARK    9  A    between atoms: C16_21  and  C17_22 
ROOT
HETATM    1  C8  UNL     1      26.065   3.549  49.680  1.00  0.00     0.057 C 
HETATM    2  N1  UNL     1      26.814   3.083  50.596  1.00  0.00    -0.175 NA
HETATM    3  N2  UNL     1      26.261   2.009  51.288  1.00  0.00    -0.240 N 
HETATM    4  C12 UNL     1      24.857   2.266  51.147  1.00  0.00     0.125 C 
HETATM    5  C18 UNL     1      24.839   2.741  49.682  1.00  0.00     0.089 C 
ENDROOT
BRANCH   1   6
HETATM    6  C7  UNL     1      26.816   4.639  49.095  1.00  0.00     0.029 C 
HETATM    7  C6  UNL     1      26.813   5.869  48.648  1.00  0.00     0.008 C 
BRANCH   7   8
HETATM    8  C4  UNL     1      28.093   6.315  48.163  1.00  0.00    -0.066 C 
HETATM    9  C3  UNL     1      29.083   5.462  48.267  1.00  0.00    -0.020 C 
HETATM   10  C5  UNL     1      28.244   7.670  47.584  1.00  0.00     0.048 C 
BRANCH   9  11
HETATM   11  C2  UNL     1      30.508   5.526  47.899  1.00  0.00     0.023 C 
HETATM   12  C1  UNL     1      31.356   6.035  49.041  1.00  0.00     0.009 C 
ENDBRANCH   9  11
ENDBRANCH   7   8
ENDBRANCH   1   6
BRANCH   3  13
HETATM   13  C9  UNL     1      26.789   0.859  51.998  1.00  0.00     0.192 A 
HETATM   14  N3  UNL     1      26.780  -0.307  52.122  1.00  0.00    -0.198 NA
HETATM   15  C10 UNL     1      27.513  -1.007  52.987  1.00  0.00     0.171 A 
HETATM   16  C11 UNL     1      28.423  -0.237  53.872  1.00  0.00     0.111 A 
HETATM   17  S1  UNL     1      28.071   1.479  53.303  1.00  0.00    -0.058 SA
BRANCH  15  18
HETATM   18  O1  UNL     1      27.267  -2.390  52.877  1.00  0.00    -0.344 OA
HETATM   19  H12 UNL     1      28.012  -2.929  52.456  1.00  0.00     0.219 HD
ENDBRANCH  15  18
ENDBRANCH   3  13
BRANCH   4  20
HETATM   20  C13 UNL     1      24.435   3.503  51.938  1.00  0.00     0.029 C 
HETATM   21  C14 UNL     1      24.550   3.245  53.441  1.00  0.00     0.016 C 
BRANCH  20  22
HETATM   22  C15 UNL     1      23.085   3.905  51.550  1.00  0.00    -0.022 C 
BRANCH  22  23
HETATM   23  C16 UNL     1      21.873   4.297  51.303  1.00  0.00     0.000 C 
BRANCH  23  24
HETATM   24  C17 UNL     1      20.465   4.557  51.049  1.00  0.00     0.249 C 
HETATM   25  F1  UNL     1      19.635   3.948  51.970  1.00  0.00    -0.251 F 
ENDBRANCH  23  24
ENDBRANCH  22  23
ENDBRANCH  20  22
ENDBRANCH   4  20
TORSDOF 9
ENDMDL
MODEL 3
REMARK VINA RESULT:      -6.9      4.166      7.392
REMARK  9 active torsions:
REMARK  status: ('A' for Active; 'I' for Inactive)
REMARK    1  A    between atoms: C2_2  and  C3_3 
REMARK    2  A    between atoms: C4_4  and  C6_6 
REMARK    3  A    between atoms: C7_7  and  C8_8 
REMARK    4  A    between atoms: N2_10  and  C9_11 
REMARK    5  A    between atoms: C10_13  and  O1_14 
REMARK    6  A    between atoms: C12_17  and  C13_18 
REMARK    7  A    between atoms: C13_18  and  C15_20 
REMARK    8  A    between atoms: C15_20  and  C16_21 
REMARK    9  A    between atoms: C16_21  and  C17_22 
ROOT
HETATM    1  C8  UNL     1      24.391   1.338  52.574  1.00  0.00     0.057 C 
HETATM    2  N1  UNL     1      24.924   2.210  51.819  1.00  0.00    -0.175 NA
HETATM    3  N2  UNL     1      24.097   3.293  51.533  1.00  0.00    -0.240 N 
HETATM    4  C12 UNL     1      22.796   2.703  51.654  1.00  0.00     0.125 C 
HETATM    5  C18 UNL     1      23.039   1.818  52.891  1.00  0.00     0.089 C 
ENDROOT
BRANCH   1   6
HETATM    6  C7  UNL     1      25.401   0.316  52.744  1.00  0.00     0.029 C 
HETATM    7  C6  UNL     1      25.742  -0.938  52.588  1.00  0.00     0.008 C 
BRANCH   7   8
HETATM    8  C4  UNL     1      27.070  -1.242  53.056  1.00  0.00    -0.066 C 
HETATM    9  C3  UNL     1      27.651  -0.326  53.791  1.00  0.00    -0.020 C 
HETATM   10  C5  UNL     1      27.710  -2.531  52.706  1.00  0.00     0.048 C 
BRANCH   9  11
HETATM   11  C2  UNL     1      28.967  -0.249  54.449  1.00  0.00     0.023 C 
HETATM   12  C1  UNL     1      30.076  -0.020  53.449  1.00  0.00     0.009 C 
ENDBRANCH   9  11
ENDBRANCH   7   8
ENDBRANCH   1   6
BRANCH   3  13
HETATM   13  C9  UNL     1      24.306   4.690  51.201  1.00  0.00     0.192 A 
HETATM   14  N3  UNL     1      24.018   5.806  51.421  1.00  0.00    -0.198 NA
HETATM   15  C10 UNL     1      24.525   6.878  50.815  1.00  0.00     0.171 A 
HETATM   16  C11 UNL     1      25.548   6.636  49.766  1.00  0.00     0.111 A 
HETATM   17  S1  UNL     1      25.636   4.796  49.804  1.00  0.00    -0.058 SA
BRANCH  15  18
HETATM   18  O1  UNL     1      23.967   8.071  51.317  1.00  0.00    -0.344 OA
HETATM   19  H12 UNL     1      23.497   7.987  52.207  1.00  0.00     0.219 HD
ENDBRANCH  15  18
ENDBRANCH   3  13
BRANCH   4  20
HETATM   20  C13 UNL     1      22.532   1.700  50.532  1.00  0.00     0.029 C 
HETATM   21  C14 UNL     1      22.691   2.368  49.166  1.00  0.00     0.016 C 
BRANCH  20  22
HETATM   22  C15 UNL     1      21.211   1.101  50.701  1.00  0.00    -0.022 C 
BRANCH  22  23
HETATM   23  C16 UNL     1      20.073   0.524  50.939  1.00  0.00     0.000 C 
BRANCH  23  24
HETATM   24  C17 UNL     1      18.778   0.002  51.348  1.00  0.00     0.249 C 
HETATM   25  F1  UNL     1      18.854  -0.794  52.474  1.00  0.00    -0.251 F 
ENDBRANCH  23  24
ENDBRANCH  22  23
ENDBRANCH  20  22
ENDBRANCH   4  20
TORSDOF 9
ENDMDL
MODEL 4
REMARK VINA RESULT:      -6.9      3.778      7.643
REMARK  9 active torsions:
REMARK  status: ('A' for Active; 'I' for Inactive)
REMARK    1  A    between atoms: C2_2  and  C3_3 
REMARK    2  A    between atoms: C4_4  and  C6_6 
REMARK    3  A    between atoms: C7_7  and  C8_8 
REMARK    4  A    between atoms: N2_10  and  C9_11 
REMARK    5  A    between atoms: C10_13  and  O1_14 
REMARK    6  A    between atoms: C12_17  and  C13_18 
REMARK    7  A    between atoms: C13_18  and  C15_20 
REMARK    8  A    between atoms: C15_20  and  C16_21 
REMARK    9  A    between atoms: C16_21  and  C17_22 
ROOT
HETATM    1  C8  UNL     1      23.577   1.305  53.106  1.00  0.00     0.057 C 
HETATM    2  N1  UNL     1      24.261   0.295  52.750  1.00  0.00    -0.175 NA
HETATM    3  N2  UNL     1      25.638   0.497  52.803  1.00  0.00    -0.240 N 
HETATM    4  C12 UNL     1      25.730   1.914  52.607  1.00  0.00     0.125 C 
HETATM    5  C18 UNL     1      24.532   2.361  53.467  1.00  0.00     0.089 C 
ENDROOT
BRANCH   1   6
HETATM    6  C7  UNL     1      22.196   0.890  52.981  1.00  0.00     0.029 C 
HETATM    7  C6  UNL     1      21.006   0.832  53.521  1.00  0.00     0.008 C 
BRANCH   7   8
HETATM    8  C4  UNL     1      20.020   0.189  52.691  1.00  0.00    -0.066 C 
HETATM    9  C3  UNL     1      19.160  -0.585  53.305  1.00  0.00    -0.020 C 
HETATM   10  C5  UNL     1      20.010   0.417  51.227  1.00  0.00     0.048 C 
BRANCH   9  11
HETATM   11  C2  UNL     1      18.026  -1.400  52.835  1.00  0.00     0.023 C 
HETATM   12  C1  UNL     1      17.841  -2.638  53.680  1.00  0.00     0.009 C 
ENDBRANCH   9  11
ENDBRANCH   7   8
ENDBRANCH   1   6
BRANCH   3  13
HETATM   13  C9  UNL     1      26.797  -0.353  53.002  1.00  0.00     0.192 A 
HETATM   14  N3  UNL     1      27.224  -1.446  53.012  1.00  0.00    -0.198 NA
HETATM   15  C10 UNL     1      28.486  -1.790  53.263  1.00  0.00     0.171 A 
HETATM   16  C11 UNL     1      29.435  -0.688  53.560  1.00  0.00     0.111 A 
HETATM   17  S1  UNL     1      28.313   0.766  53.427  1.00  0.00    -0.058 SA
BRANCH  15  18
HETATM   18  O1  UNL     1      28.668  -3.185  53.191  1.00  0.00    -0.344 OA
HETATM   19  H12 UNL     1      29.247  -3.584  53.918  1.00  0.00     0.219 HD
ENDBRANCH  15  18
ENDBRANCH   3  13
BRANCH   4  20
HETATM   20  C13 UNL     1      25.329   2.308  51.187  1.00  0.00     0.029 C 
HETATM   21  C14 UNL     1      26.535   2.244  50.250  1.00  0.00     0.016 C 
BRANCH  20  22
HETATM   22  C15 UNL     1      24.708   3.631  51.194  1.00  0.00    -0.022 C 
BRANCH  22  23
HETATM   23  C16 UNL     1      24.071   4.760  51.161  1.00  0.00     0.000 C 
BRANCH  23  24
HETATM   24  C17 UNL     1      23.338   6.008  51.312  1.00  0.00     0.249 C 
HETATM   25  F1  UNL     1      24.160   7.081  51.591  1.00  0.00    -0.251 F 
ENDBRANCH  23  24
ENDBRANCH  22  23
ENDBRANCH  20  22
ENDBRANCH   4  20
TORSDOF 9
ENDMDL
MODEL 5
REMARK VINA RESULT:      -6.8      4.152      8.041
REMARK  9 active torsions:
REMARK  status: ('A' for Active; 'I' for Inactive)
REMARK    1  A    between atoms: C2_2  and  C3_3 
REMARK    2  A    between atoms: C4_4  and  C6_6 
REMARK    3  A    between atoms: C7_7  and  C8_8 
REMARK    4  A    between atoms: N2_10  and  C9_11 
REMARK    5  A    between atoms: C10_13  and  O1_14 
REMARK    6  A    between atoms: C12_17  and  C13_18 
REMARK    7  A    between atoms: C13_18  and  C15_20 
REMARK    8  A    between atoms: C15_20  and  C16_21 
REMARK    9  A    between atoms: C16_21  and  C17_22 
ROOT
HETATM    1  C8  UNL     1      23.453   1.970  52.840  1.00  0.00     0.057 C 
HETATM    2  N1  UNL     1      24.495   1.248  52.934  1.00  0.00    -0.175 NA
HETATM    3  N2  UNL     1      25.686   1.966  52.900  1.00  0.00    -0.240 N 
HETATM    4  C12 UNL     1      25.307   3.120  52.137  1.00  0.00     0.125 C 
HETATM    5  C18 UNL     1      23.908   3.362  52.734  1.00  0.00     0.089 C 
ENDROOT
BRANCH   1   6
HETATM    6  C7  UNL     1      22.343   1.042  52.895  1.00  0.00     0.029 C 
HETATM    7  C6  UNL     1      21.413   0.392  52.245  1.00  0.00     0.008 C 
BRANCH   7   8
HETATM    8  C4  UNL     1      20.589  -0.440  53.084  1.00  0.00    -0.066 C 
HETATM    9  C3  UNL     1      19.328  -0.542  52.741  1.00  0.00    -0.020 C 
HETATM   10  C5  UNL     1      21.172  -1.128  54.259  1.00  0.00     0.048 C 
BRANCH   9  11
HETATM   11  C2  UNL     1      18.186  -1.274  53.316  1.00  0.00     0.023 C 
HETATM   12  C1  UNL     1      16.876  -0.818  52.719  1.00  0.00     0.009 C 
ENDBRANCH   9  11
ENDBRANCH   7   8
ENDBRANCH   1   6
BRANCH   3  13
HETATM   13  C9  UNL     1      27.022   1.773  53.434  1.00  0.00     0.192 A 
HETATM   14  N3  UNL     1      27.951   2.263  53.956  1.00  0.00    -0.198 NA
HETATM   15  C10 UNL     1      29.072   1.634  54.306  1.00  0.00     0.171 A 
HETATM   16  C11 UNL     1      29.150   0.183  54.005  1.00  0.00     0.111 A 
HETATM   17  S1  UNL     1      27.506  -0.084  53.218  1.00  0.00    -0.058 SA
BRANCH  15  18
HETATM   18  O1  UNL     1      29.991   2.512  54.916  1.00  0.00    -0.344 OA
HETATM   19  H12 UNL     1      29.601   3.384  55.246  1.00  0.00     0.219 HD
ENDBRANCH  15  18
ENDBRANCH   3  13
BRANCH   4  20
HETATM   20  C13 UNL     1      25.026   2.756  50.680  1.00  0.00     0.029 C 
HETATM   21  C14 UNL     1      26.327   2.429  49.947  1.00  0.00     0.016 C 
BRANCH  20  22
HETATM   22  C15 UNL     1      24.285   3.836  50.032  1.00  0.00    -0.022 C 
BRANCH  22  23
HETATM   23  C16 UNL     1      23.690   4.782  49.374  1.00  0.00     0.000 C 
BRANCH  23  24
HETATM   24  C17 UNL     1      22.861   5.753  48.677  1.00  0.00     0.249 C 
HETATM   25  F1  UNL     1      23.388   6.128  47.457  1.00  0.00    -0.251 F 
ENDBRANCH  23  24
ENDBRANCH  22  23
ENDBRANCH  20  22
ENDBRANCH   4  20
TORSDOF 9
ENDMDL
MODEL 6
REMARK VINA RESULT:      -6.5      3.488      6.444
REMARK  9 active torsions:
REMARK  status: ('A' for Active; 'I' for Inactive)
REMARK    1  A    between atoms: C2_2  and  C3_3 
REMARK    2  A    between atoms: C4_4  and  C6_6 
REMARK    3  A    between atoms: C7_7  and  C8_8 
REMARK    4  A    between atoms: N2_10  and  C9_11 
REMARK    5  A    between atoms: C10_13  and  O1_14 
REMARK    6  A    between atoms: C12_17  and  C13_18 
REMARK    7  A    between atoms: C13_18  and  C15_20 
REMARK    8  A    between atoms: C15_20  and  C16_21 
REMARK    9  A    between atoms: C16_21  and  C17_22 
ROOT
HETATM    1  C8  UNL     1      25.113   2.863  50.596  1.00  0.00     0.057 C 
HETATM    2  N1  UNL     1      24.101   3.121  51.320  1.00  0.00    -0.175 NA
HETATM    3  N2  UNL     1      23.107   3.846  50.668  1.00  0.00    -0.240 N 
HETATM    4  C12 UNL     1      23.868   4.559  49.684  1.00  0.00     0.125 C 
HETATM    5  C18 UNL     1      24.848   3.444  49.273  1.00  0.00     0.089 C 
ENDROOT
BRANCH   1   6
HETATM    6  C7  UNL     1      26.010   2.116  51.451  1.00  0.00     0.029 C 
HETATM    7  C6  UNL     1      27.023   2.139  52.279  1.00  0.00     0.008 C 
BRANCH   7   8
HETATM    8  C4  UNL     1      27.391   0.842  52.785  1.00  0.00    -0.066 C 
HETATM    9  C3  UNL     1      28.352   0.818  53.676  1.00  0.00    -0.020 C 
HETATM   10  C5  UNL     1      26.697  -0.374  52.303  1.00  0.00     0.048 C 
BRANCH   9  11
HETATM   11  C2  UNL     1      29.005  -0.273  54.422  1.00  0.00     0.023 C 
HETATM   12  C1  UNL     1      30.063  -0.958  53.592  1.00  0.00     0.009 C 
ENDBRANCH   9  11
ENDBRANCH   7   8
ENDBRANCH   1   6
BRANCH   3  13
HETATM   13  C9  UNL     1      21.667   3.965  50.795  1.00  0.00     0.192 A 
HETATM   14  N3  UNL     1      20.715   3.731  51.440  1.00  0.00    -0.198 NA
HETATM   15  C10 UNL     1      19.464   4.077  51.140  1.00  0.00     0.171 A 
HETATM   16  C11 UNL     1      19.259   4.824  49.874  1.00  0.00     0.111 A 
HETATM   17  S1  UNL     1      20.993   4.928  49.262  1.00  0.00    -0.058 SA
BRANCH  15  18
HETATM   18  O1  UNL     1      18.555   3.646  52.128  1.00  0.00    -0.344 OA
HETATM   19  H12 UNL     1      18.248   2.687  52.044  1.00  0.00     0.219 HD
ENDBRANCH  15  18
ENDBRANCH   3  13
BRANCH   4  20
HETATM   20  C13 UNL     1      24.765   5.614  50.331  1.00  0.00     0.029 C 
HETATM   21  C14 UNL     1      23.956   6.863  50.683  1.00  0.00     0.016 C 
BRANCH  20  22
HETATM   22  C15 UNL     1      25.890   5.918  49.450  1.00  0.00    -0.022 C 
BRANCH  22  23
HETATM   23  C16 UNL     1      26.944   6.114  48.719  1.00  0.00     0.000 C 
BRANCH  23  24
HETATM   24  C17 UNL     1      28.214   6.375  48.061  1.00  0.00     0.249 C 
HETATM   25  F1  UNL     1      29.013   5.251  47.976  1.00  0.00    -0.251 F 
ENDBRANCH  23  24
ENDBRANCH  22  23
ENDBRANCH  20  22
ENDBRANCH   4  20
TORSDOF 9
ENDMDL
MODEL 7
REMARK VINA RESULT:      -6.4      6.608      9.938
REMARK  9 active torsions:
REMARK  status: ('A' for Active; 'I' for Inactive)
REMARK    1  A    between atoms: C2_2  and  C3_3 
REMARK    2  A    between atoms: C4_4  and  C6_6 
REMARK    3  A    between atoms: C7_7  and  C8_8 
REMARK    4  A    between atoms: N2_10  and  C9_11 
REMARK    5  A    between atoms: C10_13  and  O1_14 
REMARK    6  A    between atoms: C12_17  and  C13_18 
REMARK    7  A    between atoms: C13_18  and  C15_20 
REMARK    8  A    between atoms: C15_20  and  C16_21 
REMARK    9  A    between atoms: C16_21  and  C17_22 
ROOT
HETATM    1  C8  UNL     1      27.928   6.767  48.091  1.00  0.00     0.057 C 
HETATM    2  N1  UNL     1      27.926   7.775  48.867  1.00  0.00    -0.175 NA
HETATM    3  N2  UNL     1      28.842   8.762  48.515  1.00  0.00    -0.240 N 
HETATM    4  C12 UNL     1      29.847   7.997  47.838  1.00  0.00     0.125 C 
HETATM    5  C18 UNL     1      28.937   7.030  47.056  1.00  0.00     0.089 C 
ENDROOT
BRANCH   1   6
HETATM    6  C7  UNL     1      26.921   5.876  48.625  1.00  0.00     0.029 C 
HETATM    7  C6  UNL     1      25.669   5.697  48.960  1.00  0.00     0.008 C 
BRANCH   7   8
HETATM    8  C4  UNL     1      25.389   4.387  49.488  1.00  0.00    -0.066 C 
HETATM    9  C3  UNL     1      26.421   3.701  49.915  1.00  0.00    -0.020 C 
HETATM   10  C5  UNL     1      23.999   3.878  49.530  1.00  0.00     0.048 C 
BRANCH   9  11
HETATM   11  C2  UNL     1      26.560   2.360  50.511  1.00  0.00     0.023 C 
HETATM   12  C1  UNL     1      26.901   2.437  51.980  1.00  0.00     0.009 C 
ENDBRANCH   9  11
ENDBRANCH   7   8
ENDBRANCH   1   6
BRANCH   3  13
HETATM   13  C9  UNL     1      28.922  10.201  48.686  1.00  0.00     0.192 A 
HETATM   14  N3  UNL     1      28.477  11.155  49.203  1.00  0.00    -0.198 NA
HETATM   15  C10 UNL     1      28.924  12.402  49.061  1.00  0.00     0.171 A 
HETATM   16  C11 UNL     1      30.092  12.598  48.166  1.00  0.00     0.111 A 
HETATM   17  S1  UNL     1      30.395  10.863  47.626  1.00  0.00    -0.058 SA
BRANCH  15  18
HETATM   18  O1  UNL     1      28.168  13.315  49.823  1.00  0.00    -0.344 OA
HETATM   19  H12 UNL     1      28.214  13.184  50.824  1.00  0.00     0.219 HD
ENDBRANCH  15  18
ENDBRANCH   3  13
BRANCH   4  20
HETATM   20  C13 UNL     1      30.602   7.086  48.806  1.00  0.00     0.029 C 
HETATM   21  C14 UNL     1      31.704   7.864  49.525  1.00  0.00     0.016 C 
BRANCH  20  22
HETATM   22  C15 UNL     1      31.124   5.924  48.091  1.00  0.00    -0.022 C 
BRANCH  22  23
HETATM   23  C16 UNL     1      31.606   4.848  47.550  1.00  0.00     0.000 C 
BRANCH  23  24
HETATM   24  C17 UNL     1      32.259   3.631  47.094  1.00  0.00     0.249 C 
HETATM   25  F1  UNL     1      31.406   2.793  46.404  1.00  0.00    -0.251 F 
ENDBRANCH  23  24
ENDBRANCH  22  23
ENDBRANCH  20  22
ENDBRANCH   4  20
TORSDOF 9
ENDMDL
MODEL 8
REMARK VINA RESULT:      -6.3      3.919      5.987
REMARK  9 active torsions:
REMARK  status: ('A' for Active; 'I' for Inactive)
REMARK    1  A    between atoms: C2_2  and  C3_3 
REMARK    2  A    between atoms: C4_4  and  C6_6 
REMARK    3  A    between atoms: C7_7  and  C8_8 
REMARK    4  A    between atoms: N2_10  and  C9_11 
REMARK    5  A    between atoms: C10_13  and  O1_14 
REMARK    6  A    between atoms: C12_17  and  C13_18 
REMARK    7  A    between atoms: C13_18  and  C15_20 
REMARK    8  A    between atoms: C15_20  and  C16_21 
REMARK    9  A    between atoms: C16_21  and  C17_22 
ROOT
HETATM    1  C8  UNL     1      25.425   3.932  49.555  1.00  0.00     0.057 C 
HETATM    2  N1  UNL     1      25.825   3.412  50.645  1.00  0.00    -0.175 NA
HETATM    3  N2  UNL     1      24.875   2.608  51.269  1.00  0.00    -0.240 N 
HETATM    4  C12 UNL     1      23.651   3.189  50.802  1.00  0.00     0.125 C 
HETATM    5  C18 UNL     1      24.049   3.465  49.340  1.00  0.00     0.089 C 
ENDROOT
BRANCH   1   6
HETATM    6  C7  UNL     1      26.545   4.715  49.077  1.00  0.00     0.029 C 
HETATM    7  C6  UNL     1      27.765   4.725  48.606  1.00  0.00     0.008 C 
BRANCH   7   8
HETATM    8  C4  UNL     1      28.273   6.046  48.335  1.00  0.00    -0.066 C 
HETATM    9  C3  UNL     1      27.453   7.042  48.566  1.00  0.00    -0.020 C 
HETATM   10  C5  UNL     1      29.652   6.228  47.826  1.00  0.00     0.048 C 
BRANCH   9  11
HETATM   11  C2  UNL     1      27.581   8.503  48.425  1.00  0.00     0.023 C 
HETATM   12  C1  UNL     1      27.823   9.172  49.756  1.00  0.00     0.009 C 
ENDBRANCH   9  11
ENDBRANCH   7   8
ENDBRANCH   1   6
BRANCH   3  13
HETATM   13  C9  UNL     1      24.920   1.461  52.157  1.00  0.00     0.192 A 
HETATM   14  N3  UNL     1      25.589   0.737  52.793  1.00  0.00    -0.198 NA
HETATM   15  C10 UNL     1      25.153  -0.277  53.539  1.00  0.00     0.171 A 
HETATM   16  C11 UNL     1      23.687  -0.510  53.564  1.00  0.00     0.111 A 
HETATM   17  S1  UNL     1      23.115   0.839  52.448  1.00  0.00    -0.058 SA
BRANCH  15  18
HETATM   18  O1  UNL     1      26.216  -0.946  54.179  1.00  0.00    -0.344 OA
HETATM   19  H12 UNL     1      27.111  -0.478  54.132  1.00  0.00     0.219 HD
ENDBRANCH  15  18
ENDBRANCH   3  13
BRANCH   4  20
HETATM   20  C13 UNL     1      23.435   4.583  51.391  1.00  0.00     0.029 C 
HETATM   21  C14 UNL     1      23.413   4.522  52.919  1.00  0.00     0.016 C 
BRANCH  20  22
HETATM   22  C15 UNL     1      22.213   5.170  50.846  1.00  0.00    -0.022 C 
BRANCH  22  23
HETATM   23  C16 UNL     1      21.089   5.595  50.360  1.00  0.00     0.000 C 
BRANCH  23  24
HETATM   24  C17 UNL     1      19.923   6.103  49.653  1.00  0.00     0.249 C 
HETATM   25  F1  UNL     1      18.743   5.531  50.087  1.00  0.00    -0.251 F 
ENDBRANCH  23  24
ENDBRANCH  22  23
ENDBRANCH  20  22
ENDBRANCH   4  20
TORSDOF 9
ENDMDL
MODEL 9
REMARK VINA RESULT:      -6.3      7.662     10.834
REMARK  9 active torsions:
REMARK  status: ('A' for Active; 'I' for Inactive)
REMARK    1  A    between atoms: C2_2  and  C3_3 
REMARK    2  A    between atoms: C4_4  and  C6_6 
REMARK    3  A    between atoms: C7_7  and  C8_8 
REMARK    4  A    between atoms: N2_10  and  C9_11 
REMARK    5  A    between atoms: C10_13  and  O1_14 
REMARK    6  A    between atoms: C12_17  and  C13_18 
REMARK    7  A    between atoms: C13_18  and  C15_20 
REMARK    8  A    between atoms: C15_20  and  C16_21 
REMARK    9  A    between atoms: C16_21  and  C17_22 
ROOT
HETATM    1  C8  UNL     1      31.091   7.088  47.259  1.00  0.00     0.057 C 
HETATM    2  N1  UNL     1      30.715   8.237  46.865  1.00  0.00    -0.175 NA
HETATM    3  N2  UNL     1      29.889   8.902  47.767  1.00  0.00    -0.240 N 
HETATM    4  C12 UNL     1      29.275   7.807  48.459  1.00  0.00     0.125 C 
HETATM    5  C18 UNL     1      30.496   6.877  48.585  1.00  0.00     0.089 C 
ENDROOT
BRANCH   1   6
HETATM    6  C7  UNL     1      31.927   6.578  46.193  1.00  0.00     0.029 C 
HETATM    7  C6  UNL     1      32.504   6.798  45.040  1.00  0.00     0.008 C 
BRANCH   7   8
HETATM    8  C4  UNL     1      33.262   5.678  44.545  1.00  0.00    -0.066 C 
HETATM    9  C3  UNL     1      34.049   5.083  45.408  1.00  0.00    -0.020 C 
HETATM   10  C5  UNL     1      33.133   5.251  43.133  1.00  0.00     0.048 C 
BRANCH   9  11
HETATM   11  C2  UNL     1      34.965   3.933  45.309  1.00  0.00     0.023 C 
HETATM   12  C1  UNL     1      35.081   3.198  46.623  1.00  0.00     0.009 C 
ENDBRANCH   9  11
ENDBRANCH   7   8
ENDBRANCH   1   6
BRANCH   3  13
HETATM   13  C9  UNL     1      29.608  10.291  48.075  1.00  0.00     0.192 A 
HETATM   14  N3  UNL     1      29.133  11.053  48.830  1.00  0.00    -0.198 NA
HETATM   15  C10 UNL     1      29.114  12.379  48.696  1.00  0.00     0.171 A 
HETATM   16  C11 UNL     1      29.752  12.939  47.478  1.00  0.00     0.111 A 
HETATM   17  S1  UNL     1      30.319  11.391  46.655  1.00  0.00    -0.058 SA
BRANCH  15  18
HETATM   18  O1  UNL     1      28.468  13.002  49.782  1.00  0.00    -0.344 OA
HETATM   19  H12 UNL     1      27.874  13.783  49.541  1.00  0.00     0.219 HD
ENDBRANCH  15  18
ENDBRANCH   3  13
BRANCH   4  20
HETATM   20  C13 UNL     1      28.321   7.036  47.547  1.00  0.00     0.029 C 
HETATM   21  C14 UNL     1      27.291   7.980  46.926  1.00  0.00     0.016 C 
BRANCH  20  22
HETATM   22  C15 UNL     1      27.692   5.947  48.290  1.00  0.00    -0.022 C 
BRANCH  22  23
HETATM   23  C16 UNL     1      27.047   5.039  48.955  1.00  0.00     0.000 C 
BRANCH  23  24
HETATM   24  C17 UNL     1      26.474   3.908  49.668  1.00  0.00     0.249 C 
HETATM   25  F1  UNL     1      26.831   2.693  49.119  1.00  0.00    -0.251 F 
ENDBRANCH  23  24
ENDBRANCH  22  23
ENDBRANCH  20  22
ENDBRANCH   4  20
TORSDOF 9
ENDMDL
