MODEL 1
REMARK VINA RESULT:      -7.5      0.000      0.000
REMARK  4 active torsions:
REMARK  status: ('A' for Active; 'I' for Inactive)
REMARK    1  A    between atoms: O1_2  and  C2_3 
REMARK    2  A    between atoms: C6_7  and  N1_8 
REMARK    3  A    between atoms: N1_8  and  C7_9 
REMARK    4  A    between atoms: C7_9  and  N2_10 
ROOT
HETATM    1  C2  UNL     1      22.804   0.026  52.679  1.00  0.00     0.051 C 
HETATM    2  C3  UNL     1      22.188   0.724  51.676  1.00  0.00     0.010 C 
HETATM    3  C4  UNL     1      22.804   2.108  51.715  1.00  0.00     0.068 C 
HETATM    4  C5  UNL     1      24.163   1.828  52.218  1.00  0.00    -0.019 C 
HETATM    5  C6  UNL     1      25.327   2.225  51.776  1.00  0.00     0.138 C 
HETATM    6  N3  UNL     1      26.621   1.920  52.272  1.00  0.00    -0.372 N 
HETATM    7  C8  UNL     1      27.900   2.134  52.882  1.00  0.00     0.146 C 
HETATM    8  C9  UNL     1      28.603   0.809  53.085  1.00  0.00     0.136 A 
HETATM    9  C10 UNL     1      27.701  -0.270  52.998  1.00  0.00     0.054 A 
HETATM   10 CL1  UNL     1      29.238  -1.172  53.280  1.00  0.00    -0.171 Cl
HETATM   11  C11 UNL     1      26.723  -1.212  52.966  1.00  0.00     0.130 C 
HETATM   12  F1  UNL     1      26.898  -2.460  52.481  1.00  0.00    -0.205 F 
HETATM   13  C12 UNL     1      25.491  -0.917  53.415  1.00  0.00     0.018 C 
HETATM   14  C13 UNL     1      24.907   0.284  53.990  1.00  0.00     0.046 C 
HETATM   15  C14 UNL     1      23.774   0.952  53.323  1.00  0.00     0.079 C 
HETATM   16  H8  UNL     1      26.497   0.974  51.861  1.00  0.00     0.161 HD
ENDROOT
BRANCH   5  17
HETATM   17  N1  UNL     1      25.261   3.073  50.606  1.00  0.00    -0.170 NA
BRANCH  17  18
HETATM   18  C7  UNL     1      26.318   3.486  50.052  1.00  0.00     0.095 C 
BRANCH  18  19
HETATM   19  N2  UNL     1      27.361   4.198  49.791  1.00  0.00    -0.241 NA
HETATM   20  H7  UNL     1      28.127   3.739  49.219  1.00  0.00     0.199 HD
ENDBRANCH  18  19
ENDBRANCH  17  18
ENDBRANCH   5  17
BRANCH   1  21
HETATM   21  O1  UNL     1      22.588  -1.260  53.036  1.00  0.00    -0.360 OA
HETATM   22  C1  UNL     1      21.748  -1.709  54.042  1.00  0.00     0.209 C 
ENDBRANCH   1  21
TORSDOF 4
ENDMDL
MODEL 2
REMARK VINA RESULT:      -7.4      2.823      4.431
REMARK  4 active torsions:
REMARK  status: ('A' for Active; 'I' for Inactive)
REMARK    1  A    between atoms: O1_2  and  C2_3 
REMARK    2  A    between atoms: C6_7  and  N1_8 
REMARK    3  A    between atoms: N1_8  and  C7_9 
REMARK    4  A    between atoms: C7_9  and  N2_10 
ROOT
HETATM    1  C2  UNL     1      23.965   3.043  51.818  1.00  0.00     0.051 C 
HETATM    2  C3  UNL     1      22.765   2.870  52.452  1.00  0.00     0.010 C 
HETATM    3  C4  UNL     1      22.509   1.378  52.425  1.00  0.00     0.068 C 
HETATM    4  C5  UNL     1      23.877   0.827  52.445  1.00  0.00    -0.019 C 
HETATM    5  C6  UNL     1      24.401  -0.113  53.187  1.00  0.00     0.138 C 
HETATM    6  N3  UNL     1      25.731  -0.605  53.195  1.00  0.00    -0.372 N 
HETATM    7  C8  UNL     1      26.813  -1.530  53.019  1.00  0.00     0.146 C 
HETATM    8  C9  UNL     1      28.134  -0.828  53.249  1.00  0.00     0.136 A 
HETATM    9  C10 UNL     1      27.991   0.572  53.183  1.00  0.00     0.054 A 
HETATM   10 CL1  UNL     1      29.752   0.457  53.556  1.00  0.00    -0.171 Cl
HETATM   11  C11 UNL     1      27.736   1.896  53.022  1.00  0.00     0.130 C 
HETATM   12  F1  UNL     1      28.368   2.872  53.707  1.00  0.00    -0.205 F 
HETATM   13  C12 UNL     1      26.791   2.298  52.154  1.00  0.00     0.018 C 
HETATM   14  C13 UNL     1      25.902   1.579  51.255  1.00  0.00     0.046 C 
HETATM   15  C14 UNL     1      24.439   1.694  51.408  1.00  0.00     0.079 C 
HETATM   16  H8  UNL     1      26.000   0.278  53.671  1.00  0.00     0.161 HD
ENDROOT
BRANCH   5  17
HETATM   17  N1  UNL     1      23.483  -0.700  54.138  1.00  0.00    -0.170 NA
BRANCH  17  18
HETATM   18  C7  UNL     1      23.905  -1.173  55.229  1.00  0.00     0.095 C 
BRANCH  18  19
HETATM   19  N2  UNL     1      24.707  -1.566  56.161  1.00  0.00    -0.241 NA
HETATM   20  H7  UNL     1      24.491  -2.497  56.620  1.00  0.00     0.199 HD
ENDBRANCH  18  19
ENDBRANCH  17  18
ENDBRANCH   5  17
BRANCH   1  21
HETATM   21  O1  UNL     1      24.616   4.207  51.594  1.00  0.00    -0.360 OA
HETATM   22  C1  UNL     1      24.038   5.445  51.366  1.00  0.00     0.209 C 
ENDBRANCH   1  21
TORSDOF 4
ENDMDL
MODEL 3
REMARK VINA RESULT:      -7.4      2.844      4.667
REMARK  4 active torsions:
REMARK  status: ('A' for Active; 'I' for Inactive)
REMARK    1  A    between atoms: O1_2  and  C2_3 
REMARK    2  A    between atoms: C6_7  and  N1_8 
REMARK    3  A    between atoms: N1_8  and  C7_9 
REMARK    4  A    between atoms: C7_9  and  N2_10 
ROOT
HETATM    1  C2  UNL     1      27.627   0.843  53.120  1.00  0.00     0.051 C 
HETATM    2  C3  UNL     1      27.908   2.162  52.888  1.00  0.00     0.010 C 
HETATM    3  C4  UNL     1      27.009   2.566  51.737  1.00  0.00     0.068 C 
HETATM    4  C5  UNL     1      25.842   1.684  51.930  1.00  0.00    -0.019 C 
HETATM    5  C6  UNL     1      24.565   1.960  51.940  1.00  0.00     0.138 C 
HETATM    6  N3  UNL     1      23.465   1.089  52.150  1.00  0.00    -0.372 N 
HETATM    7  C8  UNL     1      22.280   0.340  51.851  1.00  0.00     0.146 C 
HETATM    8  C9  UNL     1      21.934  -0.565  53.013  1.00  0.00     0.136 A 
HETATM    9  C10 UNL     1      23.032  -0.730  53.881  1.00  0.00     0.054 A 
HETATM   10 CL1  UNL     1      21.800  -1.725  54.746  1.00  0.00    -0.171 Cl
HETATM   11  C11 UNL     1      24.180  -0.867  54.593  1.00  0.00     0.130 C 
HETATM   12  F1  UNL     1      24.219  -1.013  55.934  1.00  0.00    -0.205 F 
HETATM   13  C12 UNL     1      25.368  -0.841  53.964  1.00  0.00     0.018 C 
HETATM   14  C13 UNL     1      25.747  -0.696  52.568  1.00  0.00     0.046 C 
HETATM   15  C14 UNL     1      26.584   0.440  52.139  1.00  0.00     0.079 C 
HETATM   16  H8  UNL     1      23.734   1.077  53.153  1.00  0.00     0.161 HD
ENDROOT
BRANCH   5  17
HETATM   17  N1  UNL     1      24.257   3.357  51.726  1.00  0.00    -0.170 NA
BRANCH  17  18
HETATM   18  C7  UNL     1      23.876   4.084  52.686  1.00  0.00     0.095 C 
BRANCH  18  19
HETATM   19  N2  UNL     1      23.743   5.100  53.470  1.00  0.00    -0.241 NA
HETATM   20  H7  UNL     1      23.557   6.039  53.014  1.00  0.00     0.199 HD
ENDBRANCH  18  19
ENDBRANCH  17  18
ENDBRANCH   5  17
BRANCH   1  21
HETATM   21  O1  UNL     1      28.180   0.038  54.056  1.00  0.00    -0.360 OA
HETATM   22  C1  UNL     1      29.375  -0.655  53.948  1.00  0.00     0.209 C 
ENDBRANCH   1  21
TORSDOF 4
ENDMDL
MODEL 4
REMARK VINA RESULT:      -7.3      3.344      5.125
REMARK  4 active torsions:
REMARK  status: ('A' for Active; 'I' for Inactive)
REMARK    1  A    between atoms: O1_2  and  C2_3 
REMARK    2  A    between atoms: C6_7  and  N1_8 
REMARK    3  A    between atoms: N1_8  and  C7_9 
REMARK    4  A    between atoms: C7_9  and  N2_10 
ROOT
HETATM    1  C2  UNL     1      25.423   2.430  51.504  1.00  0.00     0.051 C 
HETATM    2  C3  UNL     1      26.711   2.163  51.127  1.00  0.00     0.010 C 
HETATM    3  C4  UNL     1      27.421   1.743  52.398  1.00  0.00     0.068 C 
HETATM    4  C5  UNL     1      26.328   1.127  53.175  1.00  0.00    -0.019 C 
HETATM    5  C6  UNL     1      26.279  -0.017  53.807  1.00  0.00     0.138 C 
HETATM    6  N3  UNL     1      25.201  -0.591  54.528  1.00  0.00    -0.372 N 
HETATM    7  C8  UNL     1      24.459  -1.079  55.654  1.00  0.00     0.146 C 
HETATM    8  C9  UNL     1      23.050  -1.431  55.228  1.00  0.00     0.136 A 
HETATM    9  C10 UNL     1      22.723  -0.842  53.990  1.00  0.00     0.054 A 
HETATM   10 CL1  UNL     1      21.192  -1.737  54.321  1.00  0.00    -0.171 Cl
HETATM   11  C11 UNL     1      22.508  -0.160  52.835  1.00  0.00     0.130 C 
HETATM   12  F1  UNL     1      21.737  -0.617  51.827  1.00  0.00    -0.205 F 
HETATM   13  C12 UNL     1      23.097   1.032  52.639  1.00  0.00     0.018 C 
HETATM   14  C13 UNL     1      23.985   1.845  53.454  1.00  0.00     0.046 C 
HETATM   15  C14 UNL     1      25.337   2.183  52.969  1.00  0.00     0.079 C 
HETATM   16  H8  UNL     1      24.758  -0.785  53.609  1.00  0.00     0.161 HD
ENDROOT
BRANCH   5  17
HETATM   17  N1  UNL     1      27.496  -0.793  53.724  1.00  0.00    -0.170 NA
BRANCH  17  18
HETATM   18  C7  UNL     1      27.524  -1.874  53.073  1.00  0.00     0.095 C 
BRANCH  18  19
HETATM   19  N2  UNL     1      27.872  -3.051  52.674  1.00  0.00    -0.241 NA
HETATM   20  H7  UNL     1      27.420  -3.411  51.785  1.00  0.00     0.199 HD
ENDBRANCH  18  19
ENDBRANCH  17  18
ENDBRANCH   5  17
BRANCH   1  21
HETATM   21  O1  UNL     1      24.405   2.842  50.715  1.00  0.00    -0.360 OA
HETATM   22  C1  UNL     1      23.986   4.148  50.521  1.00  0.00     0.209 C 
ENDBRANCH   1  21
TORSDOF 4
ENDMDL
MODEL 5
REMARK VINA RESULT:      -7.0      3.088      4.438
REMARK  4 active torsions:
REMARK  status: ('A' for Active; 'I' for Inactive)
REMARK    1  A    between atoms: O1_2  and  C2_3 
REMARK    2  A    between atoms: C6_7  and  N1_8 
REMARK    3  A    between atoms: N1_8  and  C7_9 
REMARK    4  A    between atoms: C7_9  and  N2_10 
ROOT
HETATM    1  C2  UNL     1      21.464   0.153  53.707  1.00  0.00     0.051 C 
HETATM    2  C3  UNL     1      21.692  -0.426  54.926  1.00  0.00     0.010 C 
HETATM    3  C4  UNL     1      22.968  -1.225  54.757  1.00  0.00     0.068 C 
HETATM    4  C5  UNL     1      23.688  -0.445  53.732  1.00  0.00    -0.019 C 
HETATM    5  C6  UNL     1      24.926  -0.024  53.704  1.00  0.00     0.138 C 
HETATM    6  N3  UNL     1      25.584   0.744  52.710  1.00  0.00    -0.372 N 
HETATM    7  C8  UNL     1      26.509   1.057  51.659  1.00  0.00     0.146 C 
HETATM    8  C9  UNL     1      26.195   2.421  51.086  1.00  0.00     0.136 A 
HETATM    9  C10 UNL     1      24.897   2.842  51.437  1.00  0.00     0.054 A 
HETATM   10 CL1  UNL     1      25.444   4.279  50.492  1.00  0.00    -0.171 Cl
HETATM   11  C11 UNL     1      23.608   3.097  51.779  1.00  0.00     0.130 C 
HETATM   12  F1  UNL     1      23.132   4.330  52.050  1.00  0.00    -0.205 F 
HETATM   13  C12 UNL     1      22.728   2.086  51.885  1.00  0.00     0.018 C 
HETATM   14  C13 UNL     1      22.842   0.649  51.691  1.00  0.00     0.046 C 
HETATM   15  C14 UNL     1      22.568  -0.276  52.807  1.00  0.00     0.079 C 
HETATM   16  H8  UNL     1      25.043   1.560  53.057  1.00  0.00     0.161 HD
ENDROOT
BRANCH   5  17
HETATM   17  N1  UNL     1      25.704  -0.387  54.868  1.00  0.00    -0.170 NA
BRANCH  17  18
HETATM   18  C7  UNL     1      26.872   0.065  55.025  1.00  0.00     0.095 C 
BRANCH  18  19
HETATM   19  N2  UNL     1      27.907   0.831  54.941  1.00  0.00    -0.241 NA
HETATM   20  H7  UNL     1      27.750   1.812  54.569  1.00  0.00     0.199 HD
ENDBRANCH  18  19
ENDBRANCH  17  18
ENDBRANCH   5  17
BRANCH   1  21
HETATM   21  O1  UNL     1      20.437   0.963  53.362  1.00  0.00    -0.360 OA
HETATM   22  C1  UNL     1      19.362   0.635  52.551  1.00  0.00     0.209 C 
ENDBRANCH   1  21
TORSDOF 4
ENDMDL
MODEL 6
REMARK VINA RESULT:      -6.9      3.153      4.472
REMARK  4 active torsions:
REMARK  status: ('A' for Active; 'I' for Inactive)
REMARK    1  A    between atoms: O1_2  and  C2_3 
REMARK    2  A    between atoms: C6_7  and  N1_8 
REMARK    3  A    between atoms: N1_8  and  C7_9 
REMARK    4  A    between atoms: C7_9  and  N2_10 
ROOT
HETATM    1  C2  UNL     1      23.164   0.244  53.429  1.00  0.00     0.051 C 
HETATM    2  C3  UNL     1      24.058  -0.464  54.185  1.00  0.00     0.010 C 
HETATM    3  C4  UNL     1      25.254  -0.690  53.283  1.00  0.00     0.068 C 
HETATM    4  C5  UNL     1      25.216   0.502  52.413  1.00  0.00    -0.019 C 
HETATM    5  C6  UNL     1      26.165   1.336  52.079  1.00  0.00     0.138 C 
HETATM    6  N3  UNL     1      26.090   2.488  51.254  1.00  0.00    -0.372 N 
HETATM    7  C8  UNL     1      26.320   3.334  50.120  1.00  0.00     0.146 C 
HETATM    8  C9  UNL     1      25.473   4.583  50.228  1.00  0.00     0.136 A 
HETATM    9  C10 UNL     1      24.430   4.419  51.161  1.00  0.00     0.054 A 
HETATM   10 CL1  UNL     1      24.129   6.125  50.657  1.00  0.00    -0.171 Cl
HETATM   11  C11 UNL     1      23.428   4.108  52.023  1.00  0.00     0.130 C 
HETATM   12  F1  UNL     1      22.864   4.996  52.870  1.00  0.00    -0.205 F 
HETATM   13  C12 UNL     1      22.956   2.851  52.082  1.00  0.00     0.018 C 
HETATM   14  C13 UNL     1      23.293   1.632  51.364  1.00  0.00     0.046 C 
HETATM   15  C14 UNL     1      23.789   0.451  52.095  1.00  0.00     0.079 C 
HETATM   16  H8  UNL     1      25.601   2.955  52.042  1.00  0.00     0.161 HD
ENDROOT
BRANCH   5  17
HETATM   17  N1  UNL     1      27.454   1.034  52.660  1.00  0.00    -0.170 NA
BRANCH  17  18
HETATM   18  C7  UNL     1      28.198   1.961  53.087  1.00  0.00     0.095 C 
BRANCH  18  19
HETATM   19  N2  UNL     1      29.027   2.950  53.108  1.00  0.00    -0.241 NA
HETATM   20  H7  UNL     1      29.741   2.996  52.326  1.00  0.00     0.199 HD
ENDBRANCH  18  19
ENDBRANCH  17  18
ENDBRANCH   5  17
BRANCH   1  21
HETATM   21  O1  UNL     1      21.940   0.683  53.801  1.00  0.00    -0.360 OA
HETATM   22  C1  UNL     1      21.003  -0.016  54.546  1.00  0.00     0.209 C 
ENDBRANCH   1  21
TORSDOF 4
ENDMDL
MODEL 7
REMARK VINA RESULT:      -6.8      3.257      5.018
REMARK  4 active torsions:
REMARK  status: ('A' for Active; 'I' for Inactive)
REMARK    1  A    between atoms: O1_2  and  C2_3 
REMARK    2  A    between atoms: C6_7  and  N1_8 
REMARK    3  A    between atoms: N1_8  and  C7_9 
REMARK    4  A    between atoms: C7_9  and  N2_10 
ROOT
HETATM    1  C2  UNL     1      26.206  -0.018  53.083  1.00  0.00     0.051 C 
HETATM    2  C3  UNL     1      25.240  -0.966  53.283  1.00  0.00     0.010 C 
HETATM    3  C4  UNL     1      24.038  -0.208  53.809  1.00  0.00     0.068 C 
HETATM    4  C5  UNL     1      24.200   1.112  53.168  1.00  0.00    -0.019 C 
HETATM    5  C6  UNL     1      23.338   1.847  52.515  1.00  0.00     0.138 C 
HETATM    6  N3  UNL     1      23.532   3.106  51.891  1.00  0.00    -0.372 N 
HETATM    7  C8  UNL     1      23.396   4.514  51.656  1.00  0.00     0.146 C 
HETATM    8  C9  UNL     1      24.357   4.951  50.572  1.00  0.00     0.136 A 
HETATM    9  C10 UNL     1      25.369   3.993  50.365  1.00  0.00     0.054 A 
HETATM   10 CL1  UNL     1      25.837   5.214  49.121  1.00  0.00    -0.171 Cl
HETATM   11  C11 UNL     1      26.327   3.032  50.314  1.00  0.00     0.130 C 
HETATM   12  F1  UNL     1      26.963   2.664  49.182  1.00  0.00    -0.205 F 
HETATM   13  C12 UNL     1      26.676   2.371  51.432  1.00  0.00     0.018 C 
HETATM   14  C13 UNL     1      26.234   2.460  52.814  1.00  0.00     0.046 C 
HETATM   15  C14 UNL     1      25.619   1.292  53.474  1.00  0.00     0.079 C 
HETATM   16  H8  UNL     1      24.054   2.599  51.150  1.00  0.00     0.161 HD
ENDROOT
BRANCH   5  17
HETATM   17  N1  UNL     1      22.020   1.262  52.408  1.00  0.00    -0.170 NA
BRANCH  17  18
HETATM   18  C7  UNL     1      20.992   1.946  52.672  1.00  0.00     0.095 C 
BRANCH  18  19
HETATM   19  N2  UNL     1      20.144   2.919  52.693  1.00  0.00    -0.241 NA
HETATM   20  H7  UNL     1      20.230   3.616  53.487  1.00  0.00     0.199 HD
ENDBRANCH  18  19
ENDBRANCH  17  18
ENDBRANCH   5  17
BRANCH   1  21
HETATM   21  O1  UNL     1      27.462  -0.210  52.619  1.00  0.00    -0.360 OA
HETATM   22  C1  UNL     1      28.550  -0.667  53.345  1.00  0.00     0.209 C 
ENDBRANCH   1  21
TORSDOF 4
ENDMDL
MODEL 8
REMARK VINA RESULT:      -6.5      2.188      3.106
REMARK  4 active torsions:
REMARK  status: ('A' for Active; 'I' for Inactive)
REMARK    1  A    between atoms: O1_2  and  C2_3 
REMARK    2  A    between atoms: C6_7  and  N1_8 
REMARK    3  A    between atoms: N1_8  and  C7_9 
REMARK    4  A    between atoms: C7_9  and  N2_10 
ROOT
HETATM    1  C2  UNL     1      22.471   3.654  51.022  1.00  0.00     0.051 C 
HETATM    2  C3  UNL     1      22.599   4.060  49.722  1.00  0.00     0.010 C 
HETATM    3  C4  UNL     1      23.972   4.695  49.634  1.00  0.00     0.068 C 
HETATM    4  C5  UNL     1      24.727   3.943  50.654  1.00  0.00    -0.019 C 
HETATM    5  C6  UNL     1      25.899   3.366  50.586  1.00  0.00     0.138 C 
HETATM    6  N3  UNL     1      26.589   2.630  51.583  1.00  0.00    -0.372 N 
HETATM    7  C8  UNL     1      27.604   2.314  52.546  1.00  0.00     0.146 C 
HETATM    8  C9  UNL     1      27.211   1.075  53.320  1.00  0.00     0.136 A 
HETATM    9  C10 UNL     1      25.837   0.795  53.183  1.00  0.00     0.054 A 
HETATM   10 CL1  UNL     1      26.332  -0.589  54.229  1.00  0.00    -0.171 Cl
HETATM   11  C11 UNL     1      24.492   0.680  53.033  1.00  0.00     0.130 C 
HETATM   12  F1  UNL     1      23.842  -0.502  52.979  1.00  0.00    -0.205 F 
HETATM   13  C12 UNL     1      23.732   1.781  52.907  1.00  0.00     0.018 C 
HETATM   14  C13 UNL     1      24.041   3.202  52.904  1.00  0.00     0.046 C 
HETATM   15  C14 UNL     1      23.730   4.028  51.722  1.00  0.00     0.079 C 
HETATM   16  H8  UNL     1      25.913   1.861  51.409  1.00  0.00     0.161 HD
ENDROOT
BRANCH   5  17
HETATM   17  N1  UNL     1      26.549   3.492  49.301  1.00  0.00    -0.170 NA
BRANCH  17  18
HETATM   18  C7  UNL     1      27.332   4.455  49.070  1.00  0.00     0.095 C 
BRANCH  18  19
HETATM   19  N2  UNL     1      28.415   5.145  48.946  1.00  0.00    -0.241 NA
HETATM   20  H7  UNL     1      29.319   4.682  49.252  1.00  0.00     0.199 HD
ENDBRANCH  18  19
ENDBRANCH  17  18
ENDBRANCH   5  17
BRANCH   1  21
HETATM   21  O1  UNL     1      21.412   3.031  51.587  1.00  0.00    -0.360 OA
HETATM   22  C1  UNL     1      20.173   3.590  51.858  1.00  0.00     0.209 C 
ENDBRANCH   1  21
TORSDOF 4
ENDMDL
MODEL 9
REMARK VINA RESULT:      -6.3      3.006      4.769
REMARK  4 active torsions:
REMARK  status: ('A' for Active; 'I' for Inactive)
REMARK    1  A    between atoms: O1_2  and  C2_3 
REMARK    2  A    between atoms: C6_7  and  N1_8 
REMARK    3  A    between atoms: N1_8  and  C7_9 
REMARK    4  A    between atoms: C7_9  and  N2_10 
ROOT
HETATM    1  C2  UNL     1      25.376   3.768  50.289  1.00  0.00     0.051 C 
HETATM    2  C3  UNL     1      24.114   4.292  50.342  1.00  0.00     0.010 C 
HETATM    3  C4  UNL     1      23.198   3.107  50.568  1.00  0.00     0.068 C 
HETATM    4  C5  UNL     1      24.064   2.186  51.329  1.00  0.00    -0.019 C 
HETATM    5  C6  UNL     1      23.832   1.522  52.431  1.00  0.00     0.138 C 
HETATM    6  N3  UNL     1      24.697   0.659  53.151  1.00  0.00    -0.372 N 
HETATM    7  C8  UNL     1      25.204  -0.562  53.707  1.00  0.00     0.146 C 
HETATM    8  C9  UNL     1      26.566  -0.321  54.322  1.00  0.00     0.136 A 
HETATM    9  C10 UNL     1      27.134   0.883  53.861  1.00  0.00     0.054 A 
HETATM   10 CL1  UNL     1      28.429   0.343  54.994  1.00  0.00    -0.171 Cl
HETATM   11  C11 UNL     1      27.601   2.021  53.285  1.00  0.00     0.130 C 
HETATM   12  F1  UNL     1      28.388   2.915  53.919  1.00  0.00    -0.205 F 
HETATM   13  C12 UNL     1      27.264   2.320  52.018  1.00  0.00     0.018 C 
HETATM   14  C13 UNL     1      26.450   1.642  51.023  1.00  0.00     0.046 C 
HETATM   15  C14 UNL     1      25.247   2.298  50.475  1.00  0.00     0.079 C 
HETATM   16  H8  UNL     1      25.201   1.511  53.464  1.00  0.00     0.161 HD
ENDROOT
BRANCH   5  17
HETATM   17  N1  UNL     1      22.512   1.731  52.984  1.00  0.00    -0.170 NA
BRANCH  17  18
HETATM   18  C7  UNL     1      21.762   0.749  53.243  1.00  0.00     0.095 C 
BRANCH  18  19
HETATM   19  N2  UNL     1      21.033  -0.091  53.896  1.00  0.00    -0.241 NA
HETATM   20  H7  UNL     1      20.228  -0.540  53.371  1.00  0.00     0.199 HD
ENDBRANCH  18  19
ENDBRANCH  17  18
ENDBRANCH   5  17
BRANCH   1  21
HETATM   21  O1  UNL     1      26.536   4.438  50.102  1.00  0.00    -0.360 OA
HETATM   22  C1  UNL     1      27.168   4.674  48.891  1.00  0.00     0.209 C 
ENDBRANCH   1  21
TORSDOF 4
ENDMDL
