MODEL 1
REMARK VINA RESULT:      -9.6      0.000      0.000
REMARK  2 active torsions:
REMARK  status: ('A' for Active; 'I' for Inactive)
REMARK    1  A    between atoms: C4_5  and  N1_6 
REMARK    2  A    between atoms: N1_6  and  C5_7 
ROOT
HETATM    1  C5  UNL     1      24.956   1.921  52.569  1.00  0.00     0.160 A 
HETATM    2  N2  UNL     1      25.377   2.796  51.616  1.00  0.00    -0.222 NA
HETATM    3  C6  UNL     1      24.615   2.966  50.501  1.00  0.00     0.238 A 
HETATM    4  N3  UNL     1      23.458   2.314  50.285  1.00  0.00    -0.215 NA
HETATM    5  C7  UNL     1      23.023   1.433  51.229  1.00  0.00     0.202 A 
HETATM    6  C8  UNL     1      23.772   1.236  52.373  1.00  0.00     0.129 A 
HETATM    7  N4  UNL     1      23.425   0.355  53.417  1.00  0.00    -0.379 N 
HETATM    8  C9  UNL     1      22.275  -0.423  53.754  1.00  0.00     0.161 C 
HETATM    9  C10 UNL     1      21.097  -0.234  52.919  1.00  0.00    -0.004 A 
HETATM   10  C11 UNL     1      19.994  -0.727  53.589  1.00  0.00     0.051 A 
HETATM   11  C12 UNL     1      18.712  -0.716  53.101  1.00  0.00     0.105 A 
HETATM   12  C13 UNL     1      18.521  -0.162  51.835  1.00  0.00     0.107 A 
HETATM   13  C14 UNL     1      19.574   0.353  51.104  1.00  0.00     0.077 A 
HETATM   14  C15 UNL     1      20.824   0.297  51.674  1.00  0.00     0.088 A 
HETATM   15  O1  UNL     1      21.806   0.852  50.830  1.00  0.00    -0.289 OA
HETATM   16  O2  UNL     1      17.161  -0.264  51.566  1.00  0.00    -0.323 OA
HETATM   17  C16 UNL     1      16.442  -0.587  52.745  1.00  0.00     0.352 C 
HETATM   18  O3  UNL     1      17.468  -1.134  53.558  1.00  0.00    -0.323 OA
HETATM   19  H5  UNL     1      24.166   0.207  54.145  1.00  0.00     0.160 HD
ENDROOT
BRANCH   1  20
HETATM   20  N1  UNL     1      25.696   1.687  53.762  1.00  0.00    -0.339 N 
HETATM   21  H3  UNL     1      25.306   1.995  54.679  1.00  0.00     0.167 HD
BRANCH  20  22
HETATM   22  C4  UNL     1      26.961   1.038  53.705  1.00  0.00     0.035 A 
HETATM   23  C3  UNL     1      28.114   1.744  53.969  1.00  0.00     0.032 A 
HETATM   24  C2  UNL     1      29.344   1.096  53.909  1.00  0.00     0.046 A 
HETATM   25  C1  UNL     1      29.425  -0.249  53.587  1.00  0.00     0.138 A 
HETATM   26  F1  UNL     1      30.633  -0.883  53.530  1.00  0.00    -0.204 F 
HETATM   27  C18 UNL     1      28.249  -0.938  53.326  1.00  0.00     0.074 A 
HETATM   28  C17 UNL     1      27.030  -0.302  53.384  1.00  0.00     0.056 A 
HETATM   29 CL1  UNL     1      28.306  -2.654  52.913  1.00  0.00    -0.081 Cl
ENDBRANCH  20  22
ENDBRANCH   1  20
TORSDOF 2
ENDMDL
MODEL 2
REMARK VINA RESULT:      -9.6      1.970      3.167
REMARK  2 active torsions:
REMARK  status: ('A' for Active; 'I' for Inactive)
REMARK    1  A    between atoms: C4_5  and  N1_6 
REMARK    2  A    between atoms: N1_6  and  C5_7 
ROOT
HETATM    1  C5  UNL     1      24.138  -0.285  53.668  1.00  0.00     0.160 A 
HETATM    2  N2  UNL     1      24.441  -1.004  54.782  1.00  0.00    -0.222 NA
HETATM    3  C6  UNL     1      23.424  -1.475  55.555  1.00  0.00     0.238 A 
HETATM    4  N3  UNL     1      22.124  -1.269  55.277  1.00  0.00    -0.215 NA
HETATM    5  C7  UNL     1      21.802  -0.550  54.166  1.00  0.00     0.202 A 
HETATM    6  C8  UNL     1      22.810  -0.057  53.359  1.00  0.00     0.129 A 
HETATM    7  N4  UNL     1      22.603   0.697  52.186  1.00  0.00    -0.379 N 
HETATM    8  C9  UNL     1      21.471   1.047  51.388  1.00  0.00     0.161 C 
HETATM    9  C10 UNL     1      20.204   0.429  51.751  1.00  0.00    -0.004 A 
HETATM   10  C11 UNL     1      19.333   0.543  50.686  1.00  0.00     0.051 A 
HETATM   11  C12 UNL     1      18.044   0.071  50.673  1.00  0.00     0.105 A 
HETATM   12  C13 UNL     1      17.594  -0.570  51.829  1.00  0.00     0.107 A 
HETATM   13  C14 UNL     1      18.407  -0.725  52.934  1.00  0.00     0.077 A 
HETATM   14  C15 UNL     1      19.683  -0.218  52.854  1.00  0.00     0.088 A 
HETATM   15  O1  UNL     1      20.406  -0.439  54.042  1.00  0.00    -0.289 OA
HETATM   16  O2  UNL     1      16.282  -0.952  51.575  1.00  0.00    -0.323 OA
HETATM   17  C16 UNL     1      15.988  -0.843  50.192  1.00  0.00     0.352 C 
HETATM   18  O3  UNL     1      16.996   0.058  49.761  1.00  0.00    -0.323 OA
HETATM   19  H5  UNL     1      23.465   1.122  51.767  1.00  0.00     0.160 HD
ENDROOT
BRANCH   1  20
HETATM   20  N1  UNL     1      25.143   0.241  52.809  1.00  0.00    -0.339 N 
HETATM   21  H3  UNL     1      24.868   0.818  51.985  1.00  0.00     0.167 HD
BRANCH  20  22
HETATM   22  C4  UNL     1      26.517  -0.019  53.072  1.00  0.00     0.035 A 
HETATM   23  C3  UNL     1      27.060  -1.248  52.765  1.00  0.00     0.032 A 
HETATM   24  C2  UNL     1      28.405  -1.489  53.028  1.00  0.00     0.046 A 
HETATM   25  C1  UNL     1      29.206  -0.510  53.594  1.00  0.00     0.138 A 
HETATM   26  F1  UNL     1      30.526  -0.749  53.850  1.00  0.00    -0.204 F 
HETATM   27  C18 UNL     1      28.636   0.719  53.893  1.00  0.00     0.074 A 
HETATM   28  C17 UNL     1      27.306   0.962  53.635  1.00  0.00     0.056 A 
HETATM   29 CL1  UNL     1      29.620   1.996  54.613  1.00  0.00    -0.081 Cl
ENDBRANCH  20  22
ENDBRANCH   1  20
TORSDOF 2
ENDMDL
MODEL 3
REMARK VINA RESULT:      -8.9      4.529      8.261
REMARK  2 active torsions:
REMARK  status: ('A' for Active; 'I' for Inactive)
REMARK    1  A    between atoms: C4_5  and  N1_6 
REMARK    2  A    between atoms: N1_6  and  C5_7 
ROOT
HETATM    1  C5  UNL     1      22.704   3.027  50.952  1.00  0.00     0.160 A 
HETATM    2  N2  UNL     1      21.553   3.623  51.362  1.00  0.00    -0.222 NA
HETATM    3  C6  UNL     1      21.533   4.977  51.512  1.00  0.00     0.238 A 
HETATM    4  N3  UNL     1      22.597   5.765  51.274  1.00  0.00    -0.215 NA
HETATM    5  C7  UNL     1      23.758   5.184  50.863  1.00  0.00     0.202 A 
HETATM    6  C8  UNL     1      23.813   3.813  50.701  1.00  0.00     0.129 A 
HETATM    7  N4  UNL     1      24.954   3.100  50.280  1.00  0.00    -0.379 N 
HETATM    8  C9  UNL     1      26.240   3.448  49.765  1.00  0.00     0.161 C 
HETATM    9  C10 UNL     1      26.465   4.858  49.480  1.00  0.00    -0.004 A 
HETATM   10  C11 UNL     1      27.558   4.973  48.644  1.00  0.00     0.051 A 
HETATM   11  C12 UNL     1      28.059   6.159  48.168  1.00  0.00     0.105 A 
HETATM   12  C13 UNL     1      27.406   7.326  48.566  1.00  0.00     0.107 A 
HETATM   13  C14 UNL     1      26.305   7.292  49.399  1.00  0.00     0.077 A 
HETATM   14  C15 UNL     1      25.875   6.058  49.826  1.00  0.00     0.088 A 
HETATM   15  O1  UNL     1      24.751   6.161  50.667  1.00  0.00    -0.289 OA
HETATM   16  O2  UNL     1      28.089   8.377  47.964  1.00  0.00    -0.323 OA
HETATM   17  C16 UNL     1      28.963   7.894  46.957  1.00  0.00     0.352 C 
HETATM   18  O3  UNL     1      29.111   6.537  47.342  1.00  0.00    -0.323 OA
HETATM   19  H5  UNL     1      24.881   2.056  50.348  1.00  0.00     0.160 HD
ENDROOT
BRANCH   1  20
HETATM   20  N1  UNL     1      22.805   1.619  50.772  1.00  0.00    -0.339 N 
HETATM   21  H3  UNL     1      22.930   1.229  49.812  1.00  0.00     0.167 HD
BRANCH  20  22
HETATM   22  C4  UNL     1      22.736   0.747  51.894  1.00  0.00     0.035 A 
HETATM   23  C3  UNL     1      21.547   0.130  52.218  1.00  0.00     0.032 A 
HETATM   24  C2  UNL     1      21.493  -0.721  53.318  1.00  0.00     0.046 A 
HETATM   25  C1  UNL     1      22.618  -0.955  54.092  1.00  0.00     0.138 A 
HETATM   26  F1  UNL     1      22.563  -1.791  55.171  1.00  0.00    -0.204 F 
HETATM   27  C18 UNL     1      23.803  -0.322  53.744  1.00  0.00     0.074 A 
HETATM   28  C17 UNL     1      23.861   0.520  52.657  1.00  0.00     0.056 A 
HETATM   29 CL1  UNL     1      25.262  -0.594  54.702  1.00  0.00    -0.081 Cl
ENDBRANCH  20  22
ENDBRANCH   1  20
TORSDOF 2
ENDMDL
MODEL 4
REMARK VINA RESULT:      -8.8      3.874      5.327
REMARK  2 active torsions:
REMARK  status: ('A' for Active; 'I' for Inactive)
REMARK    1  A    between atoms: C4_5  and  N1_6 
REMARK    2  A    between atoms: N1_6  and  C5_7 
ROOT
HETATM    1  C5  UNL     1      26.053   2.718  50.800  1.00  0.00     0.160 A 
HETATM    2  N2  UNL     1      27.128   2.514  51.608  1.00  0.00    -0.222 NA
HETATM    3  C6  UNL     1      26.919   2.054  52.872  1.00  0.00     0.238 A 
HETATM    4  N3  UNL     1      25.699   1.786  53.372  1.00  0.00    -0.215 NA
HETATM    5  C7  UNL     1      24.611   1.986  52.577  1.00  0.00     0.202 A 
HETATM    6  C8  UNL     1      24.787   2.453  51.288  1.00  0.00     0.129 A 
HETATM    7  N4  UNL     1      23.743   2.696  50.374  1.00  0.00    -0.379 N 
HETATM    8  C9  UNL     1      22.339   2.437  50.339  1.00  0.00     0.161 C 
HETATM    9  C10 UNL     1      21.798   1.641  51.432  1.00  0.00    -0.004 A 
HETATM   10  C11 UNL     1      20.561   1.156  51.058  1.00  0.00     0.051 A 
HETATM   11  C12 UNL     1      19.760   0.364  51.842  1.00  0.00     0.105 A 
HETATM   12  C13 UNL     1      20.244   0.033  53.108  1.00  0.00     0.107 A 
HETATM   13  C14 UNL     1      21.473   0.479  53.553  1.00  0.00     0.077 A 
HETATM   14  C15 UNL     1      22.205   1.268  52.697  1.00  0.00     0.088 A 
HETATM   15  O1  UNL     1      23.432   1.655  53.268  1.00  0.00    -0.289 OA
HETATM   16  O2  UNL     1      19.270  -0.762  53.701  1.00  0.00    -0.323 OA
HETATM   17  C16 UNL     1      18.322  -1.194  52.738  1.00  0.00     0.352 C 
HETATM   18  O3  UNL     1      18.514  -0.236  51.708  1.00  0.00    -0.323 OA
HETATM   19  H5  UNL     1      24.025   3.187  49.490  1.00  0.00     0.160 HD
ENDROOT
BRANCH   1  20
HETATM   20  N1  UNL     1      26.188   3.198  49.466  1.00  0.00    -0.339 N 
HETATM   21  H3  UNL     1      26.001   2.555  48.666  1.00  0.00     0.167 HD
BRANCH  20  22
HETATM   22  C4  UNL     1      26.577   4.545  49.226  1.00  0.00     0.035 A 
HETATM   23  C3  UNL     1      27.766   4.817  48.585  1.00  0.00     0.032 A 
HETATM   24  C2  UNL     1      28.135   6.140  48.356  1.00  0.00     0.046 A 
HETATM   25  C1  UNL     1      27.322   7.185  48.764  1.00  0.00     0.138 A 
HETATM   26  F1  UNL     1      27.686   8.482  48.538  1.00  0.00    -0.204 F 
HETATM   27  C18 UNL     1      26.130   6.884  49.407  1.00  0.00     0.074 A 
HETATM   28  C17 UNL     1      25.761   5.578  49.635  1.00  0.00     0.056 A 
HETATM   29 CL1  UNL     1      25.064   8.186  49.942  1.00  0.00    -0.081 Cl
ENDBRANCH  20  22
ENDBRANCH   1  20
TORSDOF 2
ENDMDL
MODEL 5
REMARK VINA RESULT:      -8.5      5.147      6.721
REMARK  2 active torsions:
REMARK  status: ('A' for Active; 'I' for Inactive)
REMARK    1  A    between atoms: C4_5  and  N1_6 
REMARK    2  A    between atoms: N1_6  and  C5_7 
ROOT
HETATM    1  C5  UNL     1      23.819   6.641  51.091  1.00  0.00     0.160 A 
HETATM    2  N2  UNL     1      22.859   7.561  50.807  1.00  0.00    -0.222 NA
HETATM    3  C6  UNL     1      21.566   7.147  50.698  1.00  0.00     0.238 A 
HETATM    4  N3  UNL     1      21.181   5.868  50.857  1.00  0.00    -0.215 NA
HETATM    5  C7  UNL     1      22.131   4.933  51.141  1.00  0.00     0.202 A 
HETATM    6  C8  UNL     1      23.452   5.319  51.259  1.00  0.00     0.129 A 
HETATM    7  N4  UNL     1      24.520   4.447  51.550  1.00  0.00    -0.379 N 
HETATM    8  C9  UNL     1      24.639   3.081  51.952  1.00  0.00     0.161 C 
HETATM    9  C10 UNL     1      23.397   2.383  52.254  1.00  0.00    -0.004 A 
HETATM   10  C11 UNL     1      23.692   1.250  52.987  1.00  0.00     0.051 A 
HETATM   11  C12 UNL     1      22.762   0.351  53.446  1.00  0.00     0.105 A 
HETATM   12  C13 UNL     1      21.425   0.613  53.145  1.00  0.00     0.107 A 
HETATM   13  C14 UNL     1      21.052   1.727  52.418  1.00  0.00     0.077 A 
HETATM   14  C15 UNL     1      22.053   2.571  51.998  1.00  0.00     0.088 A 
HETATM   15  O1  UNL     1      21.542   3.662  51.270  1.00  0.00    -0.289 OA
HETATM   16  O2  UNL     1      20.689  -0.422  53.709  1.00  0.00    -0.323 OA
HETATM   17  C16 UNL     1      21.487  -1.166  54.615  1.00  0.00     0.352 C 
HETATM   18  O3  UNL     1      22.794  -0.828  54.180  1.00  0.00    -0.323 OA
HETATM   19  H5  UNL     1      25.478   4.864  51.460  1.00  0.00     0.160 HD
ENDROOT
BRANCH   1  20
HETATM   20  N1  UNL     1      25.192   6.995  51.221  1.00  0.00    -0.339 N 
HETATM   21  H3  UNL     1      25.655   6.930  52.153  1.00  0.00     0.167 HD
BRANCH  20  22
HETATM   22  C4  UNL     1      25.928   7.435  50.086  1.00  0.00     0.035 A 
HETATM   23  C3  UNL     1      26.303   6.535  49.113  1.00  0.00     0.032 A 
HETATM   24  C2  UNL     1      27.024   6.979  48.008  1.00  0.00     0.046 A 
HETATM   25  C1  UNL     1      27.369   8.314  47.874  1.00  0.00     0.138 A 
HETATM   26  F1  UNL     1      28.075   8.748  46.788  1.00  0.00    -0.204 F 
HETATM   27  C18 UNL     1      26.979   9.201  48.868  1.00  0.00     0.074 A 
HETATM   28  C17 UNL     1      26.266   8.766  49.962  1.00  0.00     0.056 A 
HETATM   29 CL1  UNL     1      27.396  10.912  48.737  1.00  0.00    -0.081 Cl
ENDBRANCH  20  22
ENDBRANCH   1  20
TORSDOF 2
ENDMDL
MODEL 6
REMARK VINA RESULT:      -8.5      5.333      7.445
REMARK  2 active torsions:
REMARK  status: ('A' for Active; 'I' for Inactive)
REMARK    1  A    between atoms: C4_5  and  N1_6 
REMARK    2  A    between atoms: N1_6  and  C5_7 
ROOT
HETATM    1  C5  UNL     1      25.449   5.417  49.684  1.00  0.00     0.160 A 
HETATM    2  N2  UNL     1      24.357   6.034  49.157  1.00  0.00    -0.222 NA
HETATM    3  C6  UNL     1      23.156   5.394  49.206  1.00  0.00     0.238 A 
HETATM    4  N3  UNL     1      22.985   4.177  49.752  1.00  0.00    -0.215 NA
HETATM    5  C7  UNL     1      24.068   3.544  50.284  1.00  0.00     0.202 A 
HETATM    6  C8  UNL     1      25.303   4.165  50.250  1.00  0.00     0.129 A 
HETATM    7  N4  UNL     1      26.492   3.613  50.767  1.00  0.00    -0.379 N 
HETATM    8  C9  UNL     1      26.825   2.472  51.560  1.00  0.00     0.161 C 
HETATM    9  C10 UNL     1      25.709   1.699  52.086  1.00  0.00    -0.004 A 
HETATM   10  C11 UNL     1      26.167   0.906  53.120  1.00  0.00     0.051 A 
HETATM   11  C12 UNL     1      25.387   0.044  53.850  1.00  0.00     0.105 A 
HETATM   12  C13 UNL     1      24.034  -0.026  53.513  1.00  0.00     0.107 A 
HETATM   13  C14 UNL     1      23.503   0.738  52.492  1.00  0.00     0.077 A 
HETATM   14  C15 UNL     1      24.361   1.572  51.816  1.00  0.00     0.088 A 
HETATM   15  O1  UNL     1      23.697   2.292  50.803  1.00  0.00    -0.289 OA
HETATM   16  O2  UNL     1      23.465  -0.952  54.379  1.00  0.00    -0.323 OA
HETATM   17  C16 UNL     1      24.348  -1.243  55.450  1.00  0.00     0.352 C 
HETATM   18  O3  UNL     1      25.594  -0.837  54.904  1.00  0.00    -0.323 OA
HETATM   19  H5  UNL     1      27.369   4.139  50.535  1.00  0.00     0.160 HD
ENDROOT
BRANCH   1  20
HETATM   20  N1  UNL     1      26.739   6.019  49.671  1.00  0.00    -0.339 N 
HETATM   21  H3  UNL     1      27.531   5.550  50.160  1.00  0.00     0.167 HD
BRANCH  20  22
HETATM   22  C4  UNL     1      26.945   7.253  48.994  1.00  0.00     0.035 A 
HETATM   23  C3  UNL     1      26.885   8.442  49.690  1.00  0.00     0.032 A 
HETATM   24  C2  UNL     1      27.089   9.642  49.015  1.00  0.00     0.046 A 
HETATM   25  C1  UNL     1      27.352   9.658  47.655  1.00  0.00     0.138 A 
HETATM   26  F1  UNL     1      27.553  10.837  46.996  1.00  0.00    -0.204 F 
HETATM   27  C18 UNL     1      27.408   8.448  46.978  1.00  0.00     0.074 A 
HETATM   28  C17 UNL     1      27.207   7.258  47.641  1.00  0.00     0.056 A 
HETATM   29 CL1  UNL     1      27.742   8.422  45.245  1.00  0.00    -0.081 Cl
ENDBRANCH  20  22
ENDBRANCH   1  20
TORSDOF 2
ENDMDL
MODEL 7
REMARK VINA RESULT:      -8.3      5.752      9.281
REMARK  2 active torsions:
REMARK  status: ('A' for Active; 'I' for Inactive)
REMARK    1  A    between atoms: C4_5  and  N1_6 
REMARK    2  A    between atoms: N1_6  and  C5_7 
ROOT
HETATM    1  C5  UNL     1      24.574   4.317  50.452  1.00  0.00     0.160 A 
HETATM    2  N2  UNL     1      23.474   4.791  51.096  1.00  0.00    -0.222 NA
HETATM    3  C6  UNL     1      23.376   6.130  51.327  1.00  0.00     0.238 A 
HETATM    4  N3  UNL     1      24.314   7.018  50.950  1.00  0.00    -0.215 NA
HETATM    5  C7  UNL     1      25.422   6.560  50.304  1.00  0.00     0.202 A 
HETATM    6  C8  UNL     1      25.553   5.208  50.054  1.00  0.00     0.129 A 
HETATM    7  N4  UNL     1      26.650   4.617  49.395  1.00  0.00    -0.379 N 
HETATM    8  C9  UNL     1      27.789   5.099  48.679  1.00  0.00     0.161 C 
HETATM    9  C10 UNL     1      27.846   6.534  48.443  1.00  0.00    -0.004 A 
HETATM   10  C11 UNL     1      28.756   6.782  47.433  1.00  0.00     0.051 A 
HETATM   11  C12 UNL     1      29.067   8.027  46.947  1.00  0.00     0.105 A 
HETATM   12  C13 UNL     1      28.408   9.114  47.523  1.00  0.00     0.107 A 
HETATM   13  C14 UNL     1      27.485   8.946  48.537  1.00  0.00     0.077 A 
HETATM   14  C15 UNL     1      27.238   7.661  48.960  1.00  0.00     0.088 A 
HETATM   15  O1  UNL     1      26.282   7.628  49.992  1.00  0.00    -0.289 OA
HETATM   16  O2  UNL     1      28.885  10.246  46.873  1.00  0.00    -0.323 OA
HETATM   17  C16 UNL     1      29.595   9.887  45.699  1.00  0.00     0.352 C 
HETATM   18  O3  UNL     1      29.916   8.532  45.970  1.00  0.00    -0.323 OA
HETATM   19  H5  UNL     1      26.673   3.568  49.412  1.00  0.00     0.160 HD
ENDROOT
BRANCH   1  20
HETATM   20  N1  UNL     1      24.750   2.933  50.173  1.00  0.00    -0.339 N 
HETATM   21  H3  UNL     1      24.695   2.593  49.189  1.00  0.00     0.167 HD
BRANCH  20  22
HETATM   22  C4  UNL     1      25.000   2.016  51.232  1.00  0.00     0.035 A 
HETATM   23  C3  UNL     1      26.295   1.716  51.597  1.00  0.00     0.032 A 
HETATM   24  C2  UNL     1      26.525   0.818  52.635  1.00  0.00     0.046 A 
HETATM   25  C1  UNL     1      25.470   0.220  53.304  1.00  0.00     0.138 A 
HETATM   26  F1  UNL     1      25.698  -0.661  54.323  1.00  0.00    -0.204 F 
HETATM   27  C18 UNL     1      24.176   0.538  52.919  1.00  0.00     0.074 A 
HETATM   28  C17 UNL     1      23.943   1.427  51.893  1.00  0.00     0.056 A 
HETATM   29 CL1  UNL     1      22.802  -0.200  53.746  1.00  0.00    -0.081 Cl
ENDBRANCH  20  22
ENDBRANCH   1  20
TORSDOF 2
ENDMDL
MODEL 8
REMARK VINA RESULT:      -8.2      5.748      7.558
REMARK  2 active torsions:
REMARK  status: ('A' for Active; 'I' for Inactive)
REMARK    1  A    between atoms: C4_5  and  N1_6 
REMARK    2  A    between atoms: N1_6  and  C5_7 
ROOT
HETATM    1  C5  UNL     1      26.159   6.275  49.028  1.00  0.00     0.160 A 
HETATM    2  N2  UNL     1      25.344   7.113  48.332  1.00  0.00    -0.222 NA
HETATM    3  C6  UNL     1      24.074   6.709  48.052  1.00  0.00     0.238 A 
HETATM    4  N3  UNL     1      23.575   5.518  48.428  1.00  0.00    -0.215 NA
HETATM    5  C7  UNL     1      24.378   4.667  49.126  1.00  0.00     0.202 A 
HETATM    6  C8  UNL     1      25.672   5.045  49.427  1.00  0.00     0.129 A 
HETATM    7  N4  UNL     1      26.594   4.254  50.141  1.00  0.00    -0.379 N 
HETATM    8  C9  UNL     1      26.531   3.031  50.877  1.00  0.00     0.161 C 
HETATM    9  C10 UNL     1      25.207   2.454  51.066  1.00  0.00    -0.004 A 
HETATM   10  C11 UNL     1      25.265   1.536  52.095  1.00  0.00     0.051 A 
HETATM   11  C12 UNL     1      24.200   0.798  52.548  1.00  0.00     0.105 A 
HETATM   12  C13 UNL     1      22.974   1.002  51.913  1.00  0.00     0.107 A 
HETATM   13  C14 UNL     1      22.837   1.904  50.877  1.00  0.00     0.077 A 
HETATM   14  C15 UNL     1      23.960   2.597  50.491  1.00  0.00     0.088 A 
HETATM   15  O1  UNL     1      23.686   3.480  49.429  1.00  0.00    -0.289 OA
HETATM   16  O2  UNL     1      22.067   0.155  52.540  1.00  0.00    -0.323 OA
HETATM   17  C16 UNL     1      22.609  -0.353  53.748  1.00  0.00     0.352 C 
HETATM   18  O3  UNL     1      23.999  -0.160  53.534  1.00  0.00    -0.323 OA
HETATM   19  H5  UNL     1      27.577   4.617  50.161  1.00  0.00     0.160 HD
ENDROOT
BRANCH   1  20
HETATM   20  N1  UNL     1      27.498   6.625  49.360  1.00  0.00    -0.339 N 
HETATM   21  H3  UNL     1      27.936   6.231  50.221  1.00  0.00     0.167 HD
BRANCH  20  22
HETATM   22  C4  UNL     1      28.237   7.506  48.522  1.00  0.00     0.035 A 
HETATM   23  C3  UNL     1      28.668   7.084  47.283  1.00  0.00     0.032 A 
HETATM   24  C2  UNL     1      29.389   7.958  46.473  1.00  0.00     0.046 A 
HETATM   25  C1  UNL     1      29.679   9.244  46.897  1.00  0.00     0.138 A 
HETATM   26  F1  UNL     1      30.387  10.099  46.101  1.00  0.00    -0.204 F 
HETATM   27  C18 UNL     1      29.233   9.645  48.148  1.00  0.00     0.074 A 
HETATM   28  C17 UNL     1      28.520   8.785  48.952  1.00  0.00     0.056 A 
HETATM   29 CL1  UNL     1      29.580  11.277  48.727  1.00  0.00    -0.081 Cl
ENDBRANCH  20  22
ENDBRANCH   1  20
TORSDOF 2
ENDMDL
MODEL 9
REMARK VINA RESULT:      -8.1      5.347      9.291
REMARK  2 active torsions:
REMARK  status: ('A' for Active; 'I' for Inactive)
REMARK    1  A    between atoms: C4_5  and  N1_6 
REMARK    2  A    between atoms: N1_6  and  C5_7 
ROOT
HETATM    1  C5  UNL     1      24.352   3.062  51.480  1.00  0.00     0.160 A 
HETATM    2  N2  UNL     1      24.963   2.087  52.203  1.00  0.00    -0.222 NA
HETATM    3  C6  UNL     1      26.264   1.788  51.933  1.00  0.00     0.238 A 
HETATM    4  N3  UNL     1      26.986   2.410  50.983  1.00  0.00    -0.215 NA
HETATM    5  C7  UNL     1      26.389   3.390  50.249  1.00  0.00     0.202 A 
HETATM    6  C8  UNL     1      25.069   3.717  50.497  1.00  0.00     0.129 A 
HETATM    7  N4  UNL     1      24.346   4.710  49.806  1.00  0.00    -0.379 N 
HETATM    8  C9  UNL     1      24.666   5.731  48.860  1.00  0.00     0.161 C 
HETATM    9  C10 UNL     1      26.079   5.923  48.565  1.00  0.00    -0.004 A 
HETATM   10  C11 UNL     1      26.246   7.158  47.972  1.00  0.00     0.051 A 
HETATM   11  C12 UNL     1      27.449   7.673  47.559  1.00  0.00     0.105 A 
HETATM   12  C13 UNL     1      28.579   6.879  47.759  1.00  0.00     0.107 A 
HETATM   13  C14 UNL     1      28.493   5.633  48.347  1.00  0.00     0.077 A 
HETATM   14  C15 UNL     1      27.245   5.200  48.728  1.00  0.00     0.088 A 
HETATM   15  O1  UNL     1      27.294   3.919  49.312  1.00  0.00    -0.289 OA
HETATM   16  O2  UNL     1      29.657   7.606  47.267  1.00  0.00    -0.323 OA
HETATM   17  C16 UNL     1      29.288   8.956  47.039  1.00  0.00     0.352 C 
HETATM   18  O3  UNL     1      27.875   8.849  46.954  1.00  0.00    -0.323 OA
HETATM   19  H5  UNL     1      23.317   4.738  50.008  1.00  0.00     0.160 HD
ENDROOT
BRANCH   1  20
HETATM   20  N1  UNL     1      22.995   3.432  51.702  1.00  0.00    -0.339 N 
HETATM   21  H3  UNL     1      22.766   4.410  51.980  1.00  0.00     0.167 HD
BRANCH  20  22
HETATM   22  C4  UNL     1      21.957   2.471  51.546  1.00  0.00     0.035 A 
HETATM   23  C3  UNL     1      21.358   2.293  50.317  1.00  0.00     0.032 A 
HETATM   24  C2  UNL     1      20.344   1.349  50.179  1.00  0.00     0.046 A 
HETATM   25  C1  UNL     1      19.929   0.589  51.260  1.00  0.00     0.138 A 
HETATM   26  F1  UNL     1      18.933  -0.337  51.121  1.00  0.00    -0.204 F 
HETATM   27  C18 UNL     1      20.548   0.787  52.485  1.00  0.00     0.074 A 
HETATM   28  C17 UNL     1      21.551   1.718  52.627  1.00  0.00     0.056 A 
HETATM   29 CL1  UNL     1      20.050  -0.163  53.889  1.00  0.00    -0.081 Cl
ENDBRANCH  20  22
ENDBRANCH   1  20
TORSDOF 2
ENDMDL
