MODEL 1
REMARK VINA RESULT:      -8.3      0.000      0.000
REMARK  6 active torsions:
REMARK  status: ('A' for Active; 'I' for Inactive)
REMARK    1  A    between atoms: C2_2  and  N1_3 
REMARK    2  A    between atoms: C2_2  and  C18_25 
REMARK    3  A    between atoms: N1_3  and  C3_4 
REMARK       I    between atoms: N4_15  and  C11_16 
REMARK    4  A    between atoms: C11_16  and  C12_18 
REMARK    5  A    between atoms: C13_19  and  C14_20 
REMARK    6  A    between atoms: C14_20  and  N5_21 
ROOT
HETATM    1  C3  UNL     1      23.526  -0.032  52.967  1.00  0.00     0.139 A 
HETATM    2  N2  UNL     1      22.445  -0.775  53.216  1.00  0.00    -0.224 NA
HETATM    3  C4  UNL     1      21.182  -0.466  53.022  1.00  0.00     0.236 A 
HETATM    4  N3  UNL     1      20.970   0.753  52.508  1.00  0.00    -0.234 NA
HETATM    5  C5  UNL     1      22.023   1.522  52.247  1.00  0.00     0.114 A 
HETATM    6  S1  UNL     1      22.035   3.161  51.571  1.00  0.00    -0.072 SA
HETATM    7  C6  UNL     1      23.798   3.368  51.578  1.00  0.00     0.010 A 
HETATM    8  C7  UNL     1      24.303   2.144  52.110  1.00  0.00    -0.025 A 
HETATM    9  C8  UNL     1      23.353   1.224  52.441  1.00  0.00     0.053 A 
HETATM   10  C9  UNL     1      25.760   2.346  52.107  1.00  0.00     0.060 C 
HETATM   11  C10 UNL     1      26.166   2.673  50.655  1.00  0.00     0.131 C 
HETATM   12  N4  UNL     1      25.771   4.026  50.329  1.00  0.00    -0.344 N 
HETATM   13  C11 UNL     1      26.527   4.607  49.281  1.00  0.00     0.243 C 
HETATM   14  O1  UNL     1      27.292   3.646  49.031  1.00  0.00    -0.268 OA
HETATM   15  C17 UNL     1      24.672   4.519  51.144  1.00  0.00     0.172 C 
ENDROOT
BRANCH   1  16
HETATM   16  N1  UNL     1      24.782  -0.627  53.273  1.00  0.00    -0.366 N 
HETATM   17  H5  UNL     1      25.415  -1.319  52.858  1.00  0.00     0.161 HD
BRANCH  16  18
HETATM   18  C2  UNL     1      25.488  -0.251  54.479  1.00  0.00     0.108 C 
HETATM   19  C1  UNL     1      25.143  -1.058  55.702  1.00  0.00     0.037 C 
BRANCH  18  20
HETATM   20  C18 UNL     1      26.981  -0.314  54.252  1.00  0.00    -0.054 A 
HETATM   21  C19 UNL     1      28.016   0.239  54.863  1.00  0.00     0.005 A 
HETATM   22  C20 UNL     1      29.247  -0.186  54.195  1.00  0.00    -0.003 A 
HETATM   23  C21 UNL     1      28.921  -0.986  53.192  1.00  0.00    -0.022 A 
HETATM   24  C22 UNL     1      27.450  -1.165  53.103  1.00  0.00     0.063 A 
ENDBRANCH  18  20
ENDBRANCH  16  18
ENDBRANCH   1  16
BRANCH  13  25
HETATM   25  C12 UNL     1      26.497   5.909  48.629  1.00  0.00     0.072 C 
HETATM   26  C13 UNL     1      27.312   6.912  48.260  1.00  0.00     0.008 C 
BRANCH  26  27
HETATM   27  C14 UNL     1      26.877   8.152  47.575  1.00  0.00     0.299 C 
BRANCH  27  28
HETATM   28  N5  UNL     1      27.212   9.280  48.422  1.00  0.00     0.083 N 
HETATM   29  C15 UNL     1      26.128   9.603  49.317  1.00  0.00     0.309 C 
HETATM   30  C16 UNL     1      28.394   9.016  49.215  1.00  0.00     0.309 C 
ENDBRANCH  27  28
ENDBRANCH  26  27
ENDBRANCH  13  25
TORSDOF 6
ENDMDL
MODEL 2
REMARK VINA RESULT:      -8.3      3.145      8.659
REMARK  6 active torsions:
REMARK  status: ('A' for Active; 'I' for Inactive)
REMARK    1  A    between atoms: C2_2  and  N1_3 
REMARK    2  A    between atoms: C2_2  and  C18_25 
REMARK    3  A    between atoms: N1_3  and  C3_4 
REMARK       I    between atoms: N4_15  and  C11_16 
REMARK    4  A    between atoms: C11_16  and  C12_18 
REMARK    5  A    between atoms: C13_19  and  C14_20 
REMARK    6  A    between atoms: C14_20  and  N5_21 
ROOT
HETATM    1  C3  UNL     1      25.923   2.445  51.857  1.00  0.00     0.139 A 
HETATM    2  N2  UNL     1      27.207   2.106  51.987  1.00  0.00    -0.224 NA
HETATM    3  C4  UNL     1      27.716   1.056  52.593  1.00  0.00     0.236 A 
HETATM    4  N3  UNL     1      26.816   0.230  53.144  1.00  0.00    -0.234 NA
HETATM    5  C5  UNL     1      25.526   0.535  53.036  1.00  0.00     0.114 A 
HETATM    6  S1  UNL     1      24.135  -0.369  53.661  1.00  0.00    -0.072 SA
HETATM    7  C6  UNL     1      22.887   0.742  53.062  1.00  0.00     0.010 A 
HETATM    8  C7  UNL     1      23.613   1.774  52.396  1.00  0.00    -0.025 A 
HETATM    9  C8  UNL     1      24.969   1.626  52.408  1.00  0.00     0.053 A 
HETATM   10  C9  UNL     1      22.558   2.678  51.914  1.00  0.00     0.060 C 
HETATM   11  C10 UNL     1      21.612   1.836  51.032  1.00  0.00     0.131 C 
HETATM   12  N4  UNL     1      20.791   0.987  51.866  1.00  0.00    -0.344 N 
HETATM   13  C11 UNL     1      19.573   0.592  51.259  1.00  0.00     0.243 C 
HETATM   14  O1  UNL     1      19.702   1.175  50.156  1.00  0.00    -0.268 OA
HETATM   15  C17 UNL     1      21.383   0.706  53.164  1.00  0.00     0.172 C 
ENDROOT
BRANCH   1  16
HETATM   16  N1  UNL     1      25.660   3.646  51.140  1.00  0.00    -0.366 N 
HETATM   17  H5  UNL     1      25.477   4.632  51.353  1.00  0.00     0.161 HD
BRANCH  16  18
HETATM   18  C2  UNL     1      25.604   3.630  49.694  1.00  0.00     0.108 C 
HETATM   19  C1  UNL     1      24.228   3.788  49.104  1.00  0.00     0.037 C 
BRANCH  18  20
HETATM   20  C18 UNL     1      26.511   4.695  49.124  1.00  0.00    -0.054 A 
HETATM   21  C19 UNL     1      27.765   4.688  48.700  1.00  0.00     0.005 A 
HETATM   22  C20 UNL     1      28.122   6.032  48.247  1.00  0.00    -0.003 A 
HETATM   23  C21 UNL     1      27.071   6.820  48.410  1.00  0.00    -0.022 A 
HETATM   24  C22 UNL     1      25.924   6.073  48.984  1.00  0.00     0.063 A 
ENDBRANCH  18  20
ENDBRANCH  16  18
ENDBRANCH   1  16
BRANCH  13  25
HETATM   25  C12 UNL     1      18.457  -0.233  51.700  1.00  0.00     0.072 C 
HETATM   26  C13 UNL     1      18.059  -0.982  52.743  1.00  0.00     0.008 C 
BRANCH  26  27
HETATM   27  C14 UNL     1      16.772  -1.712  52.821  1.00  0.00     0.299 C 
BRANCH  27  28
HETATM   28  N5  UNL     1      15.805  -1.022  51.990  1.00  0.00     0.083 N 
HETATM   29  C15 UNL     1      15.006  -1.952  51.232  1.00  0.00     0.309 C 
HETATM   30  C16 UNL     1      14.917  -0.199  52.784  1.00  0.00     0.309 C 
ENDBRANCH  27  28
ENDBRANCH  26  27
ENDBRANCH  13  25
TORSDOF 6
ENDMDL
MODEL 3
REMARK VINA RESULT:      -8.0      2.578      3.911
REMARK  6 active torsions:
REMARK  status: ('A' for Active; 'I' for Inactive)
REMARK    1  A    between atoms: C2_2  and  N1_3 
REMARK    2  A    between atoms: C2_2  and  C18_25 
REMARK    3  A    between atoms: N1_3  and  C3_4 
REMARK       I    between atoms: N4_15  and  C11_16 
REMARK    4  A    between atoms: C11_16  and  C12_18 
REMARK    5  A    between atoms: C13_19  and  C14_20 
REMARK    6  A    between atoms: C14_20  and  N5_21 
ROOT
HETATM    1  C3  UNL     1      20.614   3.256  51.983  1.00  0.00     0.139 A 
HETATM    2  N2  UNL     1      19.290   3.281  51.816  1.00  0.00    -0.224 NA
HETATM    3  C4  UNL     1      18.580   4.082  51.052  1.00  0.00     0.236 A 
HETATM    4  N3  UNL     1      19.292   4.980  50.358  1.00  0.00    -0.234 NA
HETATM    5  C5  UNL     1      20.614   4.985  50.499  1.00  0.00     0.114 A 
HETATM    6  S1  UNL     1      21.790   6.052  49.710  1.00  0.00    -0.072 SA
HETATM    7  C6  UNL     1      23.235   5.353  50.468  1.00  0.00     0.010 A 
HETATM    8  C7  UNL     1      22.735   4.313  51.307  1.00  0.00    -0.025 A 
HETATM    9  C8  UNL     1      21.380   4.160  51.291  1.00  0.00     0.053 A 
HETATM   10  C9  UNL     1      23.950   3.757  51.922  1.00  0.00     0.060 C 
HETATM   11  C10 UNL     1      24.875   3.313  50.770  1.00  0.00     0.131 C 
HETATM   12  N4  UNL     1      25.473   4.473  50.148  1.00  0.00    -0.344 N 
HETATM   13  C11 UNL     1      26.692   4.201  49.479  1.00  0.00     0.243 C 
HETATM   14  O1  UNL     1      26.773   2.970  49.705  1.00  0.00    -0.268 OA
HETATM   15  C17 UNL     1      24.699   5.690  50.332  1.00  0.00     0.172 C 
ENDROOT
BRANCH   1  16
HETATM   16  N1  UNL     1      21.115   2.270  52.878  1.00  0.00    -0.366 N 
HETATM   17  H5  UNL     1      21.564   2.240  53.800  1.00  0.00     0.161 HD
BRANCH  16  18
HETATM   18  C2  UNL     1      21.041   0.868  52.528  1.00  0.00     0.108 C 
HETATM   19  C1  UNL     1      21.439   0.538  51.115  1.00  0.00     0.037 C 
BRANCH  18  20
HETATM   20  C18 UNL     1      21.877   0.046  53.481  1.00  0.00    -0.054 A 
HETATM   21  C19 UNL     1      21.585  -0.696  54.538  1.00  0.00     0.005 A 
HETATM   22  C20 UNL     1      22.820  -1.267  55.076  1.00  0.00    -0.003 A 
HETATM   23  C21 UNL     1      23.830  -0.853  54.329  1.00  0.00    -0.022 A 
HETATM   24  C22 UNL     1      23.360   0.029  53.230  1.00  0.00     0.063 A 
ENDBRANCH  18  20
ENDBRANCH  16  18
ENDBRANCH   1  16
BRANCH  13  25
HETATM   25  C12 UNL     1      27.631   5.028  48.733  1.00  0.00     0.072 C 
HETATM   26  C13 UNL     1      27.816   6.298  48.334  1.00  0.00     0.008 C 
BRANCH  26  27
HETATM   27  C14 UNL     1      28.970   6.778  47.538  1.00  0.00     0.299 C 
BRANCH  27  28
HETATM   28  N5  UNL     1      29.473   7.992  48.152  1.00  0.00     0.083 N 
HETATM   29  C15 UNL     1      28.471   8.612  48.983  1.00  0.00     0.309 C 
HETATM   30  C16 UNL     1      30.642   7.729  48.965  1.00  0.00     0.309 C 
ENDBRANCH  27  28
ENDBRANCH  26  27
ENDBRANCH  13  25
TORSDOF 6
ENDMDL
MODEL 4
REMARK VINA RESULT:      -7.9      2.005      4.720
REMARK  6 active torsions:
REMARK  status: ('A' for Active; 'I' for Inactive)
REMARK    1  A    between atoms: C2_2  and  N1_3 
REMARK    2  A    between atoms: C2_2  and  C18_25 
REMARK    3  A    between atoms: N1_3  and  C3_4 
REMARK       I    between atoms: N4_15  and  C11_16 
REMARK    4  A    between atoms: C11_16  and  C12_18 
REMARK    5  A    between atoms: C13_19  and  C14_20 
REMARK    6  A    between atoms: C14_20  and  N5_21 
ROOT
HETATM    1  C3  UNL     1      23.732   0.337  53.495  1.00  0.00     0.139 A 
HETATM    2  N2  UNL     1      23.961  -0.514  54.497  1.00  0.00    -0.224 NA
HETATM    3  C4  UNL     1      25.114  -0.968  54.935  1.00  0.00     0.236 A 
HETATM    4  N3  UNL     1      26.188  -0.506  54.282  1.00  0.00    -0.234 NA
HETATM    5  C5  UNL     1      26.001   0.344  53.277  1.00  0.00     0.114 A 
HETATM    6  S1  UNL     1      27.229   1.107  52.250  1.00  0.00    -0.072 SA
HETATM    7  C6  UNL     1      26.100   2.034  51.241  1.00  0.00     0.010 A 
HETATM    8  C7  UNL     1      24.809   1.707  51.752  1.00  0.00    -0.025 A 
HETATM    9  C8  UNL     1      24.806   0.834  52.799  1.00  0.00     0.053 A 
HETATM   10  C9  UNL     1      23.898   2.484  50.898  1.00  0.00     0.060 C 
HETATM   11  C10 UNL     1      24.320   3.963  51.017  1.00  0.00     0.131 C 
HETATM   12  N4  UNL     1      25.540   4.186  50.273  1.00  0.00    -0.344 N 
HETATM   13  C11 UNL     1      25.726   5.531  49.867  1.00  0.00     0.243 C 
HETATM   14  O1  UNL     1      24.685   6.032  50.354  1.00  0.00    -0.268 OA
HETATM   15  C17 UNL     1      26.333   2.981  50.091  1.00  0.00     0.172 C 
ENDROOT
BRANCH   1  16
HETATM   16  N1  UNL     1      22.370   0.659  53.242  1.00  0.00    -0.366 N 
HETATM   17  H5  UNL     1      21.766   1.487  53.282  1.00  0.00     0.161 HD
BRANCH  16  18
HETATM   18  C2  UNL     1      21.454  -0.366  52.793  1.00  0.00     0.108 C 
HETATM   19  C1  UNL     1      20.592  -0.972  53.868  1.00  0.00     0.037 C 
BRANCH  18  20
HETATM   20  C18 UNL     1      20.566   0.170  51.694  1.00  0.00    -0.054 A 
HETATM   21  C19 UNL     1      20.811   0.759  50.534  1.00  0.00     0.005 A 
HETATM   22  C20 UNL     1      19.541   1.065  49.876  1.00  0.00    -0.003 A 
HETATM   23  C21 UNL     1      18.557   0.654  50.659  1.00  0.00    -0.022 A 
HETATM   24  C22 UNL     1      19.082   0.039  51.904  1.00  0.00     0.063 A 
ENDBRANCH  18  20
ENDBRANCH  16  18
ENDBRANCH   1  16
BRANCH  13  25
HETATM   25  C12 UNL     1      26.770   6.213  49.115  1.00  0.00     0.072 C 
HETATM   26  C13 UNL     1      27.815   5.957  48.309  1.00  0.00     0.008 C 
BRANCH  26  27
HETATM   27  C14 UNL     1      28.693   6.986  47.704  1.00  0.00     0.299 C 
BRANCH  27  28
HETATM   28  N5  UNL     1      28.317   8.279  48.243  1.00  0.00     0.083 N 
HETATM   29  C15 UNL     1      29.408   8.880  48.969  1.00  0.00     0.309 C 
HETATM   30  C16 UNL     1      27.909   9.191  47.196  1.00  0.00     0.309 C 
ENDBRANCH  27  28
ENDBRANCH  26  27
ENDBRANCH  13  25
TORSDOF 6
ENDMDL
MODEL 5
REMARK VINA RESULT:      -7.7      1.786      2.380
REMARK  6 active torsions:
REMARK  status: ('A' for Active; 'I' for Inactive)
REMARK    1  A    between atoms: C2_2  and  N1_3 
REMARK    2  A    between atoms: C2_2  and  C18_25 
REMARK    3  A    between atoms: N1_3  and  C3_4 
REMARK       I    between atoms: N4_15  and  C11_16 
REMARK    4  A    between atoms: C11_16  and  C12_18 
REMARK    5  A    between atoms: C13_19  and  C14_20 
REMARK    6  A    between atoms: C14_20  and  N5_21 
ROOT
HETATM    1  C3  UNL     1      22.745   1.558  51.101  1.00  0.00     0.139 A 
HETATM    2  N2  UNL     1      21.502   1.076  51.020  1.00  0.00    -0.224 NA
HETATM    3  C4  UNL     1      20.429   1.667  50.544  1.00  0.00     0.236 A 
HETATM    4  N3  UNL     1      20.624   2.910  50.084  1.00  0.00    -0.234 NA
HETATM    5  C5  UNL     1      21.849   3.424  50.148  1.00  0.00     0.114 A 
HETATM    6  S1  UNL     1      22.388   5.028  49.617  1.00  0.00    -0.072 SA
HETATM    7  C6  UNL     1      24.091   4.829  50.076  1.00  0.00     0.010 A 
HETATM    8  C7  UNL     1      24.166   3.514  50.624  1.00  0.00    -0.025 A 
HETATM    9  C8  UNL     1      22.988   2.828  50.642  1.00  0.00     0.053 A 
HETATM   10  C9  UNL     1      25.582   3.379  50.996  1.00  0.00     0.060 C 
HETATM   11  C10 UNL     1      26.409   3.628  49.718  1.00  0.00     0.131 C 
HETATM   12  N4  UNL     1      26.412   5.040  49.404  1.00  0.00    -0.344 N 
HETATM   13  C11 UNL     1      27.520   5.451  48.620  1.00  0.00     0.243 C 
HETATM   14  O1  UNL     1      28.098   4.345  48.498  1.00  0.00    -0.268 OA
HETATM   15  C17 UNL     1      25.274   5.757  49.956  1.00  0.00     0.172 C 
ENDROOT
BRANCH   1  16
HETATM   16  N1  UNL     1      23.720   0.688  51.664  1.00  0.00    -0.366 N 
HETATM   17  H5  UNL     1      24.389  -0.016  51.334  1.00  0.00     0.161 HD
BRANCH  16  18
HETATM   18  C2  UNL     1      23.949   0.682  53.092  1.00  0.00     0.108 C 
HETATM   19  C1  UNL     1      23.074  -0.259  53.878  1.00  0.00     0.037 C 
BRANCH  18  20
HETATM   20  C18 UNL     1      25.398   0.372  53.389  1.00  0.00    -0.054 A 
HETATM   21  C19 UNL     1      26.121   0.385  54.497  1.00  0.00     0.005 A 
HETATM   22  C20 UNL     1      27.492  -0.014  54.177  1.00  0.00    -0.003 A 
HETATM   23  C21 UNL     1      27.562  -0.258  52.878  1.00  0.00    -0.022 A 
HETATM   24  C22 UNL     1      26.248  -0.044  52.220  1.00  0.00     0.063 A 
ENDBRANCH  18  20
ENDBRANCH  16  18
ENDBRANCH   1  16
BRANCH  13  25
HETATM   25  C12 UNL     1      27.940   6.736  48.078  1.00  0.00     0.072 C 
HETATM   26  C13 UNL     1      28.534   7.883  48.450  1.00  0.00     0.008 C 
BRANCH  26  27
HETATM   27  C14 UNL     1      28.802   9.030  47.552  1.00  0.00     0.299 C 
BRANCH  27  28
HETATM   28  N5  UNL     1      30.083   9.603  47.917  1.00  0.00     0.083 N 
HETATM   29  C15 UNL     1      30.318   9.502  49.335  1.00  0.00     0.309 C 
HETATM   30  C16 UNL     1      31.174   8.947  47.226  1.00  0.00     0.309 C 
ENDBRANCH  27  28
ENDBRANCH  26  27
ENDBRANCH  13  25
TORSDOF 6
ENDMDL
MODEL 6
REMARK VINA RESULT:      -7.5      3.879      8.326
REMARK  6 active torsions:
REMARK  status: ('A' for Active; 'I' for Inactive)
REMARK    1  A    between atoms: C2_2  and  N1_3 
REMARK    2  A    between atoms: C2_2  and  C18_25 
REMARK    3  A    between atoms: N1_3  and  C3_4 
REMARK       I    between atoms: N4_15  and  C11_16 
REMARK    4  A    between atoms: C11_16  and  C12_18 
REMARK    5  A    between atoms: C13_19  and  C14_20 
REMARK    6  A    between atoms: C14_20  and  N5_21 
ROOT
HETATM    1  C3  UNL     1      25.384   3.458  51.117  1.00  0.00     0.139 A 
HETATM    2  N2  UNL     1      26.463   2.675  51.170  1.00  0.00    -0.224 NA
HETATM    3  C4  UNL     1      26.549   1.434  51.596  1.00  0.00     0.236 A 
HETATM    4  N3  UNL     1      25.397   0.903  52.028  1.00  0.00    -0.234 NA
HETATM    5  C5  UNL     1      24.300   1.654  51.991  1.00  0.00     0.114 A 
HETATM    6  S1  UNL     1      22.658   1.211  52.493  1.00  0.00    -0.072 SA
HETATM    7  C6  UNL     1      21.901   2.766  52.095  1.00  0.00     0.010 A 
HETATM    8  C7  UNL     1      22.966   3.567  51.585  1.00  0.00    -0.025 A 
HETATM    9  C8  UNL     1      24.183   2.953  51.551  1.00  0.00     0.053 A 
HETATM   10  C9  UNL     1      22.312   4.845  51.270  1.00  0.00     0.060 C 
HETATM   11  C10 UNL     1      21.166   4.533  50.284  1.00  0.00     0.131 C 
HETATM   12  N4  UNL     1      20.069   3.909  50.990  1.00  0.00    -0.344 N 
HETATM   13  C11 UNL     1      18.814   4.064  50.350  1.00  0.00     0.243 C 
HETATM   14  O1  UNL     1      19.181   4.726  49.350  1.00  0.00    -0.268 OA
HETATM   15  C17 UNL     1      20.476   3.245  52.218  1.00  0.00     0.172 C 
ENDROOT
BRANCH   1  16
HETATM   16  N1  UNL     1      25.584   4.769  50.601  1.00  0.00    -0.366 N 
HETATM   17  H5  UNL     1      25.755   5.711  50.968  1.00  0.00     0.161 HD
BRANCH  16  18
HETATM   18  C2  UNL     1      25.570   4.996  49.172  1.00  0.00     0.108 C 
HETATM   19  C1  UNL     1      24.510   5.946  48.683  1.00  0.00     0.037 C 
BRANCH  18  20
HETATM   20  C18 UNL     1      26.923   5.484  48.707  1.00  0.00    -0.054 A 
HETATM   21  C19 UNL     1      28.105   4.902  48.583  1.00  0.00     0.005 A 
HETATM   22  C20 UNL     1      29.067   5.880  48.075  1.00  0.00    -0.003 A 
HETATM   23  C21 UNL     1      28.439   7.033  47.905  1.00  0.00    -0.022 A 
HETATM   24  C22 UNL     1      27.007   6.925  48.284  1.00  0.00     0.063 A 
ENDBRANCH  18  20
ENDBRANCH  16  18
ENDBRANCH   1  16
BRANCH  13  25
HETATM   25  C12 UNL     1      17.464   3.626  50.677  1.00  0.00     0.072 C 
HETATM   26  C13 UNL     1      16.715   3.241  51.724  1.00  0.00     0.008 C 
BRANCH  26  27
HETATM   27  C14 UNL     1      15.289   2.847  51.649  1.00  0.00     0.299 C 
BRANCH  27  28
HETATM   28  N5  UNL     1      14.715   2.960  52.976  1.00  0.00     0.083 N 
HETATM   29  C15 UNL     1      14.831   4.305  53.484  1.00  0.00     0.309 C 
HETATM   30  C16 UNL     1      13.315   2.590  52.981  1.00  0.00     0.309 C 
ENDBRANCH  27  28
ENDBRANCH  26  27
ENDBRANCH  13  25
TORSDOF 6
ENDMDL
MODEL 7
REMARK VINA RESULT:      -7.4      3.622      8.375
REMARK  6 active torsions:
REMARK  status: ('A' for Active; 'I' for Inactive)
REMARK    1  A    between atoms: C2_2  and  N1_3 
REMARK    2  A    between atoms: C2_2  and  C18_25 
REMARK    3  A    between atoms: N1_3  and  C3_4 
REMARK       I    between atoms: N4_15  and  C11_16 
REMARK    4  A    between atoms: C11_16  and  C12_18 
REMARK    5  A    between atoms: C13_19  and  C14_20 
REMARK    6  A    between atoms: C14_20  and  N5_21 
ROOT
HETATM    1  C3  UNL     1      23.899   4.241  51.577  1.00  0.00     0.139 A 
HETATM    2  N2  UNL     1      24.190   5.535  51.422  1.00  0.00    -0.224 NA
HETATM    3  C4  UNL     1      23.405   6.502  51.004  1.00  0.00     0.236 A 
HETATM    4  N3  UNL     1      22.156   6.126  50.699  1.00  0.00    -0.234 NA
HETATM    5  C5  UNL     1      21.829   4.845  50.841  1.00  0.00     0.114 A 
HETATM    6  S1  UNL     1      20.264   4.078  50.516  1.00  0.00    -0.072 SA
HETATM    7  C6  UNL     1      20.749   2.432  50.971  1.00  0.00     0.010 A 
HETATM    8  C7  UNL     1      22.116   2.553  51.359  1.00  0.00    -0.025 A 
HETATM    9  C8  UNL     1      22.630   3.814  51.276  1.00  0.00     0.053 A 
HETATM   10  C9  UNL     1      22.490   1.179  51.726  1.00  0.00     0.060 C 
HETATM   11  C10 UNL     1      21.510   0.725  52.829  1.00  0.00     0.131 C 
HETATM   12  N4  UNL     1      20.218   0.438  52.246  1.00  0.00    -0.344 N 
HETATM   13  C11 UNL     1      19.432  -0.460  53.010  1.00  0.00     0.243 C 
HETATM   14  O1  UNL     1      20.226  -0.662  53.960  1.00  0.00    -0.268 OA
HETATM   15  C17 UNL     1      19.982   1.133  50.991  1.00  0.00     0.172 C 
ENDROOT
BRANCH   1  16
HETATM   16  N1  UNL     1      24.952   3.413  52.055  1.00  0.00    -0.366 N 
HETATM   17  H5  UNL     1      25.402   3.199  52.952  1.00  0.00     0.161 HD
BRANCH  16  18
HETATM   18  C2  UNL     1      25.690   2.575  51.135  1.00  0.00     0.108 C 
HETATM   19  C1  UNL     1      26.589   3.311  50.178  1.00  0.00     0.037 C 
BRANCH  18  20
HETATM   20  C18 UNL     1      26.508   1.557  51.896  1.00  0.00    -0.054 A 
HETATM   21  C19 UNL     1      26.492   0.234  51.947  1.00  0.00     0.005 A 
HETATM   22  C20 UNL     1      27.531  -0.220  52.872  1.00  0.00    -0.003 A 
HETATM   23  C21 UNL     1      28.150   0.845  53.358  1.00  0.00    -0.022 A 
HETATM   24  C22 UNL     1      27.580   2.098  52.803  1.00  0.00     0.063 A 
ENDBRANCH  18  20
ENDBRANCH  16  18
ENDBRANCH   1  16
BRANCH  13  25
HETATM   25  C12 UNL     1      18.104  -1.031  52.829  1.00  0.00     0.072 C 
HETATM   26  C13 UNL     1      16.876  -0.702  52.393  1.00  0.00     0.008 C 
BRANCH  26  27
HETATM   27  C14 UNL     1      15.712  -1.617  52.365  1.00  0.00     0.299 C 
BRANCH  27  28
HETATM   28  N5  UNL     1      14.523  -0.851  52.686  1.00  0.00     0.083 N 
HETATM   29  C15 UNL     1      14.789   0.565  52.661  1.00  0.00     0.309 C 
HETATM   30  C16 UNL     1      13.446  -1.130  51.759  1.00  0.00     0.309 C 
ENDBRANCH  27  28
ENDBRANCH  26  27
ENDBRANCH  13  25
TORSDOF 6
ENDMDL
MODEL 8
REMARK VINA RESULT:      -7.3      3.593      8.835
REMARK  6 active torsions:
REMARK  status: ('A' for Active; 'I' for Inactive)
REMARK    1  A    between atoms: C2_2  and  N1_3 
REMARK    2  A    between atoms: C2_2  and  C18_25 
REMARK    3  A    between atoms: N1_3  and  C3_4 
REMARK       I    between atoms: N4_15  and  C11_16 
REMARK    4  A    between atoms: C11_16  and  C12_18 
REMARK    5  A    between atoms: C13_19  and  C14_20 
REMARK    6  A    between atoms: C14_20  and  N5_21 
ROOT
HETATM    1  C3  UNL     1      25.567   2.508  52.187  1.00  0.00     0.139 A 
HETATM    2  N2  UNL     1      26.861   2.191  52.261  1.00  0.00    -0.224 NA
HETATM    3  C4  UNL     1      27.405   1.090  52.728  1.00  0.00     0.236 A 
HETATM    4  N3  UNL     1      26.536   0.178  53.183  1.00  0.00    -0.234 NA
HETATM    5  C5  UNL     1      25.237   0.458  53.126  1.00  0.00     0.114 A 
HETATM    6  S1  UNL     1      23.879  -0.554  53.651  1.00  0.00    -0.072 SA
HETATM    7  C6  UNL     1      22.594   0.587  53.206  1.00  0.00     0.010 A 
HETATM    8  C7  UNL     1      23.283   1.713  52.664  1.00  0.00    -0.025 A 
HETATM    9  C8  UNL     1      24.642   1.602  52.644  1.00  0.00     0.053 A 
HETATM   10  C9  UNL     1      22.198   2.639  52.309  1.00  0.00     0.060 C 
HETATM   11  C10 UNL     1      21.262   1.886  51.340  1.00  0.00     0.131 C 
HETATM   12  N4  UNL     1      20.476   0.918  52.072  1.00  0.00    -0.344 N 
HETATM   13  C11 UNL     1      19.260   0.567  51.434  1.00  0.00     0.243 C 
HETATM   14  O1  UNL     1      19.358   1.285  50.410  1.00  0.00    -0.268 OA
HETATM   15  C17 UNL     1      21.093   0.497  53.319  1.00  0.00     0.172 C 
ENDROOT
BRANCH   1  16
HETATM   16  N1  UNL     1      25.262   3.780  51.627  1.00  0.00    -0.366 N 
HETATM   17  H5  UNL     1      24.849   4.666  51.936  1.00  0.00     0.161 HD
BRANCH  16  18
HETATM   18  C2  UNL     1      25.563   4.051  50.238  1.00  0.00     0.108 C 
HETATM   19  C1  UNL     1      26.435   3.029  49.559  1.00  0.00     0.037 C 
BRANCH  18  20
HETATM   20  C18 UNL     1      24.285   4.213  49.447  1.00  0.00    -0.054 A 
HETATM   21  C19 UNL     1      23.546   5.261  49.119  1.00  0.00     0.005 A 
HETATM   22  C20 UNL     1      22.401   4.808  48.330  1.00  0.00    -0.003 A 
HETATM   23  C21 UNL     1      22.477   3.493  48.201  1.00  0.00    -0.022 A 
HETATM   24  C22 UNL     1      23.676   2.954  48.892  1.00  0.00     0.063 A 
ENDBRANCH  18  20
ENDBRANCH  16  18
ENDBRANCH   1  16
BRANCH  13  25
HETATM   25  C12 UNL     1      18.172  -0.336  51.782  1.00  0.00     0.072 C 
HETATM   26  C13 UNL     1      16.841  -0.471  51.646  1.00  0.00     0.008 C 
BRANCH  26  27
HETATM   27  C14 UNL     1      16.044  -1.602  52.174  1.00  0.00     0.299 C 
BRANCH  27  28
HETATM   28  N5  UNL     1      14.716  -1.114  52.493  1.00  0.00     0.083 N 
HETATM   29  C15 UNL     1      14.755   0.257  52.936  1.00  0.00     0.309 C 
HETATM   30  C16 UNL     1      13.832  -1.199  51.349  1.00  0.00     0.309 C 
ENDBRANCH  27  28
ENDBRANCH  26  27
ENDBRANCH  13  25
TORSDOF 6
ENDMDL
MODEL 9
REMARK VINA RESULT:      -7.3      2.973      4.403
REMARK  6 active torsions:
REMARK  status: ('A' for Active; 'I' for Inactive)
REMARK    1  A    between atoms: C2_2  and  N1_3 
REMARK    2  A    between atoms: C2_2  and  C18_25 
REMARK    3  A    between atoms: N1_3  and  C3_4 
REMARK       I    between atoms: N4_15  and  C11_16 
REMARK    4  A    between atoms: C11_16  and  C12_18 
REMARK    5  A    between atoms: C13_19  and  C14_20 
REMARK    6  A    between atoms: C14_20  and  N5_21 
ROOT
HETATM    1  C3  UNL     1      22.839   3.089  49.400  1.00  0.00     0.139 A 
HETATM    2  N2  UNL     1      21.588   2.825  49.014  1.00  0.00    -0.224 NA
HETATM    3  C4  UNL     1      20.783   3.572  48.291  1.00  0.00     0.236 A 
HETATM    4  N3  UNL     1      21.300   4.744  47.898  1.00  0.00    -0.234 NA
HETATM    5  C5  UNL     1      22.544   5.042  48.263  1.00  0.00     0.114 A 
HETATM    6  S1  UNL     1      23.469   6.507  47.887  1.00  0.00    -0.072 SA
HETATM    7  C6  UNL     1      24.948   6.037  48.749  1.00  0.00     0.010 A 
HETATM    8  C7  UNL     1      24.655   4.751  49.294  1.00  0.00    -0.025 A 
HETATM    9  C8  UNL     1      23.406   4.279  49.019  1.00  0.00     0.053 A 
HETATM   10  C9  UNL     1      25.893   4.390  50.001  1.00  0.00     0.060 C 
HETATM   11  C10 UNL     1      27.035   4.443  48.965  1.00  0.00     0.131 C 
HETATM   12  N4  UNL     1      27.363   5.820  48.668  1.00  0.00    -0.344 N 
HETATM   13  C11 UNL     1      28.681   6.003  48.181  1.00  0.00     0.243 C 
HETATM   14  O1  UNL     1      29.068   4.810  48.200  1.00  0.00    -0.268 OA
HETATM   15  C17 UNL     1      26.270   6.743  48.926  1.00  0.00     0.172 C 
ENDROOT
BRANCH   1  16
HETATM   16  N1  UNL     1      23.480   2.087  50.181  1.00  0.00    -0.366 N 
HETATM   17  H5  UNL     1      23.929   1.178  50.028  1.00  0.00     0.161 HD
BRANCH  16  18
HETATM   18  C2  UNL     1      23.613   2.258  51.611  1.00  0.00     0.108 C 
HETATM   19  C1  UNL     1      22.317   2.310  52.375  1.00  0.00     0.037 C 
BRANCH  18  20
HETATM   20  C18 UNL     1      24.483   1.165  52.189  1.00  0.00    -0.054 A 
HETATM   21  C19 UNL     1      24.246   0.156  53.012  1.00  0.00     0.005 A 
HETATM   22  C20 UNL     1      25.488  -0.587  53.224  1.00  0.00    -0.003 A 
HETATM   23  C21 UNL     1      26.448  -0.005  52.523  1.00  0.00    -0.022 A 
HETATM   24  C22 UNL     1      25.932   1.175  51.783  1.00  0.00     0.063 A 
ENDBRANCH  18  20
ENDBRANCH  16  18
ENDBRANCH   1  16
BRANCH  13  25
HETATM   25  C12 UNL     1      29.440   7.174  47.764  1.00  0.00     0.072 C 
HETATM   26  C13 UNL     1      30.409   8.000  48.196  1.00  0.00     0.008 C 
BRANCH  26  27
HETATM   27  C14 UNL     1      30.944   9.152  47.435  1.00  0.00     0.299 C 
BRANCH  27  28
HETATM   28  N5  UNL     1      32.313   9.379  47.855  1.00  0.00     0.083 N 
HETATM   29  C15 UNL     1      33.008   8.134  48.070  1.00  0.00     0.309 C 
HETATM   30  C16 UNL     1      33.049  10.147  46.872  1.00  0.00     0.309 C 
ENDBRANCH  27  28
ENDBRANCH  26  27
ENDBRANCH  13  25
TORSDOF 6
ENDMDL
