MODEL 1
REMARK VINA RESULT:     -10.0      0.000      0.000
REMARK  0 active torsions:
REMARK  status: ('A' for Active; 'I' for Inactive)
ROOT
HETATM    1 CL1  UNL     1      19.587   0.663  51.102  1.00  0.00    -0.084 Cl
HETATM    2  C1  UNL     1      20.686   1.391  49.975  1.00  0.00     0.042 A 
HETATM    3  C2  UNL     1      20.657   1.357  48.614  1.00  0.00     0.024 A 
HETATM    4  C3  UNL     1      21.595   1.980  47.832  1.00  0.00     0.002 A 
HETATM    5  C4  UNL     1      22.583   2.650  48.525  1.00  0.00     0.008 A 
HETATM    6  C5  UNL     1      22.753   2.777  49.924  1.00  0.00    -0.049 A 
HETATM    7  C6  UNL     1      21.660   2.051  50.632  1.00  0.00    -0.017 A 
HETATM    8  C7  UNL     1      21.806   2.197  52.135  1.00  0.00     0.095 C 
HETATM    9  C8  UNL     1      23.173   2.774  51.975  1.00  0.00    -0.015 C 
HETATM   10  C9  UNL     1      23.889   1.611  51.794  1.00  0.00    -0.023 C 
HETATM   11  C10 UNL     1      25.193   2.202  51.638  1.00  0.00     0.031 A 
HETATM   12  C11 UNL     1      26.032   3.177  51.444  1.00  0.00     0.010 A 
HETATM   13  C12 UNL     1      27.168   2.209  51.684  1.00  0.00    -0.016 C 
HETATM   14  C13 UNL     1      26.961   0.962  52.094  1.00  0.00    -0.005 C 
HETATM   15  C14 UNL     1      26.531  -0.342  52.537  1.00  0.00     0.108 C 
HETATM   16  C15 UNL     1      27.736  -1.048  53.204  1.00  0.00     0.031 C 
HETATM   17  C16 UNL     1      27.897  -0.142  54.414  1.00  0.00     0.022 C 
HETATM   18  C17 UNL     1      26.474  -0.134  54.957  1.00  0.00     0.125 C 
HETATM   19  N1  UNL     1      25.658  -0.289  53.788  1.00  0.00    -0.358 N 
HETATM   20  C18 UNL     1      24.193  -0.376  54.042  1.00  0.00     0.129 C 
HETATM   21  C19 UNL     1      23.123   0.328  53.533  1.00  0.00     0.078 C 
HETATM   22  C20 UNL     1      22.036   1.042  53.016  1.00  0.00     0.051 C 
HETATM   23  N2  UNL     1      21.325   0.130  53.656  1.00  0.00    -0.233 NA
HETATM   24  P1  UNL     1      21.828  -1.164  54.582  1.00  0.00     0.210 P 
HETATM   25  N3  UNL     1      23.511  -1.309  54.701  1.00  0.00    -0.212 NA
HETATM   26  O1  UNL     1      24.716   3.689  51.287  1.00  0.00     0.000 OA
HETATM   27  C21 UNL     1      23.982   3.582  50.078  1.00  0.00     0.043 C 
ENDROOT
TORSDOF 0
ENDMDL
MODEL 2
REMARK VINA RESULT:      -8.9      3.290      6.521
REMARK  0 active torsions:
REMARK  status: ('A' for Active; 'I' for Inactive)
ROOT
HETATM    1 CL1  UNL     1      26.792   2.573  51.516  1.00  0.00    -0.084 Cl
HETATM    2  C1  UNL     1      26.298   1.019  52.106  1.00  0.00     0.042 A 
HETATM    3  C2  UNL     1      26.917  -0.185  51.957  1.00  0.00     0.024 A 
HETATM    4  C3  UNL     1      26.416  -1.350  52.477  1.00  0.00     0.002 A 
HETATM    5  C4  UNL     1      25.230  -1.220  53.169  1.00  0.00     0.008 A 
HETATM    6  C5  UNL     1      24.468  -0.053  53.410  1.00  0.00    -0.049 A 
HETATM    7  C6  UNL     1      25.140   1.123  52.785  1.00  0.00    -0.017 A 
HETATM    8  C7  UNL     1      24.354   2.394  53.054  1.00  0.00     0.095 C 
HETATM    9  C8  UNL     1      23.197   1.604  53.567  1.00  0.00    -0.015 C 
HETATM   10  C9  UNL     1      22.624   1.237  52.370  1.00  0.00    -0.023 C 
HETATM   11  C10 UNL     1      21.522   0.477  52.899  1.00  0.00     0.031 A 
HETATM   12  C11 UNL     1      20.857  -0.151  53.823  1.00  0.00     0.010 A 
HETATM   13  C12 UNL     1      19.724  -0.340  52.840  1.00  0.00    -0.016 C 
HETATM   14  C13 UNL     1      19.724   0.232  51.641  1.00  0.00    -0.005 C 
HETATM   15  C14 UNL     1      19.911   0.936  50.396  1.00  0.00     0.108 C 
HETATM   16  C15 UNL     1      18.531   1.076  49.707  1.00  0.00     0.031 C 
HETATM   17  C16 UNL     1      17.865   2.007  50.708  1.00  0.00     0.022 C 
HETATM   18  C17 UNL     1      18.909   3.111  50.812  1.00  0.00     0.125 C 
HETATM   19  N1  UNL     1      20.152   2.432  50.586  1.00  0.00    -0.358 N 
HETATM   20  C18 UNL     1      21.359   3.304  50.573  1.00  0.00     0.129 C 
HETATM   21  C19 UNL     1      22.549   3.247  51.267  1.00  0.00     0.078 C 
HETATM   22  C20 UNL     1      23.757   3.189  51.972  1.00  0.00     0.051 C 
HETATM   23  N2  UNL     1      24.112   4.156  51.143  1.00  0.00    -0.233 NA
HETATM   24  P1  UNL     1      23.248   4.887  49.916  1.00  0.00     0.210 P 
HETATM   25  N3  UNL     1      21.681   4.276  49.724  1.00  0.00    -0.212 NA
HETATM   26  O1  UNL     1      22.113   0.232  54.366  1.00  0.00     0.000 OA
HETATM   27  C21 UNL     1      23.299  -0.522  54.181  1.00  0.00     0.043 C 
ENDROOT
TORSDOF 0
ENDMDL
MODEL 3
REMARK VINA RESULT:      -8.8      2.855      4.867
REMARK  0 active torsions:
REMARK  status: ('A' for Active; 'I' for Inactive)
ROOT
HETATM    1 CL1  UNL     1      25.609   5.607  49.959  1.00  0.00    -0.084 Cl
HETATM    2  C1  UNL     1      23.919   5.704  49.582  1.00  0.00     0.042 A 
HETATM    3  C2  UNL     1      23.126   6.808  49.504  1.00  0.00     0.024 A 
HETATM    4  C3  UNL     1      21.792   6.748  49.194  1.00  0.00     0.002 A 
HETATM    5  C4  UNL     1      21.301   5.480  48.964  1.00  0.00     0.008 A 
HETATM    6  C5  UNL     1      21.987   4.243  49.006  1.00  0.00    -0.049 A 
HETATM    7  C6  UNL     1      23.419   4.474  49.353  1.00  0.00    -0.017 A 
HETATM    8  C7  UNL     1      24.183   3.163  49.377  1.00  0.00     0.095 C 
HETATM    9  C8  UNL     1      22.911   2.387  49.305  1.00  0.00    -0.015 C 
HETATM   10  C9  UNL     1      22.532   2.449  50.628  1.00  0.00    -0.023 C 
HETATM   11  C10 UNL     1      21.307   1.700  50.521  1.00  0.00     0.031 A 
HETATM   12  C11 UNL     1      20.320   1.135  49.890  1.00  0.00     0.010 A 
HETATM   13  C12 UNL     1      19.832   0.580  51.208  1.00  0.00    -0.016 C 
HETATM   14  C13 UNL     1      20.533   0.701  52.331  1.00  0.00    -0.005 C 
HETATM   15  C14 UNL     1      21.438   0.933  53.430  1.00  0.00     0.108 C 
HETATM   16  C15 UNL     1      21.094  -0.068  54.560  1.00  0.00     0.031 C 
HETATM   17  C16 UNL     1      21.488  -1.357  53.857  1.00  0.00     0.022 C 
HETATM   18  C17 UNL     1      22.896  -1.010  53.392  1.00  0.00     0.125 C 
HETATM   19  N1  UNL     1      22.846   0.405  53.166  1.00  0.00    -0.358 N 
HETATM   20  C18 UNL     1      24.133   1.029  52.753  1.00  0.00     0.129 C 
HETATM   21  C19 UNL     1      24.472   1.832  51.685  1.00  0.00     0.078 C 
HETATM   22  C20 UNL     1      24.815   2.647  50.600  1.00  0.00     0.051 C 
HETATM   23  N2  UNL     1      25.960   2.771  51.250  1.00  0.00    -0.233 NA
HETATM   24  P1  UNL     1      26.445   2.106  52.702  1.00  0.00     0.210 P 
HETATM   25  N3  UNL     1      25.272   1.129  53.434  1.00  0.00    -0.212 NA
HETATM   26  O1  UNL     1      21.103   1.843  48.939  1.00  0.00     0.000 OA
HETATM   27  C21 UNL     1      20.956   3.233  48.695  1.00  0.00     0.043 C 
ENDROOT
TORSDOF 0
ENDMDL
MODEL 4
REMARK VINA RESULT:      -8.6      3.590      6.046
REMARK  0 active torsions:
REMARK  status: ('A' for Active; 'I' for Inactive)
ROOT
HETATM    1 CL1  UNL     1      18.579  -0.517  51.951  1.00  0.00    -0.084 Cl
HETATM    2  C1  UNL     1      20.070  -0.318  52.812  1.00  0.00     0.042 A 
HETATM    3  C2  UNL     1      20.356  -0.634  54.106  1.00  0.00     0.024 A 
HETATM    4  C3  UNL     1      21.587  -0.423  54.671  1.00  0.00     0.002 A 
HETATM    5  C4  UNL     1      22.527   0.138  53.832  1.00  0.00     0.008 A 
HETATM    6  C5  UNL     1      22.390   0.522  52.478  1.00  0.00    -0.049 A 
HETATM    7  C6  UNL     1      21.004   0.230  52.010  1.00  0.00    -0.017 A 
HETATM    8  C7  UNL     1      20.841   0.608  50.550  1.00  0.00     0.095 C 
HETATM    9  C8  UNL     1      22.148   1.326  50.560  1.00  0.00    -0.015 C 
HETATM   10  C9  UNL     1      21.752   2.510  51.142  1.00  0.00    -0.023 C 
HETATM   11  C10 UNL     1      23.031   3.172  51.140  1.00  0.00     0.031 A 
HETATM   12  C11 UNL     1      24.325   3.240  51.032  1.00  0.00     0.010 A 
HETATM   13  C12 UNL     1      24.229   4.742  51.167  1.00  0.00    -0.016 C 
HETATM   14  C13 UNL     1      23.062   5.379  51.186  1.00  0.00    -0.005 C 
HETATM   15  C14 UNL     1      21.709   5.878  51.184  1.00  0.00     0.108 C 
HETATM   16  C15 UNL     1      21.750   7.385  50.832  1.00  0.00     0.031 C 
HETATM   17  C16 UNL     1      22.240   7.277  49.398  1.00  0.00     0.022 C 
HETATM   18  C17 UNL     1      21.247   6.270  48.831  1.00  0.00     0.125 C 
HETATM   19  N1  UNL     1      20.914   5.444  49.954  1.00  0.00    -0.358 N 
HETATM   20  C18 UNL     1      19.895   4.392  49.690  1.00  0.00     0.129 C 
HETATM   21  C19 UNL     1      19.896   3.029  49.899  1.00  0.00     0.078 C 
HETATM   22  C20 UNL     1      19.897   1.645  50.110  1.00  0.00     0.051 C 
HETATM   23  N2  UNL     1      18.620   1.746  49.782  1.00  0.00    -0.233 NA
HETATM   24  P1  UNL     1      17.727   3.090  49.355  1.00  0.00     0.210 P 
HETATM   25  N3  UNL     1      18.615   4.531  49.353  1.00  0.00    -0.212 NA
HETATM   26  O1  UNL     1      23.947   1.872  50.962  1.00  0.00     0.000 OA
HETATM   27  C21 UNL     1      23.710   1.074  52.110  1.00  0.00     0.043 C 
ENDROOT
TORSDOF 0
ENDMDL
MODEL 5
REMARK VINA RESULT:      -8.6      3.849      6.300
REMARK  0 active torsions:
REMARK  status: ('A' for Active; 'I' for Inactive)
ROOT
HETATM    1 CL1  UNL     1      24.461   6.911  49.333  1.00  0.00    -0.084 Cl
HETATM    2  C1  UNL     1      25.242   5.401  49.676  1.00  0.00     0.042 A 
HETATM    3  C2  UNL     1      26.306   4.830  49.047  1.00  0.00     0.024 A 
HETATM    4  C3  UNL     1      26.831   3.620  49.419  1.00  0.00     0.002 A 
HETATM    5  C4  UNL     1      26.202   3.012  50.485  1.00  0.00     0.008 A 
HETATM    6  C5  UNL     1      25.094   3.468  51.238  1.00  0.00    -0.049 A 
HETATM    7  C6  UNL     1      24.641   4.789  50.715  1.00  0.00    -0.017 A 
HETATM    8  C7  UNL     1      23.470   5.313  51.526  1.00  0.00     0.095 C 
HETATM    9  C8  UNL     1      23.312   3.994  52.204  1.00  0.00    -0.015 C 
HETATM   10  C9  UNL     1      22.620   3.317  51.225  1.00  0.00    -0.023 C 
HETATM   11  C10 UNL     1      22.491   2.055  51.906  1.00  0.00     0.031 A 
HETATM   12  C11 UNL     1      22.760   1.178  52.828  1.00  0.00     0.010 A 
HETATM   13  C12 UNL     1      21.658   0.303  52.277  1.00  0.00    -0.016 C 
HETATM   14  C13 UNL     1      20.835   0.718  51.320  1.00  0.00    -0.005 C 
HETATM   15  C14 UNL     1      20.051   1.350  50.287  1.00  0.00     0.108 C 
HETATM   16  C15 UNL     1      18.708   0.590  50.166  1.00  0.00     0.031 C 
HETATM   17  C16 UNL     1      18.117   0.942  51.522  1.00  0.00     0.022 C 
HETATM   18  C17 UNL     1      18.271   2.457  51.518  1.00  0.00     0.125 C 
HETATM   19  N1  UNL     1      19.447   2.682  50.728  1.00  0.00    -0.358 N 
HETATM   20  C18 UNL     1      19.800   4.111  50.506  1.00  0.00     0.129 C 
HETATM   21  C19 UNL     1      20.963   4.820  50.717  1.00  0.00     0.078 C 
HETATM   22  C20 UNL     1      22.145   5.540  50.932  1.00  0.00     0.051 C 
HETATM   23  N2  UNL     1      21.502   6.495  50.282  1.00  0.00    -0.233 NA
HETATM   24  P1  UNL     1      19.965   6.502  49.632  1.00  0.00     0.210 P 
HETATM   25  N3  UNL     1      19.122   5.050  49.851  1.00  0.00    -0.212 NA
HETATM   26  O1  UNL     1      23.657   2.270  52.982  1.00  0.00     0.000 OA
HETATM   27  C21 UNL     1      24.852   2.402  52.231  1.00  0.00     0.043 C 
ENDROOT
TORSDOF 0
ENDMDL
MODEL 6
REMARK VINA RESULT:      -8.4      3.035      4.099
REMARK  0 active torsions:
REMARK  status: ('A' for Active; 'I' for Inactive)
ROOT
HETATM    1 CL1  UNL     1      19.278   5.164  48.482  1.00  0.00    -0.084 Cl
HETATM    2  C1  UNL     1      21.009   5.245  48.529  1.00  0.00     0.042 A 
HETATM    3  C2  UNL     1      21.882   5.403  47.496  1.00  0.00     0.024 A 
HETATM    4  C3  UNL     1      23.241   5.450  47.668  1.00  0.00     0.002 A 
HETATM    5  C4  UNL     1      23.670   5.324  48.974  1.00  0.00     0.008 A 
HETATM    6  C5  UNL     1      22.898   5.153  50.147  1.00  0.00    -0.049 A 
HETATM    7  C6  UNL     1      21.449   5.123  49.796  1.00  0.00    -0.017 A 
HETATM    8  C7  UNL     1      20.599   4.969  51.044  1.00  0.00     0.095 C 
HETATM    9  C8  UNL     1      21.806   4.652  51.862  1.00  0.00    -0.015 C 
HETATM   10  C9  UNL     1      21.961   3.324  51.532  1.00  0.00    -0.023 C 
HETATM   11  C10 UNL     1      23.129   3.054  52.329  1.00  0.00     0.031 A 
HETATM   12  C11 UNL     1      24.164   3.369  53.051  1.00  0.00     0.010 A 
HETATM   13  C12 UNL     1      24.382   1.899  53.328  1.00  0.00    -0.016 C 
HETATM   14  C13 UNL     1      23.514   0.970  52.945  1.00  0.00    -0.005 C 
HETATM   15  C14 UNL     1      22.457   0.121  52.450  1.00  0.00     0.108 C 
HETATM   16  C15 UNL     1      22.533  -1.232  53.198  1.00  0.00     0.031 C 
HETATM   17  C16 UNL     1      22.170  -0.750  54.593  1.00  0.00     0.022 C 
HETATM   18  C17 UNL     1      20.889   0.022  54.304  1.00  0.00     0.125 C 
HETATM   19  N1  UNL     1      21.078   0.519  52.972  1.00  0.00    -0.358 N 
HETATM   20  C18 UNL     1      19.927   1.275  52.406  1.00  0.00     0.129 C 
HETATM   21  C19 UNL     1      19.832   2.527  51.839  1.00  0.00     0.078 C 
HETATM   22  C20 UNL     1      19.735   3.800  51.263  1.00  0.00     0.051 C 
HETATM   23  N2  UNL     1      18.510   3.405  50.962  1.00  0.00    -0.233 NA
HETATM   24  P1  UNL     1      17.741   1.958  51.282  1.00  0.00     0.210 P 
HETATM   25  N3  UNL     1      18.701   0.844  52.122  1.00  0.00    -0.212 NA
HETATM   26  O1  UNL     1      23.604   4.569  52.535  1.00  0.00     0.000 OA
HETATM   27  C21 UNL     1      23.891   5.061  51.237  1.00  0.00     0.043 C 
ENDROOT
TORSDOF 0
ENDMDL
MODEL 7
REMARK VINA RESULT:      -8.3      3.376      4.651
REMARK  0 active torsions:
REMARK  status: ('A' for Active; 'I' for Inactive)
ROOT
HETATM    1 CL1  UNL     1      20.015   5.329  48.723  1.00  0.00    -0.084 Cl
HETATM    2  C1  UNL     1      19.331   4.234  49.880  1.00  0.00     0.042 A 
HETATM    3  C2  UNL     1      18.244   4.410  50.681  1.00  0.00     0.024 A 
HETATM    4  C3  UNL     1      17.804   3.457  51.562  1.00  0.00     0.002 A 
HETATM    5  C4  UNL     1      18.544   2.294  51.584  1.00  0.00     0.008 A 
HETATM    6  C5  UNL     1      19.690   1.958  50.824  1.00  0.00    -0.049 A 
HETATM    7  C6  UNL     1      20.041   3.089  49.918  1.00  0.00    -0.017 A 
HETATM    8  C7  UNL     1      21.251   2.741  49.071  1.00  0.00     0.095 C 
HETATM    9  C8  UNL     1      21.521   1.532  49.902  1.00  0.00    -0.015 C 
HETATM   10  C9  UNL     1      22.158   2.127  50.968  1.00  0.00    -0.023 C 
HETATM   11  C10 UNL     1      22.398   0.940  51.747  1.00  0.00     0.031 A 
HETATM   12  C11 UNL     1      22.243  -0.310  52.072  1.00  0.00     0.010 A 
HETATM   13  C12 UNL     1      23.333  -0.146  53.106  1.00  0.00    -0.016 C 
HETATM   14  C13 UNL     1      24.055   0.965  53.204  1.00  0.00    -0.005 C 
HETATM   15  C14 UNL     1      24.724   2.242  53.148  1.00  0.00     0.108 C 
HETATM   16  C15 UNL     1      26.084   2.108  53.875  1.00  0.00     0.031 C 
HETATM   17  C16 UNL     1      26.768   1.147  52.916  1.00  0.00     0.022 C 
HETATM   18  C17 UNL     1      26.549   1.863  51.590  1.00  0.00     0.125 C 
HETATM   19  N1  UNL     1      25.304   2.551  51.770  1.00  0.00    -0.358 N 
HETATM   20  C18 UNL     1      24.873   3.396  50.622  1.00  0.00     0.129 C 
HETATM   21  C19 UNL     1      23.702   3.443  49.897  1.00  0.00     0.078 C 
HETATM   22  C20 UNL     1      22.512   3.491  49.161  1.00  0.00     0.051 C 
HETATM   23  N2  UNL     1      23.057   4.576  48.636  1.00  0.00    -0.233 NA
HETATM   24  P1  UNL     1      24.534   5.289  48.946  1.00  0.00     0.210 P 
HETATM   25  N3  UNL     1      25.454   4.481  50.116  1.00  0.00    -0.212 NA
HETATM   26  O1  UNL     1      21.316  -0.005  51.039  1.00  0.00     0.000 OA
HETATM   27  C21 UNL     1      20.058   0.603  51.282  1.00  0.00     0.043 C 
ENDROOT
TORSDOF 0
ENDMDL
MODEL 8
REMARK VINA RESULT:      -8.3      4.593      7.160
REMARK  0 active torsions:
REMARK  status: ('A' for Active; 'I' for Inactive)
ROOT
HETATM    1 CL1  UNL     1      25.394   8.258  49.726  1.00  0.00    -0.084 Cl
HETATM    2  C1  UNL     1      26.029   6.664  49.476  1.00  0.00     0.042 A 
HETATM    3  C2  UNL     1      27.080   6.277  48.702  1.00  0.00     0.024 A 
HETATM    4  C3  UNL     1      27.483   4.972  48.589  1.00  0.00     0.002 A 
HETATM    5  C4  UNL     1      26.743   4.066  49.319  1.00  0.00     0.008 A 
HETATM    6  C5  UNL     1      25.632   4.304  50.162  1.00  0.00    -0.049 A 
HETATM    7  C6  UNL     1      25.319   5.762  50.181  1.00  0.00    -0.017 A 
HETATM    8  C7  UNL     1      24.146   6.046  51.102  1.00  0.00     0.095 C 
HETATM    9  C8  UNL     1      23.842   4.589  51.211  1.00  0.00    -0.015 C 
HETATM   10  C9  UNL     1      23.159   4.411  50.029  1.00  0.00    -0.023 C 
HETATM   11  C10 UNL     1      22.888   3.004  50.164  1.00  0.00     0.031 A 
HETATM   12  C11 UNL     1      23.029   1.819  50.680  1.00  0.00     0.010 A 
HETATM   13  C12 UNL     1      21.896   1.334  49.806  1.00  0.00    -0.016 C 
HETATM   14  C13 UNL     1      21.169   2.162  49.063  1.00  0.00    -0.005 C 
HETATM   15  C14 UNL     1      20.502   3.216  48.338  1.00  0.00     0.108 C 
HETATM   16  C15 UNL     1      19.112   2.695  47.897  1.00  0.00     0.031 C 
HETATM   17  C16 UNL     1      18.471   2.555  49.268  1.00  0.00     0.022 C 
HETATM   18  C17 UNL     1      18.746   3.933  49.855  1.00  0.00     0.125 C 
HETATM   19  N1  UNL     1      19.981   4.328  49.244  1.00  0.00    -0.358 N 
HETATM   20  C18 UNL     1      20.461   5.691  49.603  1.00  0.00     0.129 C 
HETATM   21  C19 UNL     1      21.662   6.148  50.102  1.00  0.00     0.078 C 
HETATM   22  C20 UNL     1      22.882   6.611  50.609  1.00  0.00     0.051 C 
HETATM   23  N2  UNL     1      22.359   7.801  50.364  1.00  0.00    -0.233 NA
HETATM   24  P1  UNL     1      20.870   8.206  49.730  1.00  0.00     0.210 P 
HETATM   25  N3  UNL     1      19.901   6.871  49.347  1.00  0.00    -0.212 NA
HETATM   26  O1  UNL     1      23.999   2.674  51.268  1.00  0.00     0.000 OA
HETATM   27  C21 UNL     1      25.245   2.967  50.657  1.00  0.00     0.043 C 
ENDROOT
TORSDOF 0
ENDMDL
MODEL 9
REMARK VINA RESULT:      -8.2      4.362      6.782
REMARK  0 active torsions:
REMARK  status: ('A' for Active; 'I' for Inactive)
ROOT
HETATM    1 CL1  UNL     1      21.817   2.383  52.173  1.00  0.00    -0.084 Cl
HETATM    2  C1  UNL     1      23.538   2.311  52.366  1.00  0.00     0.042 A 
HETATM    3  C2  UNL     1      24.259   1.991  53.476  1.00  0.00     0.024 A 
HETATM    4  C3  UNL     1      25.629   1.972  53.497  1.00  0.00     0.002 A 
HETATM    5  C4  UNL     1      26.237   2.305  52.304  1.00  0.00     0.008 A 
HETATM    6  C5  UNL     1      25.637   2.661  51.072  1.00  0.00    -0.049 A 
HETATM    7  C6  UNL     1      24.152   2.634  51.210  1.00  0.00    -0.017 A 
HETATM    8  C7  UNL     1      23.486   2.985  49.893  1.00  0.00     0.095 C 
HETATM    9  C8  UNL     1      24.789   3.429  49.319  1.00  0.00    -0.015 C 
HETATM   10  C9  UNL     1      24.864   4.687  49.873  1.00  0.00    -0.023 C 
HETATM   11  C10 UNL     1      26.128   5.081  49.306  1.00  0.00     0.031 A 
HETATM   12  C11 UNL     1      27.262   4.886  48.701  1.00  0.00     0.010 A 
HETATM   13  C12 UNL     1      27.483   6.381  48.694  1.00  0.00    -0.016 C 
HETATM   14  C13 UNL     1      26.547   7.237  49.089  1.00  0.00    -0.005 C 
HETATM   15  C14 UNL     1      25.411   7.996  49.553  1.00  0.00     0.108 C 
HETATM   16  C15 UNL     1      25.561   9.451  49.048  1.00  0.00     0.031 C 
HETATM   17  C16 UNL     1      25.412   9.197  47.556  1.00  0.00     0.022 C 
HETATM   18  C17 UNL     1      24.121   8.389  47.531  1.00  0.00     0.125 C 
HETATM   19  N1  UNL     1      24.130   7.686  48.781  1.00  0.00    -0.358 N 
HETATM   20  C18 UNL     1      22.928   6.849  49.048  1.00  0.00     0.129 C 
HETATM   21  C19 UNL     1      22.783   5.522  49.391  1.00  0.00     0.078 C 
HETATM   22  C20 UNL     1      22.634   4.174  49.738  1.00  0.00     0.051 C 
HETATM   23  N2  UNL     1      21.370   4.515  49.918  1.00  0.00    -0.233 NA
HETATM   24  P1  UNL     1      20.621   5.994  49.721  1.00  0.00     0.210 P 
HETATM   25  N3  UNL     1      21.664   7.228  49.216  1.00  0.00    -0.212 NA
HETATM   26  O1  UNL     1      26.663   3.619  48.934  1.00  0.00     0.000 OA
HETATM   27  C21 UNL     1      26.773   2.926  50.166  1.00  0.00     0.043 C 
ENDROOT
TORSDOF 0
ENDMDL
