MODEL 1
REMARK VINA RESULT:      -7.6      0.000      0.000
REMARK  8 active torsions:
REMARK  status: ('A' for Active; 'I' for Inactive)
REMARK    1  A    between atoms: N1_1  and  C1_2 
REMARK    2  A    between atoms: C1_2  and  C2_3 
REMARK    3  A    between atoms: C2_3  and  C3_4 
REMARK    4  A    between atoms: C7_8  and  O1_9 
REMARK    5  A    between atoms: O1_9  and  C8_10 
REMARK    6  A    between atoms: C8_10  and  C9_11 
REMARK    7  A    between atoms: C9_11  and  C10_12 
REMARK    8  A    between atoms: C13_15  and  O2_16 
ROOT
HETATM    1  C3  UNL     1      26.627   7.064  47.952  1.00  0.00     0.054 A 
HETATM    2  C4  UNL     1      25.629   6.173  48.619  1.00  0.00    -0.042 A 
HETATM    3  C5  UNL     1      24.664   5.380  49.229  1.00  0.00     0.011 A 
HETATM    4  C6  UNL     1      25.109   4.189  49.767  1.00  0.00     0.037 A 
HETATM    5  C7  UNL     1      26.417   3.762  49.733  1.00  0.00     0.069 A 
HETATM    6  C16 UNL     1      27.362   4.561  49.126  1.00  0.00     0.045 A 
HETATM    7  C17 UNL     1      26.982   5.764  48.567  1.00  0.00    -0.040 A 
ENDROOT
BRANCH   5   8
HETATM    8  O1  UNL     1      26.845   2.561  50.281  1.00  0.00    -0.351 OA
BRANCH   8   9
HETATM    9  C8  UNL     1      26.260   1.958  51.409  1.00  0.00     0.180 C 
BRANCH   9  10
HETATM   10  C9  UNL     1      27.263   1.898  52.524  1.00  0.00     0.065 C 
BRANCH  10  11
HETATM   11  C10 UNL     1      27.584   0.445  52.723  1.00  0.00    -0.056 A 
HETATM   12  C11 UNL     1      28.802   0.188  53.362  1.00  0.00     0.010 A 
HETATM   13  C12 UNL     1      29.078  -1.152  53.535  1.00  0.00     0.037 A 
HETATM   14  C13 UNL     1      28.290  -2.195  53.148  1.00  0.00     0.065 A 
HETATM   15  C14 UNL     1      27.083  -1.898  52.515  1.00  0.00     0.037 A 
HETATM   16  C15 UNL     1      26.747  -0.572  52.311  1.00  0.00     0.010 A 
BRANCH  14  17
HETATM   17  O2  UNL     1      28.621  -3.524  53.349  1.00  0.00    -0.361 OA
HETATM   18  H16 UNL     1      28.341  -4.224  52.676  1.00  0.00     0.217 HD
ENDBRANCH  14  17
ENDBRANCH  10  11
ENDBRANCH   9  10
ENDBRANCH   8   9
ENDBRANCH   5   8
BRANCH   1  19
HETATM   19  C2  UNL     1      26.908   8.331  48.682  1.00  0.00     0.044 C 
BRANCH  19  20
HETATM   20  C1  UNL     1      28.375   8.519  49.004  1.00  0.00     0.267 C 
BRANCH  20  21
HETATM   21  N1  UNL     1      28.537   9.401  50.164  1.00  0.00     0.078 N 
HETATM   22  H1  UNL     1      29.332   9.093  50.756  1.00  0.00     0.312 HD
HETATM   23  H2  UNL     1      28.642  10.385  49.899  1.00  0.00     0.312 HD
ENDBRANCH  20  21
ENDBRANCH  19  20
ENDBRANCH   1  19
TORSDOF 8
ENDMDL
MODEL 2
REMARK VINA RESULT:      -7.6      5.743      8.062
REMARK  8 active torsions:
REMARK  status: ('A' for Active; 'I' for Inactive)
REMARK    1  A    between atoms: N1_1  and  C1_2 
REMARK    2  A    between atoms: C1_2  and  C2_3 
REMARK    3  A    between atoms: C2_3  and  C3_4 
REMARK    4  A    between atoms: C7_8  and  O1_9 
REMARK    5  A    between atoms: O1_9  and  C8_10 
REMARK    6  A    between atoms: C8_10  and  C9_11 
REMARK    7  A    between atoms: C9_11  and  C10_12 
REMARK    8  A    between atoms: C13_15  and  O2_16 
ROOT
HETATM    1  C3  UNL     1      27.122  -0.908  52.582  1.00  0.00     0.054 A 
HETATM    2  C4  UNL     1      26.761   0.376  51.907  1.00  0.00    -0.042 A 
HETATM    3  C5  UNL     1      26.470   1.567  51.255  1.00  0.00     0.011 A 
HETATM    4  C6  UNL     1      25.250   2.140  51.551  1.00  0.00     0.037 A 
HETATM    5  C7  UNL     1      24.336   1.608  52.433  1.00  0.00     0.069 A 
HETATM    6  C16 UNL     1      24.640   0.426  53.073  1.00  0.00     0.045 A 
HETATM    7  C17 UNL     1      25.843  -0.199  52.819  1.00  0.00    -0.040 A 
ENDROOT
BRANCH   5   8
HETATM    8  O1  UNL     1      23.114   2.200  52.719  1.00  0.00    -0.351 OA
BRANCH   8   9
HETATM    9  C8  UNL     1      22.052   2.295  51.802  1.00  0.00     0.180 C 
BRANCH   9  10
HETATM   10  C9  UNL     1      21.828   0.960  51.152  1.00  0.00     0.065 C 
BRANCH  10  11
HETATM   11  C10 UNL     1      20.659   0.339  51.861  1.00  0.00    -0.056 A 
HETATM   12  C11 UNL     1      20.970  -0.308  53.062  1.00  0.00     0.010 A 
HETATM   13  C12 UNL     1      19.884  -0.871  53.698  1.00  0.00     0.037 A 
HETATM   14  C13 UNL     1      18.592  -0.845  53.264  1.00  0.00     0.065 A 
HETATM   15  C14 UNL     1      18.322  -0.191  52.062  1.00  0.00     0.037 A 
HETATM   16  C15 UNL     1      19.369   0.396  51.375  1.00  0.00     0.010 A 
BRANCH  14  17
HETATM   17  O2  UNL     1      17.540  -1.431  53.948  1.00  0.00    -0.361 OA
HETATM   18  H16 UNL     1      16.722  -1.748  53.446  1.00  0.00     0.217 HD
ENDBRANCH  14  17
ENDBRANCH  10  11
ENDBRANCH   9  10
ENDBRANCH   8   9
ENDBRANCH   5   8
BRANCH   1  19
HETATM   19  C2  UNL     1      28.228  -0.794  53.573  1.00  0.00     0.044 C 
BRANCH  19  20
HETATM   20  C1  UNL     1      29.300  -1.847  53.393  1.00  0.00     0.267 C 
BRANCH  20  21
HETATM   21  N1  UNL     1      28.694  -3.163  53.168  1.00  0.00     0.078 N 
HETATM   22  H1  UNL     1      28.632  -3.700  54.055  1.00  0.00     0.312 HD
HETATM   23  H2  UNL     1      27.776  -3.102  52.716  1.00  0.00     0.312 HD
ENDBRANCH  20  21
ENDBRANCH  19  20
ENDBRANCH   1  19
TORSDOF 8
ENDMDL
MODEL 3
REMARK VINA RESULT:      -7.5      3.383      4.456
REMARK  8 active torsions:
REMARK  status: ('A' for Active; 'I' for Inactive)
REMARK    1  A    between atoms: N1_1  and  C1_2 
REMARK    2  A    between atoms: C1_2  and  C2_3 
REMARK    3  A    between atoms: C2_3  and  C3_4 
REMARK    4  A    between atoms: C7_8  and  O1_9 
REMARK    5  A    between atoms: O1_9  and  C8_10 
REMARK    6  A    between atoms: C8_10  and  C9_11 
REMARK    7  A    between atoms: C9_11  and  C10_12 
REMARK    8  A    between atoms: C13_15  and  O2_16 
ROOT
HETATM    1  C3  UNL     1      25.704   3.499  49.679  1.00  0.00     0.054 A 
HETATM    2  C4  UNL     1      25.027   3.398  51.009  1.00  0.00    -0.042 A 
HETATM    3  C5  UNL     1      24.357   3.328  52.223  1.00  0.00     0.011 A 
HETATM    4  C6  UNL     1      25.050   2.750  53.267  1.00  0.00     0.037 A 
HETATM    5  C7  UNL     1      26.332   2.257  53.170  1.00  0.00     0.069 A 
HETATM    6  C16 UNL     1      26.984   2.335  51.958  1.00  0.00     0.045 A 
HETATM    7  C17 UNL     1      26.345   2.900  50.874  1.00  0.00    -0.040 A 
ENDROOT
BRANCH   5   8
HETATM    8  O1  UNL     1      27.013   1.680  54.232  1.00  0.00    -0.351 OA
BRANCH   8   9
HETATM    9  C8  UNL     1      26.590   0.517  54.899  1.00  0.00     0.180 C 
BRANCH   9  10
HETATM   10  C9  UNL     1      26.199  -0.527  53.893  1.00  0.00     0.065 C 
BRANCH  10  11
HETATM   11  C10 UNL     1      24.734  -0.782  54.100  1.00  0.00    -0.056 A 
HETATM   12  C11 UNL     1      24.386  -1.237  55.377  1.00  0.00     0.010 A 
HETATM   13  C12 UNL     1      23.036  -1.464  55.547  1.00  0.00     0.037 A 
HETATM   14  C13 UNL     1      22.063  -1.288  54.608  1.00  0.00     0.065 A 
HETATM   15  C14 UNL     1      22.451  -0.833  53.347  1.00  0.00     0.037 A 
HETATM   16  C15 UNL     1      23.791  -0.586  53.112  1.00  0.00     0.010 A 
BRANCH  14  17
HETATM   17  O2  UNL     1      20.720  -1.534  54.838  1.00  0.00    -0.361 OA
HETATM   18  H16 UNL     1      20.351  -1.495  55.778  1.00  0.00     0.217 HD
ENDBRANCH  14  17
ENDBRANCH  10  11
ENDBRANCH   9  10
ENDBRANCH   8   9
ENDBRANCH   5   8
BRANCH   1  19
HETATM   19  C2  UNL     1      26.052   4.886  49.268  1.00  0.00     0.044 C 
BRANCH  19  20
HETATM   20  C1  UNL     1      27.439   5.000  48.672  1.00  0.00     0.267 C 
BRANCH  20  21
HETATM   21  N1  UNL     1      28.036   6.297  49.005  1.00  0.00     0.078 N 
HETATM   22  H1  UNL     1      28.826   6.182  49.669  1.00  0.00     0.312 HD
HETATM   23  H2  UNL     1      28.333   6.819  48.175  1.00  0.00     0.312 HD
ENDBRANCH  20  21
ENDBRANCH  19  20
ENDBRANCH   1  19
TORSDOF 8
ENDMDL
MODEL 4
REMARK VINA RESULT:      -7.4      3.878      7.789
REMARK  8 active torsions:
REMARK  status: ('A' for Active; 'I' for Inactive)
REMARK    1  A    between atoms: N1_1  and  C1_2 
REMARK    2  A    between atoms: C1_2  and  C2_3 
REMARK    3  A    between atoms: C2_3  and  C3_4 
REMARK    4  A    between atoms: C7_8  and  O1_9 
REMARK    5  A    between atoms: O1_9  and  C8_10 
REMARK    6  A    between atoms: C8_10  and  C9_11 
REMARK    7  A    between atoms: C9_11  and  C10_12 
REMARK    8  A    between atoms: C13_15  and  O2_16 
ROOT
HETATM    1  C3  UNL     1      26.130  -0.544  53.637  1.00  0.00     0.054 A 
HETATM    2  C4  UNL     1      24.679  -0.318  53.352  1.00  0.00    -0.042 A 
HETATM    3  C5  UNL     1      23.322  -0.157  53.102  1.00  0.00     0.011 A 
HETATM    4  C6  UNL     1      22.935   1.078  52.625  1.00  0.00     0.037 A 
HETATM    5  C7  UNL     1      23.797   2.126  52.391  1.00  0.00     0.069 A 
HETATM    6  C16 UNL     1      25.140   1.950  52.643  1.00  0.00     0.045 A 
HETATM    7  C17 UNL     1      25.593   0.738  53.122  1.00  0.00    -0.040 A 
ENDROOT
BRANCH   5   8
HETATM    8  O1  UNL     1      23.388   3.362  51.910  1.00  0.00    -0.351 OA
BRANCH   8   9
HETATM    9  C8  UNL     1      22.710   3.547  50.692  1.00  0.00     0.180 C 
BRANCH   9  10
HETATM   10  C9  UNL     1      23.520   2.961  49.571  1.00  0.00     0.065 C 
BRANCH  10  11
HETATM   11  C10 UNL     1      24.676   3.895  49.356  1.00  0.00    -0.056 A 
HETATM   12  C11 UNL     1      25.941   3.308  49.467  1.00  0.00     0.010 A 
HETATM   13  C12 UNL     1      26.989   4.182  49.266  1.00  0.00     0.037 A 
HETATM   14  C13 UNL     1      26.888   5.511  48.981  1.00  0.00     0.065 A 
HETATM   15  C14 UNL     1      25.610   6.059  48.878  1.00  0.00     0.037 A 
HETATM   16  C15 UNL     1      24.515   5.235  49.069  1.00  0.00     0.010 A 
BRANCH  14  17
HETATM   17  O2  UNL     1      27.980   6.341  48.789  1.00  0.00    -0.361 OA
HETATM   18  H16 UNL     1      28.686   6.424  49.508  1.00  0.00     0.217 HD
ENDBRANCH  14  17
ENDBRANCH  10  11
ENDBRANCH   9  10
ENDBRANCH   8   9
ENDBRANCH   5   8
BRANCH   1  19
HETATM   19  C2  UNL     1      26.800  -1.493  52.707  1.00  0.00     0.044 C 
BRANCH  19  20
HETATM   20  C1  UNL     1      28.240  -1.773  53.079  1.00  0.00     0.267 C 
BRANCH  20  21
HETATM   21  N1  UNL     1      28.495  -3.217  53.094  1.00  0.00     0.078 N 
HETATM   22  H1  UNL     1      27.934  -3.700  52.366  1.00  0.00     0.312 HD
HETATM   23  H2  UNL     1      29.489  -3.443  52.995  1.00  0.00     0.312 HD
ENDBRANCH  20  21
ENDBRANCH  19  20
ENDBRANCH   1  19
TORSDOF 8
ENDMDL
MODEL 5
REMARK VINA RESULT:      -7.4      4.610      6.252
REMARK  8 active torsions:
REMARK  status: ('A' for Active; 'I' for Inactive)
REMARK    1  A    between atoms: N1_1  and  C1_2 
REMARK    2  A    between atoms: C1_2  and  C2_3 
REMARK    3  A    between atoms: C2_3  and  C3_4 
REMARK    4  A    between atoms: C7_8  and  O1_9 
REMARK    5  A    between atoms: O1_9  and  C8_10 
REMARK    6  A    between atoms: C8_10  and  C9_11 
REMARK    7  A    between atoms: C9_11  and  C10_12 
REMARK    8  A    between atoms: C13_15  and  O2_16 
ROOT
HETATM    1  C3  UNL     1      21.028   0.288  50.937  1.00  0.00     0.054 A 
HETATM    2  C4  UNL     1      21.904   0.523  52.125  1.00  0.00    -0.042 A 
HETATM    3  C5  UNL     1      22.684   0.713  53.259  1.00  0.00     0.011 A 
HETATM    4  C6  UNL     1      23.834   1.456  53.086  1.00  0.00     0.037 A 
HETATM    5  C7  UNL     1      24.234   2.002  51.887  1.00  0.00     0.069 A 
HETATM    6  C16 UNL     1      23.448   1.804  50.772  1.00  0.00     0.045 A 
HETATM    7  C17 UNL     1      22.285   1.069  50.877  1.00  0.00    -0.040 A 
ENDROOT
BRANCH   5   8
HETATM    8  O1  UNL     1      25.394   2.747  51.733  1.00  0.00    -0.351 OA
BRANCH   8   9
HETATM    9  C8  UNL     1      26.659   2.190  51.475  1.00  0.00     0.180 C 
BRANCH   9  10
HETATM   10  C9  UNL     1      27.409   2.023  52.765  1.00  0.00     0.065 C 
BRANCH  10  11
HETATM   11  C10 UNL     1      27.703   0.556  52.893  1.00  0.00    -0.056 A 
HETATM   12  C11 UNL     1      28.963   0.247  53.418  1.00  0.00     0.010 A 
HETATM   13  C12 UNL     1      29.214  -1.104  53.528  1.00  0.00     0.037 A 
HETATM   14  C13 UNL     1      28.366  -2.113  53.178  1.00  0.00     0.065 A 
HETATM   15  C14 UNL     1      27.119  -1.765  52.658  1.00  0.00     0.037 A 
HETATM   16  C15 UNL     1      26.806  -0.425  52.523  1.00  0.00     0.010 A 
BRANCH  14  17
HETATM   17  O2  UNL     1      28.675  -3.457  53.312  1.00  0.00    -0.361 OA
HETATM   18  H16 UNL     1      28.860  -3.846  54.226  1.00  0.00     0.217 HD
ENDBRANCH  14  17
ENDBRANCH  10  11
ENDBRANCH   9  10
ENDBRANCH   8   9
ENDBRANCH   5   8
BRANCH   1  19
HETATM   19  C2  UNL     1      19.718   0.994  50.987  1.00  0.00     0.044 C 
BRANCH  19  20
HETATM   20  C1  UNL     1      18.533   0.054  50.949  1.00  0.00     0.267 C 
BRANCH  20  21
HETATM   21  N1  UNL     1      17.677   0.354  49.796  1.00  0.00     0.078 N 
HETATM   22  H1  UNL     1      16.695   0.068  49.979  1.00  0.00     0.312 HD
HETATM   23  H2  UNL     1      17.723   1.339  49.518  1.00  0.00     0.312 HD
ENDBRANCH  20  21
ENDBRANCH  19  20
ENDBRANCH   1  19
TORSDOF 8
ENDMDL
MODEL 6
REMARK VINA RESULT:      -7.4      3.409      6.982
REMARK  8 active torsions:
REMARK  status: ('A' for Active; 'I' for Inactive)
REMARK    1  A    between atoms: N1_1  and  C1_2 
REMARK    2  A    between atoms: C1_2  and  C2_3 
REMARK    3  A    between atoms: C2_3  and  C3_4 
REMARK    4  A    between atoms: C7_8  and  O1_9 
REMARK    5  A    between atoms: O1_9  and  C8_10 
REMARK    6  A    between atoms: C8_10  and  C9_11 
REMARK    7  A    between atoms: C9_11  and  C10_12 
REMARK    8  A    between atoms: C13_15  and  O2_16 
ROOT
HETATM    1  C3  UNL     1      26.443   1.192  54.117  1.00  0.00     0.054 A 
HETATM    2  C4  UNL     1      25.181   0.719  53.469  1.00  0.00    -0.042 A 
HETATM    3  C5  UNL     1      24.025   0.231  52.874  1.00  0.00     0.011 A 
HETATM    4  C6  UNL     1      23.132   1.177  52.413  1.00  0.00     0.037 A 
HETATM    5  C7  UNL     1      23.325   2.537  52.509  1.00  0.00     0.069 A 
HETATM    6  C16 UNL     1      24.478   3.006  53.101  1.00  0.00     0.045 A 
HETATM    7  C17 UNL     1      25.410   2.111  53.584  1.00  0.00    -0.040 A 
ENDROOT
BRANCH   5   8
HETATM    8  O1  UNL     1      22.416   3.474  52.038  1.00  0.00    -0.351 OA
BRANCH   8   9
HETATM    9  C8  UNL     1      22.731   4.478  51.106  1.00  0.00     0.180 C 
BRANCH   9  10
HETATM   10  C9  UNL     1      23.104   3.847  49.795  1.00  0.00     0.065 C 
BRANCH  10  11
HETATM   11  C10 UNL     1      24.534   4.228  49.538  1.00  0.00    -0.056 A 
HETATM   12  C11 UNL     1      25.463   3.197  49.714  1.00  0.00     0.010 A 
HETATM   13  C12 UNL     1      26.770   3.566  49.474  1.00  0.00     0.037 A 
HETATM   14  C13 UNL     1      27.202   4.803  49.095  1.00  0.00     0.065 A 
HETATM   15  C14 UNL     1      26.245   5.804  48.930  1.00  0.00     0.037 A 
HETATM   16  C15 UNL     1      24.916   5.498  49.156  1.00  0.00     0.010 A 
BRANCH  14  17
HETATM   17  O2  UNL     1      28.532   5.115  48.868  1.00  0.00    -0.361 OA
HETATM   18  H16 UNL     1      28.911   5.990  49.202  1.00  0.00     0.217 HD
ENDBRANCH  14  17
ENDBRANCH  10  11
ENDBRANCH   9  10
ENDBRANCH   8   9
ENDBRANCH   5   8
BRANCH   1  19
HETATM   19  C2  UNL     1      27.678   0.927  53.330  1.00  0.00     0.044 C 
BRANCH  19  20
HETATM   20  C1  UNL     1      28.918   0.810  54.189  1.00  0.00     0.267 C 
BRANCH  20  21
HETATM   21  N1  UNL     1      29.474   2.138  54.471  1.00  0.00     0.078 N 
HETATM   22  H1  UNL     1      28.720   2.850  54.530  1.00  0.00     0.312 HD
HETATM   23  H2  UNL     1      30.053   2.151  55.315  1.00  0.00     0.312 HD
ENDBRANCH  20  21
ENDBRANCH  19  20
ENDBRANCH   1  19
TORSDOF 8
ENDMDL
MODEL 7
REMARK VINA RESULT:      -7.0      5.125      8.121
REMARK  8 active torsions:
REMARK  status: ('A' for Active; 'I' for Inactive)
REMARK    1  A    between atoms: N1_1  and  C1_2 
REMARK    2  A    between atoms: C1_2  and  C2_3 
REMARK    3  A    between atoms: C2_3  and  C3_4 
REMARK    4  A    between atoms: C7_8  and  O1_9 
REMARK    5  A    between atoms: O1_9  and  C8_10 
REMARK    6  A    between atoms: C8_10  and  C9_11 
REMARK    7  A    between atoms: C9_11  and  C10_12 
REMARK    8  A    between atoms: C13_15  and  O2_16 
ROOT
HETATM    1  C3  UNL     1      27.203  -0.967  52.459  1.00  0.00     0.054 A 
HETATM    2  C4  UNL     1      26.423   0.263  52.121  1.00  0.00    -0.042 A 
HETATM    3  C5  UNL     1      25.739   1.422  51.779  1.00  0.00     0.011 A 
HETATM    4  C6  UNL     1      24.472   1.559  52.310  1.00  0.00     0.037 A 
HETATM    5  C7  UNL     1      23.873   0.635  53.136  1.00  0.00     0.069 A 
HETATM    6  C16 UNL     1      24.565  -0.510  53.467  1.00  0.00     0.045 A 
HETATM    7  C17 UNL     1      25.836  -0.708  52.968  1.00  0.00    -0.040 A 
ENDROOT
BRANCH   5   8
HETATM    8  O1  UNL     1      22.597   0.791  53.661  1.00  0.00    -0.351 OA
BRANCH   8   9
HETATM    9  C8  UNL     1      21.422   0.378  53.008  1.00  0.00     0.180 C 
BRANCH   9  10
HETATM   10  C9  UNL     1      20.652   1.582  52.549  1.00  0.00     0.065 C 
BRANCH  10  11
HETATM   11  C10 UNL     1      21.096   1.852  51.140  1.00  0.00    -0.056 A 
HETATM   12  C11 UNL     1      21.185   0.722  50.320  1.00  0.00     0.010 A 
HETATM   13  C12 UNL     1      21.594   0.990  49.030  1.00  0.00     0.037 A 
HETATM   14  C13 UNL     1      21.903   2.217  48.521  1.00  0.00     0.065 A 
HETATM   15  C14 UNL     1      21.802   3.318  49.370  1.00  0.00     0.037 A 
HETATM   16  C15 UNL     1      21.397   3.116  50.677  1.00  0.00     0.010 A 
BRANCH  14  17
HETATM   17  O2  UNL     1      22.310   2.424  47.213  1.00  0.00    -0.361 OA
HETATM   18  H16 UNL     1      22.064   1.759  46.494  1.00  0.00     0.217 HD
ENDBRANCH  14  17
ENDBRANCH  10  11
ENDBRANCH   9  10
ENDBRANCH   8   9
ENDBRANCH   5   8
BRANCH   1  19
HETATM   19  C2  UNL     1      28.379  -0.729  53.340  1.00  0.00     0.044 C 
BRANCH  19  20
HETATM   20  C1  UNL     1      29.319  -1.913  53.411  1.00  0.00     0.267 C 
BRANCH  20  21
HETATM   21  N1  UNL     1      28.595  -3.160  53.147  1.00  0.00     0.078 N 
HETATM   22  H1  UNL     1      28.734  -3.841  53.919  1.00  0.00     0.312 HD
HETATM   23  H2  UNL     1      27.597  -3.007  52.974  1.00  0.00     0.312 HD
ENDBRANCH  20  21
ENDBRANCH  19  20
ENDBRANCH   1  19
TORSDOF 8
ENDMDL
MODEL 8
REMARK VINA RESULT:      -7.0      2.008      2.625
REMARK  8 active torsions:
REMARK  status: ('A' for Active; 'I' for Inactive)
REMARK    1  A    between atoms: N1_1  and  C1_2 
REMARK    2  A    between atoms: C1_2  and  C2_3 
REMARK    3  A    between atoms: C2_3  and  C3_4 
REMARK    4  A    between atoms: C7_8  and  O1_9 
REMARK    5  A    between atoms: O1_9  and  C8_10 
REMARK    6  A    between atoms: C8_10  and  C9_11 
REMARK    7  A    between atoms: C9_11  and  C10_12 
REMARK    8  A    between atoms: C13_15  and  O2_16 
ROOT
HETATM    1  C3  UNL     1      29.815   6.484  47.663  1.00  0.00     0.054 A 
HETATM    2  C4  UNL     1      28.394   6.870  47.916  1.00  0.00    -0.042 A 
HETATM    3  C5  UNL     1      27.083   7.278  48.135  1.00  0.00     0.011 A 
HETATM    4  C6  UNL     1      26.230   6.326  48.655  1.00  0.00     0.037 A 
HETATM    5  C7  UNL     1      26.600   5.035  48.959  1.00  0.00     0.069 A 
HETATM    6  C16 UNL     1      27.903   4.647  48.738  1.00  0.00     0.045 A 
HETATM    7  C17 UNL     1      28.807   5.551  48.218  1.00  0.00    -0.040 A 
ENDROOT
BRANCH   5   8
HETATM    8  O1  UNL     1      25.727   4.091  49.482  1.00  0.00    -0.351 OA
BRANCH   8   9
HETATM    9  C8  UNL     1      26.133   2.863  50.032  1.00  0.00     0.180 C 
BRANCH   9  10
HETATM   10  C9  UNL     1      25.706   2.789  51.470  1.00  0.00     0.065 C 
BRANCH  10  11
HETATM   11  C10 UNL     1      26.522   1.694  52.094  1.00  0.00    -0.056 A 
HETATM   12  C11 UNL     1      27.635   2.126  52.825  1.00  0.00     0.010 A 
HETATM   13  C12 UNL     1      28.371   1.105  53.390  1.00  0.00     0.037 A 
HETATM   14  C13 UNL     1      28.107  -0.229  53.293  1.00  0.00     0.065 A 
HETATM   15  C14 UNL     1      26.989  -0.619  52.557  1.00  0.00     0.037 A 
HETATM   16  C15 UNL     1      26.208   0.356  51.964  1.00  0.00     0.010 A 
BRANCH  14  17
HETATM   17  O2  UNL     1      28.885  -1.210  53.884  1.00  0.00    -0.361 OA
HETATM   18  H16 UNL     1      28.466  -1.875  54.520  1.00  0.00     0.217 HD
ENDBRANCH  14  17
ENDBRANCH  10  11
ENDBRANCH   9  10
ENDBRANCH   8   9
ENDBRANCH   5   8
BRANCH   1  19
HETATM   19  C2  UNL     1      30.802   7.133  48.568  1.00  0.00     0.044 C 
BRANCH  19  20
HETATM   20  C1  UNL     1      31.865   6.181  49.072  1.00  0.00     0.267 C 
BRANCH  20  21
HETATM   21  N1  UNL     1      31.576   5.773  50.451  1.00  0.00     0.078 N 
HETATM   22  H1  UNL     1      32.454   5.617  50.983  1.00  0.00     0.312 HD
HETATM   23  H2  UNL     1      30.969   6.437  50.939  1.00  0.00     0.312 HD
ENDBRANCH  20  21
ENDBRANCH  19  20
ENDBRANCH   1  19
TORSDOF 8
ENDMDL
MODEL 9
REMARK VINA RESULT:      -6.8      4.786      7.035
REMARK  8 active torsions:
REMARK  status: ('A' for Active; 'I' for Inactive)
REMARK    1  A    between atoms: N1_1  and  C1_2 
REMARK    2  A    between atoms: C1_2  and  C2_3 
REMARK    3  A    between atoms: C2_3  and  C3_4 
REMARK    4  A    between atoms: C7_8  and  O1_9 
REMARK    5  A    between atoms: O1_9  and  C8_10 
REMARK    6  A    between atoms: C8_10  and  C9_11 
REMARK    7  A    between atoms: C9_11  and  C10_12 
REMARK    8  A    between atoms: C13_15  and  O2_16 
ROOT
HETATM    1  C3  UNL     1      26.573   2.682  51.280  1.00  0.00     0.054 A 
HETATM    2  C4  UNL     1      26.639   1.257  51.729  1.00  0.00    -0.042 A 
HETATM    3  C5  UNL     1      26.748  -0.071  52.122  1.00  0.00     0.011 A 
HETATM    4  C6  UNL     1      25.688  -0.578  52.846  1.00  0.00     0.037 A 
HETATM    5  C7  UNL     1      24.565   0.142  53.186  1.00  0.00     0.069 A 
HETATM    6  C16 UNL     1      24.472   1.457  52.788  1.00  0.00     0.045 A 
HETATM    7  C17 UNL     1      25.498   2.025  52.062  1.00  0.00    -0.040 A 
ENDROOT
BRANCH   5   8
HETATM    8  O1  UNL     1      23.508  -0.387  53.915  1.00  0.00    -0.351 OA
BRANCH   8   9
HETATM    9  C8  UNL     1      22.230   0.194  53.982  1.00  0.00     0.180 C 
BRANCH   9  10
HETATM   10  C9  UNL     1      21.198  -0.807  53.549  1.00  0.00     0.065 C 
BRANCH  10  11
HETATM   11  C10 UNL     1      20.473  -0.188  52.389  1.00  0.00    -0.056 A 
HETATM   12  C11 UNL     1      21.297   0.347  51.392  1.00  0.00     0.010 A 
HETATM   13  C12 UNL     1      20.613   0.911  50.336  1.00  0.00     0.037 A 
HETATM   14  C13 UNL     1      19.259   0.983  50.198  1.00  0.00     0.065 A 
HETATM   15  C14 UNL     1      18.472   0.438  51.213  1.00  0.00     0.037 A 
HETATM   16  C15 UNL     1      19.097  -0.143  52.301  1.00  0.00     0.010 A 
BRANCH  14  17
HETATM   17  O2  UNL     1      18.627   1.563  49.111  1.00  0.00    -0.361 OA
HETATM   18  H16 UNL     1      18.923   2.471  48.778  1.00  0.00     0.217 HD
ENDBRANCH  14  17
ENDBRANCH  10  11
ENDBRANCH   9  10
ENDBRANCH   8   9
ENDBRANCH   5   8
BRANCH   1  19
HETATM   19  C2  UNL     1      26.417   2.859  49.810  1.00  0.00     0.044 C 
BRANCH  19  20
HETATM   20  C1  UNL     1      26.791   4.246  49.335  1.00  0.00     0.267 C 
BRANCH  20  21
HETATM   21  N1  UNL     1      26.044   5.263  50.083  1.00  0.00     0.078 N 
HETATM   22  H1  UNL     1      26.228   6.212  49.703  1.00  0.00     0.312 HD
HETATM   23  H2  UNL     1      25.038   5.072  50.110  1.00  0.00     0.312 HD
ENDBRANCH  20  21
ENDBRANCH  19  20
ENDBRANCH   1  19
TORSDOF 8
ENDMDL
