MODEL 1
REMARK VINA RESULT:      -7.2      0.000      0.000
REMARK  3 active torsions:
REMARK  status: ('A' for Active; 'I' for Inactive)
REMARK    1  A    between atoms: N1_2  and  C2_3 
REMARK    2  A    between atoms: C11_15  and  C12_16 
REMARK    3  A    between atoms: C12_16  and  C13_17 
ROOT
HETATM    1  C2  UNL     1      20.271   3.832  49.458  1.00  0.00     0.118 C 
HETATM    2  C3  UNL     1      19.559   4.930  48.745  1.00  0.00     0.049 C 
HETATM    3  C4  UNL     1      19.431   3.023  50.328  1.00  0.00     0.137 C 
HETATM    4  F1  UNL     1      18.163   2.954  49.854  1.00  0.00    -0.207 F 
HETATM    5  C5  UNL     1      19.636   2.355  51.429  1.00  0.00     0.030 C 
HETATM    6  C6  UNL     1      20.175   3.126  52.379  1.00  0.00     0.100 C 
HETATM    7  N2  UNL     1      21.259   4.111  52.195  1.00  0.00    -0.369 N 
HETATM    8  C7  UNL     1      22.316   4.598  51.195  1.00  0.00     0.149 C 
HETATM    9  C8  UNL     1      21.550   4.331  50.074  1.00  0.00     0.078 C 
HETATM   10  C9  UNL     1      22.375   4.619  48.829  1.00  0.00     0.185 C 
HETATM   11  O1  UNL     1      23.652   4.293  49.169  1.00  0.00    -0.389 OA
HETATM   12  C10 UNL     1      23.766   2.932  49.669  1.00  0.00     0.176 C 
HETATM   13  C11 UNL     1      25.078   2.883  50.300  1.00  0.00     0.043 C 
HETATM   14  C16 UNL     1      25.185   2.399  51.659  1.00  0.00    -0.063 A 
HETATM   15  O3  UNL     1      25.628   1.405  52.498  1.00  0.00     0.000 OA
HETATM   16  C17 UNL     1      26.605   0.457  52.033  1.00  0.00     0.000 C 
HETATM   17  C18 UNL     1      24.804   2.652  52.926  1.00  0.00     0.104 A 
HETATM   18  C19 UNL     1      23.820   3.928  52.929  1.00  0.00     0.256 C 
HETATM   19  N4  UNL     1      22.937   4.782  52.493  1.00  0.00    -0.417 NA
HETATM   20  H7  UNL     1      21.043   4.459  53.229  1.00  0.00     0.161 HD
ENDROOT
BRANCH  13  21
HETATM   21  C12 UNL     1      26.281   3.052  49.482  1.00  0.00     0.075 C 
BRANCH  21  22
HETATM   22  C13 UNL     1      26.994   4.371  49.529  1.00  0.00     0.356 C 
HETATM   23  N3  UNL     1      26.222   5.496  49.925  1.00  0.00     0.114 N 
HETATM   24  C14 UNL     1      26.450   6.371  48.740  1.00  0.00     0.299 C 
HETATM   25  H16 UNL     1      26.446   5.945  50.801  1.00  0.00     0.319 HD
HETATM   26  C15 UNL     1      27.920   6.000  48.417  1.00  0.00     0.200 C 
HETATM   27  O2  UNL     1      27.916   4.627  48.579  1.00  0.00    -0.356 OA
ENDBRANCH  21  22
ENDBRANCH  13  21
BRANCH   1  28
HETATM   28  N1  UNL     1      20.730   2.909  48.350  1.00  0.00    -0.294 NA
HETATM   29  C1  UNL     1      19.908   2.986  47.324  1.00  0.00     0.144 C 
ENDBRANCH   1  28
TORSDOF 3
ENDMDL
MODEL 2
REMARK VINA RESULT:      -7.1      2.703      3.808
REMARK  3 active torsions:
REMARK  status: ('A' for Active; 'I' for Inactive)
REMARK    1  A    between atoms: N1_2  and  C2_3 
REMARK    2  A    between atoms: C11_15  and  C12_16 
REMARK    3  A    between atoms: C12_16  and  C13_17 
ROOT
HETATM    1  C2  UNL     1      21.980   4.003  49.452  1.00  0.00     0.118 C 
HETATM    2  C3  UNL     1      21.395   5.368  49.317  1.00  0.00     0.049 C 
HETATM    3  C4  UNL     1      21.464   3.022  48.510  1.00  0.00     0.137 C 
HETATM    4  F1  UNL     1      21.111   3.609  47.339  1.00  0.00    -0.207 F 
HETATM    5  C5  UNL     1      21.289   1.730  48.543  1.00  0.00     0.030 C 
HETATM    6  C6  UNL     1      20.552   1.361  49.596  1.00  0.00     0.100 C 
HETATM    7  N2  UNL     1      20.678   1.875  50.974  1.00  0.00    -0.369 N 
HETATM    8  C7  UNL     1      21.576   2.713  51.893  1.00  0.00     0.149 C 
HETATM    9  C8  UNL     1      22.003   3.568  50.891  1.00  0.00     0.078 C 
HETATM   10  C9  UNL     1      23.042   4.521  51.463  1.00  0.00     0.185 C 
HETATM   11  O1  UNL     1      23.712   3.794  52.399  1.00  0.00    -0.389 OA
HETATM   12  C10 UNL     1      24.256   2.558  51.859  1.00  0.00     0.176 C 
HETATM   13  C11 UNL     1      24.606   1.770  53.034  1.00  0.00     0.043 C 
HETATM   14  C16 UNL     1      24.114   0.414  53.140  1.00  0.00    -0.063 A 
HETATM   15  O3  UNL     1      24.416  -0.927  53.138  1.00  0.00     0.000 OA
HETATM   16  C17 UNL     1      25.776  -1.355  53.326  1.00  0.00     0.000 C 
HETATM   17  C18 UNL     1      22.988  -0.320  53.229  1.00  0.00     0.104 A 
HETATM   18  C19 UNL     1      21.715   0.664  53.116  1.00  0.00     0.256 C 
HETATM   19  N4  UNL     1      21.011   1.703  52.768  1.00  0.00    -0.417 NA
HETATM   20  H7  UNL     1      19.728   1.342  51.199  1.00  0.00     0.161 HD
ENDROOT
BRANCH  13  21
HETATM   21  C12 UNL     1      25.656   2.245  53.937  1.00  0.00     0.075 C 
BRANCH  21  22
HETATM   22  C13 UNL     1      27.060   2.329  53.415  1.00  0.00     0.356 C 
HETATM   23  N3  UNL     1      27.484   1.275  52.562  1.00  0.00     0.114 N 
HETATM   24  C14 UNL     1      28.690   0.829  53.317  1.00  0.00     0.299 C 
HETATM   25  H16 UNL     1      27.677   1.490  51.594  1.00  0.00     0.319 HD
HETATM   26  C15 UNL     1      29.192   2.198  53.845  1.00  0.00     0.200 C 
HETATM   27  O2  UNL     1      28.015   2.807  54.238  1.00  0.00    -0.356 OA
ENDBRANCH  21  22
ENDBRANCH  13  21
BRANCH   1  28
HETATM   28  N1  UNL     1      23.439   4.191  49.098  1.00  0.00    -0.294 NA
HETATM   29  C1  UNL     1      23.594   5.270  48.361  1.00  0.00     0.144 C 
ENDBRANCH   1  28
TORSDOF 3
ENDMDL
MODEL 3
REMARK VINA RESULT:      -6.9      8.754     11.573
REMARK  3 active torsions:
REMARK  status: ('A' for Active; 'I' for Inactive)
REMARK    1  A    between atoms: N1_2  and  C2_3 
REMARK    2  A    between atoms: C11_15  and  C12_16 
REMARK    3  A    between atoms: C12_16  and  C13_17 
ROOT
HETATM    1  C2  UNL     1      33.961   4.321  47.067  1.00  0.00     0.118 C 
HETATM    2  C3  UNL     1      35.016   3.914  48.038  1.00  0.00     0.049 C 
HETATM    3  C4  UNL     1      34.227   3.949  45.685  1.00  0.00     0.137 C 
HETATM    4  F1  UNL     1      34.951   2.805  45.619  1.00  0.00    -0.207 F 
HETATM    5  C5  UNL     1      33.912   4.459  44.527  1.00  0.00     0.030 C 
HETATM    6  C6  UNL     1      34.286   5.740  44.436  1.00  0.00     0.100 C 
HETATM    7  N2  UNL     1      34.139   6.770  45.482  1.00  0.00    -0.369 N 
HETATM    8  C7  UNL     1      33.473   7.059  46.835  1.00  0.00     0.149 C 
HETATM    9  C8  UNL     1      33.552   5.752  47.284  1.00  0.00     0.078 C 
HETATM   10  C9  UNL     1      32.856   5.649  48.633  1.00  0.00     0.185 C 
HETATM   11  O1  UNL     1      31.827   6.539  48.568  1.00  0.00    -0.389 OA
HETATM   12  C10 UNL     1      30.963   6.309  47.421  1.00  0.00     0.176 C 
HETATM   13  C11 UNL     1      30.168   7.525  47.313  1.00  0.00     0.043 C 
HETATM   14  C16 UNL     1      30.109   8.214  46.042  1.00  0.00    -0.063 A 
HETATM   15  O3  UNL     1      29.344   8.571  44.958  1.00  0.00     0.000 OA
HETATM   16  C17 UNL     1      27.910   8.491  45.036  1.00  0.00     0.000 C 
HETATM   17  C18 UNL     1      30.861   8.861  45.131  1.00  0.00     0.104 A 
HETATM   18  C19 UNL     1      32.405   8.798  45.592  1.00  0.00     0.256 C 
HETATM   19  N4  UNL     1      33.486   8.343  46.160  1.00  0.00    -0.417 NA
HETATM   20  H7  UNL     1      34.781   7.423  44.851  1.00  0.00     0.161 HD
ENDROOT
BRANCH  13  21
HETATM   21  C12 UNL     1      29.234   7.876  48.384  1.00  0.00     0.075 C 
BRANCH  21  22
HETATM   22  C13 UNL     1      29.422   9.187  49.091  1.00  0.00     0.356 C 
HETATM   23  N3  UNL     1      28.415  10.168  48.886  1.00  0.00     0.114 N 
HETATM   24  C14 UNL     1      29.268  11.281  48.381  1.00  0.00     0.299 C 
HETATM   25  H16 UNL     1      27.838  10.433  49.671  1.00  0.00     0.319 HD
HETATM   26  C15 UNL     1      30.538  11.051  49.239  1.00  0.00     0.200 C 
HETATM   27  O2  UNL     1      30.673   9.677  49.196  1.00  0.00    -0.356 OA
ENDBRANCH  21  22
ENDBRANCH  13  21
BRANCH   1  28
HETATM   28  N1  UNL     1      32.746   3.521  47.485  1.00  0.00    -0.294 NA
HETATM   29  C1  UNL     1      33.100   2.298  47.820  1.00  0.00     0.144 C 
ENDBRANCH   1  28
TORSDOF 3
ENDMDL
MODEL 4
REMARK VINA RESULT:      -6.9      2.907      5.445
REMARK  3 active torsions:
REMARK  status: ('A' for Active; 'I' for Inactive)
REMARK    1  A    between atoms: N1_2  and  C2_3 
REMARK    2  A    between atoms: C11_15  and  C12_16 
REMARK    3  A    between atoms: C12_16  and  C13_17 
ROOT
HETATM    1  C2  UNL     1      22.713   5.800  49.748  1.00  0.00     0.118 C 
HETATM    2  C3  UNL     1      21.837   6.050  48.568  1.00  0.00     0.049 C 
HETATM    3  C4  UNL     1      23.512   6.942  50.169  1.00  0.00     0.137 C 
HETATM    4  F1  UNL     1      22.874   8.108  49.901  1.00  0.00    -0.207 F 
HETATM    5  C5  UNL     1      24.672   7.079  50.747  1.00  0.00     0.030 C 
HETATM    6  C6  UNL     1      25.634   6.433  50.079  1.00  0.00     0.100 C 
HETATM    7  N2  UNL     1      25.535   5.082  49.493  1.00  0.00    -0.369 N 
HETATM    8  C7  UNL     1      24.659   3.822  49.457  1.00  0.00     0.149 C 
HETATM    9  C8  UNL     1      23.464   4.506  49.597  1.00  0.00     0.078 C 
HETATM   10  C9  UNL     1      22.327   3.500  49.705  1.00  0.00     0.185 C 
HETATM   11  O1  UNL     1      22.860   2.435  50.365  1.00  0.00    -0.389 OA
HETATM   12  C10 UNL     1      23.460   2.809  51.635  1.00  0.00     0.176 C 
HETATM   13  C11 UNL     1      24.268   1.655  52.011  1.00  0.00     0.043 C 
HETATM   14  C16 UNL     1      25.658   1.855  52.358  1.00  0.00    -0.063 A 
HETATM   15  O3  UNL     1      26.614   1.841  53.345  1.00  0.00     0.000 OA
HETATM   16  C17 UNL     1      26.351   1.166  54.587  1.00  0.00     0.000 C 
HETATM   17  C18 UNL     1      26.841   2.274  51.870  1.00  0.00     0.104 A 
HETATM   18  C19 UNL     1      26.623   2.804  50.363  1.00  0.00     0.256 C 
HETATM   19  N4  UNL     1      26.015   3.321  49.333  1.00  0.00    -0.417 NA
HETATM   20  H7  UNL     1      26.504   5.290  48.989  1.00  0.00     0.161 HD
ENDROOT
BRANCH  13  21
HETATM   21  C12 UNL     1      23.613   0.378  52.301  1.00  0.00     0.075 C 
BRANCH  21  22
HETATM   22  C13 UNL     1      22.863   0.240  53.594  1.00  0.00     0.356 C 
HETATM   23  N3  UNL     1      23.174  -0.895  54.389  1.00  0.00     0.114 N 
HETATM   24  C14 UNL     1      21.809  -1.483  54.510  1.00  0.00     0.299 C 
HETATM   25  H16 UNL     1      23.624  -0.746  55.281  1.00  0.00     0.319 HD
HETATM   26  C15 UNL     1      20.968  -0.182  54.582  1.00  0.00     0.200 C 
HETATM   27  O2  UNL     1      21.565   0.604  53.615  1.00  0.00    -0.356 OA
ENDBRANCH  21  22
ENDBRANCH  13  21
BRANCH   1  28
HETATM   28  N1  UNL     1      21.742   5.535  50.879  1.00  0.00    -0.294 NA
HETATM   29  C1  UNL     1      20.548   5.996  50.571  1.00  0.00     0.144 C 
ENDBRANCH   1  28
TORSDOF 3
ENDMDL
MODEL 5
REMARK VINA RESULT:      -6.9      6.249     11.243
REMARK  3 active torsions:
REMARK  status: ('A' for Active; 'I' for Inactive)
REMARK    1  A    between atoms: N1_2  and  C2_3 
REMARK    2  A    between atoms: C11_15  and  C12_16 
REMARK    3  A    between atoms: C12_16  and  C13_17 
ROOT
HETATM    1  C2  UNL     1      33.864   4.257  46.949  1.00  0.00     0.118 C 
HETATM    2  C3  UNL     1      34.856   3.780  47.954  1.00  0.00     0.049 C 
HETATM    3  C4  UNL     1      34.259   4.066  45.562  1.00  0.00     0.137 C 
HETATM    4  F1  UNL     1      35.045   2.969  45.426  1.00  0.00    -0.207 F 
HETATM    5  C5  UNL     1      34.014   4.698  44.449  1.00  0.00     0.030 C 
HETATM    6  C6  UNL     1      34.328   5.995  44.540  1.00  0.00     0.100 C 
HETATM    7  N2  UNL     1      34.043   6.885  45.682  1.00  0.00    -0.369 N 
HETATM    8  C7  UNL     1      33.256   6.980  46.997  1.00  0.00     0.149 C 
HETATM    9  C8  UNL     1      33.365   5.633  47.296  1.00  0.00     0.078 C 
HETATM   10  C9  UNL     1      32.568   5.340  48.558  1.00  0.00     0.185 C 
HETATM   11  O1  UNL     1      31.504   6.188  48.508  1.00  0.00    -0.389 OA
HETATM   12  C10 UNL     1      30.749   6.062  47.272  1.00  0.00     0.176 C 
HETATM   13  C11 UNL     1      29.904   7.249  47.237  1.00  0.00     0.043 C 
HETATM   14  C16 UNL     1      29.913   8.083  46.055  1.00  0.00    -0.063 A 
HETATM   15  O3  UNL     1      29.221   8.536  44.958  1.00  0.00     0.000 OA
HETATM   16  C17 UNL     1      27.792   8.388  44.901  1.00  0.00     0.000 C 
HETATM   17  C18 UNL     1      30.702   8.865  45.294  1.00  0.00     0.104 A 
HETATM   18  C19 UNL     1      32.205   8.811  45.877  1.00  0.00     0.256 C 
HETATM   19  N4  UNL     1      33.257   8.336  46.479  1.00  0.00    -0.417 NA
HETATM   20  H7  UNL     1      34.700   7.635  45.190  1.00  0.00     0.161 HD
ENDROOT
BRANCH  13  21
HETATM   21  C12 UNL     1      28.869   7.430  48.257  1.00  0.00     0.075 C 
BRANCH  21  22
HETATM   22  C13 UNL     1      27.642   6.567  48.187  1.00  0.00     0.356 C 
HETATM   23  N3  UNL     1      26.403   7.204  48.465  1.00  0.00     0.114 N 
HETATM   24  C14 UNL     1      25.928   6.326  49.573  1.00  0.00     0.299 C 
HETATM   25  H16 UNL     1      25.733   7.296  47.715  1.00  0.00     0.319 HD
HETATM   26  C15 UNL     1      26.473   4.961  49.080  1.00  0.00     0.200 C 
HETATM   27  O2  UNL     1      27.735   5.297  48.629  1.00  0.00    -0.356 OA
ENDBRANCH  21  22
ENDBRANCH  13  21
BRANCH   1  28
HETATM   28  N1  UNL     1      32.661   3.363  47.164  1.00  0.00    -0.294 NA
HETATM   29  C1  UNL     1      33.050   2.156  47.518  1.00  0.00     0.144 C 
ENDBRANCH   1  28
TORSDOF 3
ENDMDL
MODEL 6
REMARK VINA RESULT:      -6.9      2.644      5.103
REMARK  3 active torsions:
REMARK  status: ('A' for Active; 'I' for Inactive)
REMARK    1  A    between atoms: N1_2  and  C2_3 
REMARK    2  A    between atoms: C11_15  and  C12_16 
REMARK    3  A    between atoms: C12_16  and  C13_17 
ROOT
HETATM    1  C2  UNL     1      24.834   1.219  52.458  1.00  0.00     0.118 C 
HETATM    2  C3  UNL     1      25.957   0.250  52.314  1.00  0.00     0.049 C 
HETATM    3  C4  UNL     1      23.628   0.672  53.061  1.00  0.00     0.137 C 
HETATM    4  F1  UNL     1      23.928  -0.314  53.942  1.00  0.00    -0.207 F 
HETATM    5  C5  UNL     1      22.355   0.930  52.950  1.00  0.00     0.030 C 
HETATM    6  C6  UNL     1      21.951   0.874  51.676  1.00  0.00     0.100 C 
HETATM    7  N2  UNL     1      22.667   1.422  50.508  1.00  0.00    -0.369 N 
HETATM    8  C7  UNL     1      23.837   2.328  50.099  1.00  0.00     0.149 C 
HETATM    9  C8  UNL     1      24.626   1.996  51.187  1.00  0.00     0.078 C 
HETATM   10  C9  UNL     1      25.895   2.834  51.152  1.00  0.00     0.185 C 
HETATM   11  O1  UNL     1      25.514   4.030  50.624  1.00  0.00    -0.389 OA
HETATM   12  C10 UNL     1      24.409   4.634  51.350  1.00  0.00     0.176 C 
HETATM   13  C11 UNL     1      23.916   5.680  50.463  1.00  0.00     0.043 C 
HETATM   14  C16 UNL     1      22.506   5.721  50.142  1.00  0.00    -0.063 A 
HETATM   15  O3  UNL     1      21.311   6.384  50.281  1.00  0.00     0.000 OA
HETATM   16  C17 UNL     1      21.297   7.749  50.732  1.00  0.00     0.000 C 
HETATM   17  C18 UNL     1      21.515   5.027  49.550  1.00  0.00     0.104 A 
HETATM   18  C19 UNL     1      22.093   3.600  49.072  1.00  0.00     0.256 C 
HETATM   19  N4  UNL     1      22.843   2.535  49.062  1.00  0.00    -0.417 NA
HETATM   20  H7  UNL     1      21.934   0.876  49.873  1.00  0.00     0.161 HD
ENDROOT
BRANCH  13  21
HETATM   21  C12 UNL     1      24.779   6.818  50.138  1.00  0.00     0.075 C 
BRANCH  21  22
HETATM   22  C13 UNL     1      25.721   6.688  48.977  1.00  0.00     0.356 C 
HETATM   23  N3  UNL     1      27.066   6.354  49.287  1.00  0.00     0.114 N 
HETATM   24  C14 UNL     1      27.754   7.502  48.630  1.00  0.00     0.299 C 
HETATM   25  H16 UNL     1      27.417   5.455  48.988  1.00  0.00     0.319 HD
HETATM   26  C15 UNL     1      26.835   7.689  47.395  1.00  0.00     0.200 C 
HETATM   27  O2  UNL     1      25.576   7.544  47.945  1.00  0.00    -0.356 OA
ENDBRANCH  21  22
ENDBRANCH  13  21
BRANCH   1  28
HETATM   28  N1  UNL     1      25.357   2.247  53.438  1.00  0.00    -0.294 NA
HETATM   29  C1  UNL     1      26.305   1.721  54.186  1.00  0.00     0.144 C 
ENDBRANCH   1  28
TORSDOF 3
ENDMDL
MODEL 7
REMARK VINA RESULT:      -6.8      2.987      6.984
REMARK  3 active torsions:
REMARK  status: ('A' for Active; 'I' for Inactive)
REMARK    1  A    between atoms: N1_2  and  C2_3 
REMARK    2  A    between atoms: C11_15  and  C12_16 
REMARK    3  A    between atoms: C12_16  and  C13_17 
ROOT
HETATM    1  C2  UNL     1      25.314   2.294  52.293  1.00  0.00     0.118 C 
HETATM    2  C3  UNL     1      25.777   2.258  53.710  1.00  0.00     0.049 C 
HETATM    3  C4  UNL     1      26.378   2.400  51.306  1.00  0.00     0.137 C 
HETATM    4  F1  UNL     1      27.511   1.798  51.744  1.00  0.00    -0.207 F 
HETATM    5  C5  UNL     1      26.468   2.924  50.115  1.00  0.00     0.030 C 
HETATM    6  C6  UNL     1      26.104   4.211  50.115  1.00  0.00     0.100 C 
HETATM    7  N2  UNL     1      24.944   4.790  50.820  1.00  0.00    -0.369 N 
HETATM    8  C7  UNL     1      23.661   4.425  51.578  1.00  0.00     0.149 C 
HETATM    9  C8  UNL     1      24.175   3.261  52.123  1.00  0.00     0.078 C 
HETATM   10  C9  UNL     1      23.077   2.549  52.899  1.00  0.00     0.185 C 
HETATM   11  O1  UNL     1      21.931   2.816  52.214  1.00  0.00    -0.389 OA
HETATM   12  C10 UNL     1      22.021   2.443  50.811  1.00  0.00     0.176 C 
HETATM   13  C11 UNL     1      20.888   3.109  50.182  1.00  0.00     0.043 C 
HETATM   14  C16 UNL     1      21.117   3.932  49.015  1.00  0.00    -0.063 A 
HETATM   15  O3  UNL     1      20.938   4.090  47.662  1.00  0.00     0.000 OA
HETATM   16  C17 UNL     1      19.947   3.308  46.974  1.00  0.00     0.000 C 
HETATM   17  C18 UNL     1      21.753   5.039  48.585  1.00  0.00     0.104 A 
HETATM   18  C19 UNL     1      22.627   5.641  49.799  1.00  0.00     0.256 C 
HETATM   19  N4  UNL     1      23.333   5.661  50.894  1.00  0.00    -0.417 NA
HETATM   20  H7  UNL     1      25.361   5.790  50.567  1.00  0.00     0.161 HD
ENDROOT
BRANCH  13  21
HETATM   21  C12 UNL     1      19.525   2.724  50.555  1.00  0.00     0.075 C 
BRANCH  21  22
HETATM   22  C13 UNL     1      19.173   1.266  50.563  1.00  0.00     0.356 C 
HETATM   23  N3  UNL     1      18.308   0.816  49.531  1.00  0.00     0.114 N 
HETATM   24  C14 UNL     1      17.230   0.216  50.368  1.00  0.00     0.299 C 
HETATM   25  H16 UNL     1      18.677   0.179  48.840  1.00  0.00     0.319 HD
HETATM   26  C15 UNL     1      18.085  -0.357  51.528  1.00  0.00     0.200 C 
HETATM   27  O2  UNL     1      18.986   0.666  51.756  1.00  0.00    -0.356 OA
ENDBRANCH  21  22
ENDBRANCH  13  21
BRANCH   1  28
HETATM   28  N1  UNL     1      24.682   0.936  52.076  1.00  0.00    -0.294 NA
HETATM   29  C1  UNL     1      25.254   0.039  52.853  1.00  0.00     0.144 C 
ENDBRANCH   1  28
TORSDOF 3
ENDMDL
MODEL 8
REMARK VINA RESULT:      -6.7      3.372      6.958
REMARK  3 active torsions:
REMARK  status: ('A' for Active; 'I' for Inactive)
REMARK    1  A    between atoms: N1_2  and  C2_3 
REMARK    2  A    between atoms: C11_15  and  C12_16 
REMARK    3  A    between atoms: C12_16  and  C13_17 
ROOT
HETATM    1  C2  UNL     1      26.000   0.034  53.812  1.00  0.00     0.118 C 
HETATM    2  C3  UNL     1      26.050  -0.389  55.240  1.00  0.00     0.049 C 
HETATM    3  C4  UNL     1      27.278   0.445  53.251  1.00  0.00     0.137 C 
HETATM    4  F1  UNL     1      28.303  -0.226  53.833  1.00  0.00    -0.207 F 
HETATM    5  C5  UNL     1      27.638   1.286  52.323  1.00  0.00     0.030 C 
HETATM    6  C6  UNL     1      27.150   2.510  52.552  1.00  0.00     0.100 C 
HETATM    7  N2  UNL     1      25.783   2.835  53.005  1.00  0.00    -0.369 N 
HETATM    8  C7  UNL     1      24.388   2.234  53.222  1.00  0.00     0.149 C 
HETATM    9  C8  UNL     1      24.854   0.978  53.570  1.00  0.00     0.078 C 
HETATM   10  C9  UNL     1      23.668   0.046  53.768  1.00  0.00     0.185 C 
HETATM   11  O1  UNL     1      22.737   0.465  52.867  1.00  0.00    -0.389 OA
HETATM   12  C10 UNL     1      23.254   0.506  51.509  1.00  0.00     0.176 C 
HETATM   13  C11 UNL     1      22.276   1.292  50.768  1.00  0.00     0.043 C 
HETATM   14  C16 UNL     1      22.730   2.418  49.982  1.00  0.00    -0.063 A 
HETATM   15  O3  UNL     1      22.919   2.948  48.728  1.00  0.00     0.000 OA
HETATM   16  C17 UNL     1      22.251   2.366  47.596  1.00  0.00     0.000 C 
HETATM   17  C18 UNL     1      23.335   3.619  50.068  1.00  0.00     0.104 A 
HETATM   18  C19 UNL     1      23.765   3.876  51.600  1.00  0.00     0.256 C 
HETATM   19  N4  UNL     1      24.131   3.605  52.821  1.00  0.00    -0.417 NA
HETATM   20  H7  UNL     1      26.142   3.876  53.160  1.00  0.00     0.161 HD
ENDROOT
BRANCH  13  21
HETATM   21  C12 UNL     1      20.913   0.781  50.603  1.00  0.00     0.075 C 
BRANCH  21  22
HETATM   22  C13 UNL     1      19.768   1.726  50.817  1.00  0.00     0.356 C 
HETATM   23  N3  UNL     1      19.151   2.249  49.649  1.00  0.00     0.114 N 
HETATM   24  C14 UNL     1      19.304   3.705  49.931  1.00  0.00     0.299 C 
HETATM   25  H16 UNL     1      18.199   1.980  49.448  1.00  0.00     0.319 HD
HETATM   26  C15 UNL     1      19.109   3.698  51.469  1.00  0.00     0.200 C 
HETATM   27  O2  UNL     1      19.843   2.590  51.849  1.00  0.00    -0.356 OA
ENDBRANCH  21  22
ENDBRANCH  13  21
BRANCH   1  28
HETATM   28  N1  UNL     1      25.606  -1.224  53.068  1.00  0.00    -0.294 NA
HETATM   29  C1  UNL     1      26.680  -1.853  52.638  1.00  0.00     0.144 C 
ENDBRANCH   1  28
TORSDOF 3
ENDMDL
MODEL 9
REMARK VINA RESULT:      -6.7      8.097     10.585
REMARK  3 active torsions:
REMARK  status: ('A' for Active; 'I' for Inactive)
REMARK    1  A    between atoms: N1_2  and  C2_3 
REMARK    2  A    between atoms: C11_15  and  C12_16 
REMARK    3  A    between atoms: C12_16  and  C13_17 
ROOT
HETATM    1  C2  UNL     1      29.015   9.924  48.194  1.00  0.00     0.118 C 
HETATM    2  C3  UNL     1      27.675  10.175  47.590  1.00  0.00     0.049 C 
HETATM    3  C4  UNL     1      29.627  11.084  48.825  1.00  0.00     0.137 C 
HETATM    4  F1  UNL     1      28.684  11.918  49.330  1.00  0.00    -0.207 F 
HETATM    5  C5  UNL     1      30.856  11.475  49.016  1.00  0.00     0.030 C 
HETATM    6  C6  UNL     1      31.542  11.522  47.870  1.00  0.00     0.100 C 
HETATM    7  N2  UNL     1      31.511  10.514  46.792  1.00  0.00    -0.369 N 
HETATM    8  C7  UNL     1      31.030   9.097  46.451  1.00  0.00     0.149 C 
HETATM    9  C8  UNL     1      29.899   9.162  47.246  1.00  0.00     0.078 C 
HETATM   10  C9  UNL     1      29.197   7.813  47.221  1.00  0.00     0.185 C 
HETATM   11  O1  UNL     1      30.199   6.896  47.121  1.00  0.00    -0.389 OA
HETATM   12  C10 UNL     1      31.195   7.042  48.170  1.00  0.00     0.176 C 
HETATM   13  C11 UNL     1      32.330   6.251  47.710  1.00  0.00     0.043 C 
HETATM   14  C16 UNL     1      33.640   6.862  47.667  1.00  0.00    -0.063 A 
HETATM   15  O3  UNL     1      34.909   6.909  48.193  1.00  0.00     0.000 OA
HETATM   16  C17 UNL     1      35.390   5.821  49.001  1.00  0.00     0.000 C 
HETATM   17  C18 UNL     1      34.349   7.852  47.091  1.00  0.00     0.104 A 
HETATM   18  C19 UNL     1      33.369   8.710  46.142  1.00  0.00     0.256 C 
HETATM   19  N4  UNL     1      32.265   9.247  45.704  1.00  0.00    -0.417 NA
HETATM   20  H7  UNL     1      32.077  11.243  46.171  1.00  0.00     0.161 HD
ENDROOT
BRANCH  13  21
HETATM   21  C12 UNL     1      32.189   4.801  47.566  1.00  0.00     0.075 C 
BRANCH  21  22
HETATM   22  C13 UNL     1      32.784   4.145  46.354  1.00  0.00     0.356 C 
HETATM   23  N3  UNL     1      33.936   3.343  46.569  1.00  0.00     0.114 N 
HETATM   24  C14 UNL     1      34.873   4.015  45.624  1.00  0.00     0.299 C 
HETATM   25  H16 UNL     1      33.862   2.347  46.416  1.00  0.00     0.319 HD
HETATM   26  C15 UNL     1      33.883   4.384  44.489  1.00  0.00     0.200 C 
HETATM   27  O2  UNL     1      32.786   4.836  45.196  1.00  0.00    -0.356 OA
ENDBRANCH  21  22
ENDBRANCH  13  21
BRANCH   1  28
HETATM   28  N1  UNL     1      28.738   8.943  49.312  1.00  0.00    -0.294 NA
HETATM   29  C1  UNL     1      27.593   9.229  49.896  1.00  0.00     0.144 C 
ENDBRANCH   1  28
TORSDOF 3
ENDMDL
