MODEL 1
REMARK VINA RESULT:      -8.4      0.000      0.000
REMARK  3 active torsions:
REMARK  status: ('A' for Active; 'I' for Inactive)
REMARK       I    between atoms: N1_2  and  C2_3 
REMARK       I    between atoms: C2_3  and  N2_5 
REMARK    1  A    between atoms: N2_5  and  C3_6 
REMARK    2  A    between atoms: C8_13  and  N5_14 
REMARK    3  A    between atoms: N5_14  and  C9_15 
ROOT
HETATM    1  C3  UNL     1      24.976  -0.704  54.402  1.00  0.00     0.037 A 
HETATM    2  C4  UNL     1      24.208  -1.315  55.362  1.00  0.00     0.032 A 
HETATM    3  C5  UNL     1      22.830  -1.358  55.383  1.00  0.00     0.035 A 
HETATM    4  C6  UNL     1      22.158  -0.735  54.352  1.00  0.00     0.072 A 
HETATM    5  N3  UNL     1      20.801  -0.714  54.294  1.00  0.00    -0.241 NA
HETATM    6  C7  UNL     1      20.164  -0.081  53.272  1.00  0.00     0.236 A 
HETATM    7  N4  UNL     1      20.911   0.516  52.328  1.00  0.00    -0.224 NA
HETATM    8  C8  UNL     1      22.254   0.531  52.325  1.00  0.00     0.142 A 
HETATM    9  C15 UNL     1      22.885  -0.113  53.368  1.00  0.00     0.041 A 
HETATM   10  C16 UNL     1      24.259  -0.100  53.397  1.00  0.00     0.047 A 
ENDROOT
BRANCH   8  11
HETATM   11  N5  UNL     1      22.898   1.214  51.265  1.00  0.00    -0.340 N 
HETATM   12  H9  UNL     1      23.027   0.500  50.499  1.00  0.00     0.167 HD
BRANCH  11  13
HETATM   13  C9  UNL     1      23.331   2.554  51.117  1.00  0.00     0.033 A 
HETATM   14  C10 UNL     1      23.901   2.976  49.940  1.00  0.00     0.031 A 
HETATM   15  C11 UNL     1      24.332   4.298  49.770  1.00  0.00     0.021 A 
HETATM   16  C12 UNL     1      24.150   5.157  50.855  1.00  0.00     0.011 A 
HETATM   17 BR1  UNL     1      24.732   6.958  50.638  1.00  0.00    -0.051 Br
HETATM   18  C13 UNL     1      23.571   4.715  52.044  1.00  0.00     0.021 A 
HETATM   19  C14 UNL     1      23.154   3.402  52.183  1.00  0.00     0.031 A 
ENDBRANCH  11  13
ENDBRANCH   8  11
BRANCH   1  20
HETATM   20  N2  UNL     1      26.387  -0.633  54.375  1.00  0.00    -0.309 N 
HETATM   21  C2  UNL     1      27.234   0.477  54.481  1.00  0.00     0.320 C 
HETATM   22  N1  UNL     1      28.652   0.453  54.440  1.00  0.00    -0.347 N 
HETATM   23  O1  UNL     1      26.738   1.607  54.624  1.00  0.00    -0.247 OA
HETATM   24  C1  UNL     1      29.385   1.720  54.561  1.00  0.00     0.151 C 
HETATM   25  H4  UNL     1      29.127  -0.473  54.322  1.00  0.00     0.163 HD
HETATM   26  H5  UNL     1      26.944  -1.514  54.260  1.00  0.00     0.170 HD
ENDBRANCH   1  20
TORSDOF 3
ENDMDL
MODEL 2
REMARK VINA RESULT:      -8.2      3.394      5.916
REMARK  3 active torsions:
REMARK  status: ('A' for Active; 'I' for Inactive)
REMARK       I    between atoms: N1_2  and  C2_3 
REMARK       I    between atoms: C2_3  and  N2_5 
REMARK    1  A    between atoms: N2_5  and  C3_6 
REMARK    2  A    between atoms: C8_13  and  N5_14 
REMARK    3  A    between atoms: N5_14  and  C9_15 
ROOT
HETATM    1  C3  UNL     1      24.297   3.508  49.748  1.00  0.00     0.037 A 
HETATM    2  C4  UNL     1      23.296   3.317  48.828  1.00  0.00     0.032 A 
HETATM    3  C5  UNL     1      22.255   2.421  48.946  1.00  0.00     0.035 A 
HETATM    4  C6  UNL     1      22.208   1.646  50.086  1.00  0.00     0.072 A 
HETATM    5  N3  UNL     1      21.227   0.727  50.285  1.00  0.00    -0.241 NA
HETATM    6  C7  UNL     1      21.213  -0.033  51.413  1.00  0.00     0.236 A 
HETATM    7  N4  UNL     1      22.189   0.152  52.318  1.00  0.00    -0.224 NA
HETATM    8  C8  UNL     1      23.185   1.042  52.184  1.00  0.00     0.142 A 
HETATM    9  C15 UNL     1      23.187   1.804  51.035  1.00  0.00     0.041 A 
HETATM   10  C16 UNL     1      24.204   2.713  50.865  1.00  0.00     0.047 A 
ENDROOT
BRANCH   8  11
HETATM   11  N5  UNL     1      24.147   1.110  53.222  1.00  0.00    -0.340 N 
HETATM   12  H9  UNL     1      23.674   1.612  54.020  1.00  0.00     0.167 HD
BRANCH  11  13
HETATM   13  C9  UNL     1      25.483   0.650  53.315  1.00  0.00     0.033 A 
HETATM   14  C10 UNL     1      25.823  -0.598  52.851  1.00  0.00     0.031 A 
HETATM   15  C11 UNL     1      27.139  -1.072  52.929  1.00  0.00     0.021 A 
HETATM   16  C12 UNL     1      28.079  -0.212  53.498  1.00  0.00     0.011 A 
HETATM   17 BR1  UNL     1      29.873  -0.843  53.611  1.00  0.00    -0.051 Br
HETATM   18  C13 UNL     1      27.719   1.052  53.965  1.00  0.00     0.021 A 
HETATM   19  C14 UNL     1      26.410   1.494  53.875  1.00  0.00     0.031 A 
ENDBRANCH  11  13
ENDBRANCH   8  11
BRANCH   1  20
HETATM   20  N2  UNL     1      25.382   4.406  49.634  1.00  0.00    -0.309 N 
HETATM   21  C2  UNL     1      25.438   5.783  49.879  1.00  0.00     0.320 C 
HETATM   22  N1  UNL     1      26.581   6.611  49.732  1.00  0.00    -0.347 N 
HETATM   23  O1  UNL     1      24.415   6.374  50.260  1.00  0.00    -0.247 OA
HETATM   24  C1  UNL     1      26.459   8.045  50.028  1.00  0.00     0.151 C 
HETATM   25  H4  UNL     1      27.475   6.169  49.414  1.00  0.00     0.163 HD
HETATM   26  H5  UNL     1      26.316   4.047  49.321  1.00  0.00     0.170 HD
ENDBRANCH   1  20
TORSDOF 3
ENDMDL
MODEL 3
REMARK VINA RESULT:      -7.9      1.840      2.501
REMARK  3 active torsions:
REMARK  status: ('A' for Active; 'I' for Inactive)
REMARK       I    between atoms: N1_2  and  C2_3 
REMARK       I    between atoms: C2_3  and  N2_5 
REMARK    1  A    between atoms: N2_5  and  C3_6 
REMARK    2  A    between atoms: C8_13  and  N5_14 
REMARK    3  A    between atoms: N5_14  and  C9_15 
ROOT
HETATM    1  C3  UNL     1      24.430   0.241  53.568  1.00  0.00     0.037 A 
HETATM    2  C4  UNL     1      23.509  -0.761  53.385  1.00  0.00     0.032 A 
HETATM    3  C5  UNL     1      22.325  -0.648  52.688  1.00  0.00     0.035 A 
HETATM    4  C6  UNL     1      22.034   0.575  52.122  1.00  0.00     0.072 A 
HETATM    5  N3  UNL     1      20.885   0.786  51.427  1.00  0.00    -0.241 NA
HETATM    6  C7  UNL     1      20.618   2.007  50.890  1.00  0.00     0.236 A 
HETATM    7  N4  UNL     1      21.518   2.990  51.064  1.00  0.00    -0.224 NA
HETATM    8  C8  UNL     1      22.671   2.849  51.737  1.00  0.00     0.142 A 
HETATM    9  C15 UNL     1      22.927   1.606  52.276  1.00  0.00     0.041 A 
HETATM   10  C16 UNL     1      24.094   1.438  52.983  1.00  0.00     0.047 A 
ENDROOT
BRANCH   8  11
HETATM   11  N5  UNL     1      23.510   3.984  51.842  1.00  0.00    -0.340 N 
HETATM   12  H9  UNL     1      23.283   4.424  52.773  1.00  0.00     0.167 HD
BRANCH  11  13
HETATM   13  C9  UNL     1      24.489   4.530  50.976  1.00  0.00     0.033 A 
HETATM   14  C10 UNL     1      25.372   3.708  50.318  1.00  0.00     0.031 A 
HETATM   15  C11 UNL     1      26.345   4.226  49.452  1.00  0.00     0.021 A 
HETATM   16  C12 UNL     1      26.366   5.612  49.297  1.00  0.00     0.011 A 
HETATM   17 BR1  UNL     1      27.684   6.330  48.123  1.00  0.00    -0.051 Br
HETATM   18  C13 UNL     1      25.463   6.434  49.972  1.00  0.00     0.021 A 
HETATM   19  C14 UNL     1      24.513   5.895  50.821  1.00  0.00     0.031 A 
ENDBRANCH  11  13
ENDBRANCH   8  11
BRANCH   1  20
HETATM   20  N2  UNL     1      25.637   0.148  54.296  1.00  0.00    -0.309 N 
HETATM   21  C2  UNL     1      26.928  -0.176  53.859  1.00  0.00     0.320 C 
HETATM   22  N1  UNL     1      28.090  -0.249  54.670  1.00  0.00    -0.347 N 
HETATM   23  O1  UNL     1      27.115  -0.432  52.659  1.00  0.00    -0.247 OA
HETATM   24  C1  UNL     1      29.368  -0.612  54.043  1.00  0.00     0.151 C 
HETATM   25  H4  UNL     1      27.994  -0.043  55.692  1.00  0.00     0.163 HD
HETATM   26  H5  UNL     1      25.633   0.339  55.327  1.00  0.00     0.170 HD
ENDBRANCH   1  20
TORSDOF 3
ENDMDL
MODEL 4
REMARK VINA RESULT:      -7.8      3.967      6.517
REMARK  3 active torsions:
REMARK  status: ('A' for Active; 'I' for Inactive)
REMARK       I    between atoms: N1_2  and  C2_3 
REMARK       I    between atoms: C2_3  and  N2_5 
REMARK    1  A    between atoms: N2_5  and  C3_6 
REMARK    2  A    between atoms: C8_13  and  N5_14 
REMARK    3  A    between atoms: N5_14  and  C9_15 
ROOT
HETATM    1  C3  UNL     1      25.289   5.361  49.427  1.00  0.00     0.037 A 
HETATM    2  C4  UNL     1      24.189   5.402  48.606  1.00  0.00     0.032 A 
HETATM    3  C5  UNL     1      23.021   4.694  48.790  1.00  0.00     0.035 A 
HETATM    4  C6  UNL     1      22.941   3.872  49.895  1.00  0.00     0.072 A 
HETATM    5  N3  UNL     1      21.835   3.127  50.153  1.00  0.00    -0.241 NA
HETATM    6  C7  UNL     1      21.790   2.314  51.243  1.00  0.00     0.236 A 
HETATM    7  N4  UNL     1      22.863   2.273  52.052  1.00  0.00    -0.224 NA
HETATM    8  C8  UNL     1      23.984   2.984  51.856  1.00  0.00     0.142 A 
HETATM    9  C15 UNL     1      24.016   3.802  50.746  1.00  0.00     0.041 A 
HETATM   10  C16 UNL     1      25.158   4.530  50.514  1.00  0.00     0.047 A 
ENDROOT
BRANCH   8  11
HETATM   11  N5  UNL     1      25.033   2.823  52.793  1.00  0.00    -0.340 N 
HETATM   12  H9  UNL     1      24.945   3.631  53.466  1.00  0.00     0.167 HD
BRANCH  11  13
HETATM   13  C9  UNL     1      26.049   1.845  52.929  1.00  0.00     0.033 A 
HETATM   14  C10 UNL     1      27.123   2.068  53.757  1.00  0.00     0.031 A 
HETATM   15  C11 UNL     1      28.136   1.112  53.911  1.00  0.00     0.021 A 
HETATM   16  C12 UNL     1      27.994  -0.069  53.183  1.00  0.00     0.011 A 
HETATM   17 BR1  UNL     1      29.365  -1.377  53.381  1.00  0.00    -0.051 Br
HETATM   18  C13 UNL     1      26.899  -0.281  52.346  1.00  0.00     0.021 A 
HETATM   19  C14 UNL     1      25.912   0.681  52.213  1.00  0.00     0.031 A 
ENDBRANCH  11  13
ENDBRANCH   8  11
BRANCH   1  20
HETATM   20  N2  UNL     1      26.500   6.064  49.243  1.00  0.00    -0.309 N 
HETATM   21  C2  UNL     1      27.752   5.601  48.818  1.00  0.00     0.320 C 
HETATM   22  N1  UNL     1      28.924   6.386  48.665  1.00  0.00    -0.347 N 
HETATM   23  O1  UNL     1      27.893   4.399  48.542  1.00  0.00    -0.247 OA
HETATM   24  C1  UNL     1      30.159   5.733  48.213  1.00  0.00     0.151 C 
HETATM   25  H4  UNL     1      28.867   7.409  48.883  1.00  0.00     0.163 HD
HETATM   26  H5  UNL     1      26.533   7.094  49.438  1.00  0.00     0.170 HD
ENDBRANCH   1  20
TORSDOF 3
ENDMDL
MODEL 5
REMARK VINA RESULT:      -7.6      3.070      4.687
REMARK  3 active torsions:
REMARK  status: ('A' for Active; 'I' for Inactive)
REMARK       I    between atoms: N1_2  and  C2_3 
REMARK       I    between atoms: C2_3  and  N2_5 
REMARK    1  A    between atoms: N2_5  and  C3_6 
REMARK    2  A    between atoms: C8_13  and  N5_14 
REMARK    3  A    between atoms: N5_14  and  C9_15 
ROOT
HETATM    1  C3  UNL     1      24.401   1.930  52.343  1.00  0.00     0.037 A 
HETATM    2  C4  UNL     1      23.422   1.052  51.948  1.00  0.00     0.032 A 
HETATM    3  C5  UNL     1      22.612   1.196  50.842  1.00  0.00     0.035 A 
HETATM    4  C6  UNL     1      22.795   2.317  50.059  1.00  0.00     0.072 A 
HETATM    5  N3  UNL     1      22.036   2.551  48.957  1.00  0.00    -0.241 NA
HETATM    6  C7  UNL     1      22.230   3.671  48.211  1.00  0.00     0.236 A 
HETATM    7  N4  UNL     1      23.189   4.532  48.593  1.00  0.00    -0.224 NA
HETATM    8  C8  UNL     1      23.974   4.361  49.668  1.00  0.00     0.142 A 
HETATM    9  C15 UNL     1      23.764   3.221  50.415  1.00  0.00     0.041 A 
HETATM   10  C16 UNL     1      24.545   3.028  51.530  1.00  0.00     0.047 A 
ENDROOT
BRANCH   8  11
HETATM   11  N5  UNL     1      24.933   5.365  49.945  1.00  0.00    -0.340 N 
HETATM   12  H9  UNL     1      24.574   5.881  50.791  1.00  0.00     0.167 HD
BRANCH  11  13
HETATM   13  C9  UNL     1      26.154   5.717  49.318  1.00  0.00     0.033 A 
HETATM   14  C10 UNL     1      26.430   7.029  49.019  1.00  0.00     0.031 A 
HETATM   15  C11 UNL     1      27.633   7.401  48.405  1.00  0.00     0.021 A 
HETATM   16  C12 UNL     1      28.529   6.371  48.115  1.00  0.00     0.011 A 
HETATM   17 BR1  UNL     1      30.168   6.861  47.278  1.00  0.00    -0.051 Br
HETATM   18  C13 UNL     1      28.235   5.043  48.424  1.00  0.00     0.021 A 
HETATM   19  C14 UNL     1      27.038   4.705  49.032  1.00  0.00     0.031 A 
ENDBRANCH  11  13
ENDBRANCH   8  11
BRANCH   1  20
HETATM   20  N2  UNL     1      25.227   1.808  53.483  1.00  0.00    -0.309 N 
HETATM   21  C2  UNL     1      26.407   1.077  53.665  1.00  0.00     0.320 C 
HETATM   22  N1  UNL     1      27.173   1.011  54.858  1.00  0.00    -0.347 N 
HETATM   23  O1  UNL     1      26.859   0.410  52.720  1.00  0.00    -0.247 OA
HETATM   24  C1  UNL     1      28.388   0.186  54.874  1.00  0.00     0.151 C 
HETATM   25  H4  UNL     1      26.842   1.554  55.690  1.00  0.00     0.163 HD
HETATM   26  H5  UNL     1      24.969   2.319  54.362  1.00  0.00     0.170 HD
ENDBRANCH   1  20
TORSDOF 3
ENDMDL
MODEL 6
REMARK VINA RESULT:      -7.5      4.387      6.945
REMARK  3 active torsions:
REMARK  status: ('A' for Active; 'I' for Inactive)
REMARK       I    between atoms: N1_2  and  C2_3 
REMARK       I    between atoms: C2_3  and  N2_5 
REMARK    1  A    between atoms: N2_5  and  C3_6 
REMARK    2  A    between atoms: C8_13  and  N5_14 
REMARK    3  A    between atoms: N5_14  and  C9_15 
ROOT
HETATM    1  C3  UNL     1      24.690   7.011  50.774  1.00  0.00     0.037 A 
HETATM    2  C4  UNL     1      23.548   7.772  50.808  1.00  0.00     0.032 A 
HETATM    3  C5  UNL     1      22.259   7.293  50.716  1.00  0.00     0.035 A 
HETATM    4  C6  UNL     1      22.094   5.930  50.577  1.00  0.00     0.072 A 
HETATM    5  N3  UNL     1      20.863   5.367  50.465  1.00  0.00    -0.241 NA
HETATM    6  C7  UNL     1      20.731   4.022  50.316  1.00  0.00     0.236 A 
HETATM    7  N4  UNL     1      21.846   3.272  50.285  1.00  0.00    -0.224 NA
HETATM    8  C8  UNL     1      23.090   3.764  50.391  1.00  0.00     0.142 A 
HETATM    9  C15 UNL     1      23.208   5.130  50.540  1.00  0.00     0.041 A 
HETATM   10  C16 UNL     1      24.472   5.661  50.637  1.00  0.00     0.047 A 
ENDROOT
BRANCH   8  11
HETATM   11  N5  UNL     1      24.166   2.844  50.329  1.00  0.00    -0.340 N 
HETATM   12  H9  UNL     1      24.319   2.650  49.304  1.00  0.00     0.167 HD
BRANCH  11  13
HETATM   13  C9  UNL     1      24.959   2.235  51.332  1.00  0.00     0.033 A 
HETATM   14  C10 UNL     1      24.371   1.508  52.338  1.00  0.00     0.031 A 
HETATM   15  C11 UNL     1      25.136   0.892  53.337  1.00  0.00     0.021 A 
HETATM   16  C12 UNL     1      26.519   1.057  53.253  1.00  0.00     0.011 A 
HETATM   17 BR1  UNL     1      27.573   0.226  54.606  1.00  0.00    -0.051 Br
HETATM   18  C13 UNL     1      27.103   1.799  52.226  1.00  0.00     0.021 A 
HETATM   19  C14 UNL     1      26.321   2.396  51.252  1.00  0.00     0.031 A 
ENDBRANCH  11  13
ENDBRANCH   8  11
BRANCH   1  20
HETATM   20  N2  UNL     1      26.018   7.487  50.848  1.00  0.00    -0.309 N 
HETATM   21  C2  UNL     1      26.724   8.321  49.972  1.00  0.00     0.320 C 
HETATM   22  N1  UNL     1      28.069   8.747  50.127  1.00  0.00    -0.347 N 
HETATM   23  O1  UNL     1      26.158   8.749  48.953  1.00  0.00    -0.247 OA
HETATM   24  C1  UNL     1      28.656   9.622  49.103  1.00  0.00     0.151 C 
HETATM   25  H4  UNL     1      28.598   8.419  50.969  1.00  0.00     0.163 HD
HETATM   26  H5  UNL     1      26.621   7.207  51.659  1.00  0.00     0.170 HD
ENDBRANCH   1  20
TORSDOF 3
ENDMDL
MODEL 7
REMARK VINA RESULT:      -7.4      4.516      7.166
REMARK  3 active torsions:
REMARK  status: ('A' for Active; 'I' for Inactive)
REMARK       I    between atoms: N1_2  and  C2_3 
REMARK       I    between atoms: C2_3  and  N2_5 
REMARK    1  A    between atoms: N2_5  and  C3_6 
REMARK    2  A    between atoms: C8_13  and  N5_14 
REMARK    3  A    between atoms: N5_14  and  C9_15 
ROOT
HETATM    1  C3  UNL     1      26.346   6.590  48.881  1.00  0.00     0.037 A 
HETATM    2  C4  UNL     1      25.500   7.075  47.914  1.00  0.00     0.032 A 
HETATM    3  C5  UNL     1      24.151   6.809  47.818  1.00  0.00     0.035 A 
HETATM    4  C6  UNL     1      23.595   5.984  48.774  1.00  0.00     0.072 A 
HETATM    5  N3  UNL     1      22.277   5.655  48.754  1.00  0.00    -0.241 NA
HETATM    6  C7  UNL     1      21.758   4.829  49.701  1.00  0.00     0.236 A 
HETATM    7  N4  UNL     1      22.581   4.353  50.652  1.00  0.00    -0.224 NA
HETATM    8  C8  UNL     1      23.890   4.640  50.730  1.00  0.00     0.142 A 
HETATM    9  C15 UNL     1      24.402   5.477  49.761  1.00  0.00     0.041 A 
HETATM   10  C16 UNL     1      25.743   5.775  49.809  1.00  0.00     0.047 A 
ENDROOT
BRANCH   8  11
HETATM   11  N5  UNL     1      24.627   4.051  51.786  1.00  0.00    -0.340 N 
HETATM   12  H9  UNL     1      24.773   4.815  52.497  1.00  0.00     0.167 HD
BRANCH  11  13
HETATM   13  C9  UNL     1      25.125   2.740  51.985  1.00  0.00     0.033 A 
HETATM   14  C10 UNL     1      26.340   2.369  51.461  1.00  0.00     0.031 A 
HETATM   15  C11 UNL     1      26.855   1.080  51.651  1.00  0.00     0.021 A 
HETATM   16  C12 UNL     1      26.070   0.200  52.398  1.00  0.00     0.011 A 
HETATM   17 BR1  UNL     1      26.757  -1.557  52.663  1.00  0.00    -0.051 Br
HETATM   18  C13 UNL     1      24.839   0.590  52.924  1.00  0.00     0.021 A 
HETATM   19  C14 UNL     1      24.356   1.871  52.720  1.00  0.00     0.031 A 
ENDBRANCH  11  13
ENDBRANCH   8  11
BRANCH   1  20
HETATM   20  N2  UNL     1      27.733   6.836  48.983  1.00  0.00    -0.309 N 
HETATM   21  C2  UNL     1      28.819   6.019  48.644  1.00  0.00     0.320 C 
HETATM   22  N1  UNL     1      30.191   6.352  48.786  1.00  0.00    -0.347 N 
HETATM   23  O1  UNL     1      28.605   4.890  48.173  1.00  0.00    -0.247 OA
HETATM   24  C1  UNL     1      31.203   5.367  48.384  1.00  0.00     0.151 C 
HETATM   25  H4  UNL     1      30.434   7.292  49.177  1.00  0.00     0.163 HD
HETATM   26  H5  UNL     1      28.066   7.754  49.365  1.00  0.00     0.170 HD
ENDBRANCH   1  20
TORSDOF 3
ENDMDL
MODEL 8
REMARK VINA RESULT:      -7.4      2.494      3.918
REMARK  3 active torsions:
REMARK  status: ('A' for Active; 'I' for Inactive)
REMARK       I    between atoms: N1_2  and  C2_3 
REMARK       I    between atoms: C2_3  and  N2_5 
REMARK    1  A    between atoms: N2_5  and  C3_6 
REMARK    2  A    between atoms: C8_13  and  N5_14 
REMARK    3  A    between atoms: N5_14  and  C9_15 
ROOT
HETATM    1  C3  UNL     1      26.316   0.976  52.344  1.00  0.00     0.037 A 
HETATM    2  C4  UNL     1      27.104   0.678  53.429  1.00  0.00     0.032 A 
HETATM    3  C5  UNL     1      26.700  -0.012  54.551  1.00  0.00     0.035 A 
HETATM    4  C6  UNL     1      25.392  -0.446  54.595  1.00  0.00     0.072 A 
HETATM    5  N3  UNL     1      24.900  -1.124  55.666  1.00  0.00    -0.241 NA
HETATM    6  C7  UNL     1      23.601  -1.528  55.688  1.00  0.00     0.236 A 
HETATM    7  N4  UNL     1      22.826  -1.242  54.628  1.00  0.00    -0.224 NA
HETATM    8  C8  UNL     1      23.249  -0.578  53.540  1.00  0.00     0.142 A 
HETATM    9  C15 UNL     1      24.567  -0.174  53.533  1.00  0.00     0.041 A 
HETATM   10  C16 UNL     1      25.023   0.520  52.437  1.00  0.00     0.047 A 
ENDROOT
BRANCH   8  11
HETATM   11  N5  UNL     1      22.307  -0.344  52.509  1.00  0.00    -0.340 N 
HETATM   12  H9  UNL     1      22.061  -1.293  52.123  1.00  0.00     0.167 HD
BRANCH  11  13
HETATM   13  C9  UNL     1      21.727   0.844  52.000  1.00  0.00     0.033 A 
HETATM   14  C10 UNL     1      22.016   1.268  50.725  1.00  0.00     0.031 A 
HETATM   15  C11 UNL     1      21.449   2.437  50.199  1.00  0.00     0.021 A 
HETATM   16  C12 UNL     1      20.581   3.139  51.035  1.00  0.00     0.011 A 
HETATM   17 BR1  UNL     1      19.804   4.731  50.333  1.00  0.00    -0.051 Br
HETATM   18  C13 UNL     1      20.297   2.697  52.327  1.00  0.00     0.021 A 
HETATM   19  C14 UNL     1      20.872   1.538  52.821  1.00  0.00     0.031 A 
ENDBRANCH  11  13
ENDBRANCH   8  11
BRANCH   1  20
HETATM   20  N2  UNL     1      26.707   1.700  51.196  1.00  0.00    -0.309 N 
HETATM   21  C2  UNL     1      26.242   2.925  50.703  1.00  0.00     0.320 C 
HETATM   22  N1  UNL     1      26.696   3.579  49.528  1.00  0.00    -0.347 N 
HETATM   23  O1  UNL     1      25.348   3.527  51.319  1.00  0.00    -0.247 OA
HETATM   24  C1  UNL     1      26.088   4.863  49.154  1.00  0.00     0.151 C 
HETATM   25  H4  UNL     1      27.450   3.119  48.966  1.00  0.00     0.163 HD
HETATM   26  H5  UNL     1      27.457   1.311  50.574  1.00  0.00     0.170 HD
ENDBRANCH   1  20
TORSDOF 3
ENDMDL
MODEL 9
REMARK VINA RESULT:      -7.3      3.335      5.548
REMARK  3 active torsions:
REMARK  status: ('A' for Active; 'I' for Inactive)
REMARK       I    between atoms: N1_2  and  C2_3 
REMARK       I    between atoms: C2_3  and  N2_5 
REMARK    1  A    between atoms: N2_5  and  C3_6 
REMARK    2  A    between atoms: C8_13  and  N5_14 
REMARK    3  A    between atoms: N5_14  and  C9_15 
ROOT
HETATM    1  C3  UNL     1      25.461   2.768  51.965  1.00  0.00     0.037 A 
HETATM    2  C4  UNL     1      25.992   3.123  50.750  1.00  0.00     0.032 A 
HETATM    3  C5  UNL     1      25.274   3.383  49.602  1.00  0.00     0.035 A 
HETATM    4  C6  UNL     1      23.901   3.282  49.674  1.00  0.00     0.072 A 
HETATM    5  N3  UNL     1      23.110   3.507  48.592  1.00  0.00    -0.241 NA
HETATM    6  C7  UNL     1      21.759   3.387  48.688  1.00  0.00     0.236 A 
HETATM    7  N4  UNL     1      21.233   3.043  49.877  1.00  0.00    -0.224 NA
HETATM    8  C8  UNL     1      21.956   2.808  50.983  1.00  0.00     0.142 A 
HETATM    9  C15 UNL     1      23.324   2.933  50.869  1.00  0.00     0.041 A 
HETATM   10  C16 UNL     1      24.089   2.683  51.984  1.00  0.00     0.047 A 
ENDROOT
BRANCH   8  11
HETATM   11  N5  UNL     1      21.254   2.443  52.158  1.00  0.00    -0.340 N 
HETATM   12  H9  UNL     1      21.405   3.233  52.840  1.00  0.00     0.167 HD
BRANCH  11  13
HETATM   13  C9  UNL     1      20.476   1.308  52.491  1.00  0.00     0.033 A 
HETATM   14  C10 UNL     1      20.904   0.430  53.457  1.00  0.00     0.031 A 
HETATM   15  C11 UNL     1      20.147  -0.697  53.806  1.00  0.00     0.021 A 
HETATM   16  C12 UNL     1      18.944  -0.876  53.122  1.00  0.00     0.011 A 
HETATM   17 BR1  UNL     1      17.906  -2.405  53.585  1.00  0.00    -0.051 Br
HETATM   18  C13 UNL     1      18.523   0.023  52.143  1.00  0.00     0.021 A 
HETATM   19  C14 UNL     1      19.291   1.128  51.819  1.00  0.00     0.031 A 
ENDBRANCH  11  13
ENDBRANCH   8  11
BRANCH   1  20
HETATM   20  N2  UNL     1      26.182   2.479  53.144  1.00  0.00    -0.309 N 
HETATM   21  C2  UNL     1      27.048   1.416  53.431  1.00  0.00     0.320 C 
HETATM   22  N1  UNL     1      27.732   1.203  54.656  1.00  0.00    -0.347 N 
HETATM   23  O1  UNL     1      27.264   0.558  52.559  1.00  0.00    -0.247 OA
HETATM   24  C1  UNL     1      28.601   0.026  54.785  1.00  0.00     0.151 C 
HETATM   25  H4  UNL     1      27.589   1.895  55.429  1.00  0.00     0.163 HD
HETATM   26  H5  UNL     1      26.098   3.120  53.970  1.00  0.00     0.170 HD
ENDBRANCH   1  20
TORSDOF 3
ENDMDL
