MODEL 1
REMARK VINA RESULT:      -8.0      0.000      0.000
REMARK  5 active torsions:
REMARK  status: ('A' for Active; 'I' for Inactive)
REMARK    1  A    between atoms: C3_3  and  C4_4 
REMARK    2  A    between atoms: C5_5  and  N1_6 
REMARK    3  A    between atoms: N1_6  and  C6_7 
REMARK    4  A    between atoms: C10_13  and  O1_14 
REMARK    5  A    between atoms: O1_14  and  C11_15 
ROOT
HETATM    1  C1  UNL     1      17.869  -2.546  53.778  1.00  0.00     0.018 C 
HETATM    2  C2  UNL     1      18.166  -1.619  53.045  1.00  0.00    -0.069 C 
HETATM    3  C3  UNL     1      18.502  -0.517  52.169  1.00  0.00     0.067 C 
HETATM    4  C18 UNL     1      17.646  -0.058  51.266  1.00  0.00    -0.001 C 
HETATM    5  C19 UNL     1      17.969   1.059  50.366  1.00  0.00     0.038 C 
ENDROOT
BRANCH   3   6
HETATM    6  C4  UNL     1      19.802   0.080  52.296  1.00  0.00    -0.035 C 
HETATM    7  C5  UNL     1      20.926   0.576  52.415  1.00  0.00     0.018 C 
BRANCH   7   8
HETATM    8  N1  UNL     1      22.212   1.168  52.565  1.00  0.00    -0.299 N 
HETATM    9  H2  UNL     1      22.117   2.046  52.022  1.00  0.00     0.178 HD
BRANCH   8  10
HETATM   10  C6  UNL     1      23.143   0.428  53.344  1.00  0.00     0.151 A 
HETATM   11  N2  UNL     1      22.620  -0.491  54.179  1.00  0.00    -0.223 NA
HETATM   12  C7  UNL     1      23.404  -1.254  54.969  1.00  0.00     0.236 A 
HETATM   13  N3  UNL     1      24.727  -1.094  54.924  1.00  0.00    -0.241 NA
HETATM   14  C8  UNL     1      25.328  -0.215  54.134  1.00  0.00     0.077 A 
HETATM   15  C9  UNL     1      26.694  -0.070  54.105  1.00  0.00     0.072 A 
HETATM   16  C15 UNL     1      24.495   0.544  53.344  1.00  0.00     0.076 A 
HETATM   17  C10 UNL     1      27.240   0.863  53.260  1.00  0.00     0.107 A 
HETATM   18  C13 UNL     1      26.413   1.623  52.468  1.00  0.00     0.136 A 
HETATM   19  C14 UNL     1      25.047   1.467  52.508  1.00  0.00     0.121 A 
HETATM   20  O3  UNL     1      26.949   2.578  51.601  1.00  0.00    -0.344 OA
HETATM   21  O2  UNL     1      24.315   2.267  51.685  1.00  0.00    -0.345 OA
HETATM   22  C16 UNL     1      24.794   2.917  50.544  1.00  0.00     0.202 C 
HETATM   23  C17 UNL     1      26.272   2.817  50.359  1.00  0.00     0.202 C 
BRANCH  17  24
HETATM   24  O1  UNL     1      28.602   1.022  53.218  1.00  0.00    -0.348 OA
BRANCH  24  25
HETATM   25  C11 UNL     1      29.471   0.459  54.164  1.00  0.00     0.171 C 
HETATM   26  C12 UNL     1      30.152  -0.740  53.534  1.00  0.00     0.034 C 
ENDBRANCH  24  25
ENDBRANCH  17  24
ENDBRANCH   8  10
ENDBRANCH   7   8
ENDBRANCH   3   6
TORSDOF 5
ENDMDL
MODEL 2
REMARK VINA RESULT:      -7.9      2.383      7.687
REMARK  5 active torsions:
REMARK  status: ('A' for Active; 'I' for Inactive)
REMARK    1  A    between atoms: C3_3  and  C4_4 
REMARK    2  A    between atoms: C5_5  and  N1_6 
REMARK    3  A    between atoms: N1_6  and  C6_7 
REMARK    4  A    between atoms: C10_13  and  O1_14 
REMARK    5  A    between atoms: O1_14  and  C11_15 
ROOT
HETATM    1  C1  UNL     1      28.849  -2.617  53.117  1.00  0.00     0.018 C 
HETATM    2  C2  UNL     1      28.465  -1.461  53.158  1.00  0.00    -0.069 C 
HETATM    3  C3  UNL     1      28.027  -0.082  53.208  1.00  0.00     0.067 C 
HETATM    4  C18 UNL     1      28.855   0.901  53.533  1.00  0.00    -0.001 C 
HETATM    5  C19 UNL     1      28.428   2.308  53.590  1.00  0.00     0.038 C 
ENDROOT
BRANCH   3   6
HETATM    6  C4  UNL     1      26.655   0.206  52.896  1.00  0.00    -0.035 C 
HETATM    7  C5  UNL     1      25.472   0.457  52.647  1.00  0.00     0.018 C 
BRANCH   7   8
HETATM    8  N1  UNL     1      24.106   0.724  52.351  1.00  0.00    -0.299 N 
HETATM    9  H2  UNL     1      24.176   1.415  51.582  1.00  0.00     0.178 HD
BRANCH   8  10
HETATM   10  C6  UNL     1      23.156   0.018  53.139  1.00  0.00     0.151 A 
HETATM   11  N2  UNL     1      23.638  -0.609  54.229  1.00  0.00    -0.223 NA
HETATM   12  C7  UNL     1      22.832  -1.311  55.054  1.00  0.00     0.236 A 
HETATM   13  N3  UNL     1      21.529  -1.388  54.782  1.00  0.00    -0.241 NA
HETATM   14  C8  UNL     1      20.968  -0.803  53.733  1.00  0.00     0.077 A 
HETATM   15  C9  UNL     1      19.621  -0.896  53.476  1.00  0.00     0.072 A 
HETATM   16  C15 UNL     1      21.822  -0.097  52.917  1.00  0.00     0.076 A 
HETATM   17  C10 UNL     1      19.117  -0.262  52.367  1.00  0.00     0.107 A 
HETATM   18  C13 UNL     1      19.965   0.444  51.549  1.00  0.00     0.136 A 
HETATM   19  C14 UNL     1      21.311   0.529  51.820  1.00  0.00     0.121 A 
HETATM   20  O3  UNL     1      19.472   1.096  50.417  1.00  0.00    -0.344 OA
HETATM   21  O2  UNL     1      22.067   1.253  50.948  1.00  0.00    -0.345 OA
HETATM   22  C16 UNL     1      21.586   2.230  50.071  1.00  0.00     0.202 C 
HETATM   23  C17 UNL     1      20.098   2.324  50.018  1.00  0.00     0.202 C 
BRANCH  17  24
HETATM   24  O1  UNL     1      17.775  -0.344  52.095  1.00  0.00    -0.348 OA
BRANCH  24  25
HETATM   25  C11 UNL     1      16.853  -0.960  52.954  1.00  0.00     0.171 C 
HETATM   26  C12 UNL     1      15.456  -0.571  52.512  1.00  0.00     0.034 C 
ENDBRANCH  24  25
ENDBRANCH  17  24
ENDBRANCH   8  10
ENDBRANCH   7   8
ENDBRANCH   3   6
TORSDOF 5
ENDMDL
MODEL 3
REMARK VINA RESULT:      -7.5      0.779      1.748
REMARK  5 active torsions:
REMARK  status: ('A' for Active; 'I' for Inactive)
REMARK    1  A    between atoms: C3_3  and  C4_4 
REMARK    2  A    between atoms: C5_5  and  N1_6 
REMARK    3  A    between atoms: N1_6  and  C6_7 
REMARK    4  A    between atoms: C10_13  and  O1_14 
REMARK    5  A    between atoms: O1_14  and  C11_15 
ROOT
HETATM    1  C1  UNL     1      16.712   1.193  49.496  1.00  0.00     0.018 C 
HETATM    2  C2  UNL     1      17.276   0.678  50.445  1.00  0.00    -0.069 C 
HETATM    3  C3  UNL     1      17.933   0.052  51.573  1.00  0.00     0.067 C 
HETATM    4  C18 UNL     1      17.374  -0.950  52.238  1.00  0.00    -0.001 C 
HETATM    5  C19 UNL     1      18.025  -1.597  53.387  1.00  0.00     0.038 C 
ENDROOT
BRANCH   3   6
HETATM    6  C4  UNL     1      19.224   0.546  51.967  1.00  0.00    -0.035 C 
HETATM    7  C5  UNL     1      20.327   0.967  52.324  1.00  0.00     0.018 C 
BRANCH   7   8
HETATM    8  N1  UNL     1      21.595   1.475  52.725  1.00  0.00    -0.299 N 
HETATM    9  H2  UNL     1      21.568   2.447  52.368  1.00  0.00     0.178 HD
BRANCH   8  10
HETATM   10  C6  UNL     1      22.428   0.564  53.429  1.00  0.00     0.151 A 
HETATM   11  N2  UNL     1      21.799  -0.327  54.220  1.00  0.00    -0.223 NA
HETATM   12  C7  UNL     1      22.484  -1.242  54.938  1.00  0.00     0.236 A 
HETATM   13  N3  UNL     1      23.816  -1.265  54.863  1.00  0.00    -0.241 NA
HETATM   14  C8  UNL     1      24.517  -0.428  54.111  1.00  0.00     0.077 A 
HETATM   15  C9  UNL     1      25.890  -0.474  54.050  1.00  0.00     0.072 A 
HETATM   16  C15 UNL     1      23.783   0.489  53.395  1.00  0.00     0.076 A 
HETATM   17  C10 UNL     1      26.543   0.428  53.248  1.00  0.00     0.107 A 
HETATM   18  C13 UNL     1      25.815   1.346  52.531  1.00  0.00     0.136 A 
HETATM   19  C14 UNL     1      24.442   1.379  52.602  1.00  0.00     0.121 A 
HETATM   20  O3  UNL     1      26.462   2.272  51.709  1.00  0.00    -0.344 OA
HETATM   21  O2  UNL     1      23.813   2.327  51.852  1.00  0.00    -0.345 OA
HETATM   22  C16 UNL     1      24.355   2.977  50.740  1.00  0.00     0.202 C 
HETATM   23  C17 UNL     1      25.799   2.684  50.505  1.00  0.00     0.202 C 
BRANCH  17  24
HETATM   24  O1  UNL     1      27.913   0.398  53.175  1.00  0.00    -0.348 OA
BRANCH  24  25
HETATM   25  C11 UNL     1      28.738   0.185  54.289  1.00  0.00     0.171 C 
HETATM   26  C12 UNL     1      29.984  -0.544  53.828  1.00  0.00     0.034 C 
ENDBRANCH  24  25
ENDBRANCH  17  24
ENDBRANCH   8  10
ENDBRANCH   7   8
ENDBRANCH   3   6
TORSDOF 5
ENDMDL
MODEL 4
REMARK VINA RESULT:      -7.5      3.179      7.755
REMARK  5 active torsions:
REMARK  status: ('A' for Active; 'I' for Inactive)
REMARK    1  A    between atoms: C3_3  and  C4_4 
REMARK    2  A    between atoms: C5_5  and  N1_6 
REMARK    3  A    between atoms: N1_6  and  C6_7 
REMARK    4  A    between atoms: C10_13  and  O1_14 
REMARK    5  A    between atoms: O1_14  and  C11_15 
ROOT
HETATM    1  C1  UNL     1      29.964   6.923  47.648  1.00  0.00     0.018 C 
HETATM    2  C2  UNL     1      28.791   6.708  47.897  1.00  0.00    -0.069 C 
HETATM    3  C3  UNL     1      27.392   6.468  48.182  1.00  0.00     0.067 C 
HETATM    4  C18 UNL     1      26.452   7.343  47.853  1.00  0.00    -0.001 C 
HETATM    5  C19 UNL     1      25.027   7.118  48.135  1.00  0.00     0.038 C 
ENDROOT
BRANCH   3   6
HETATM    6  C4  UNL     1      27.034   5.242  48.841  1.00  0.00    -0.035 C 
HETATM    7  C5  UNL     1      26.709   4.199  49.413  1.00  0.00     0.018 C 
BRANCH   7   8
HETATM    8  N1  UNL     1      26.355   2.996  50.087  1.00  0.00    -0.299 N 
HETATM    9  H2  UNL     1      27.280   2.578  50.298  1.00  0.00     0.178 HD
BRANCH   8  10
HETATM   10  C6  UNL     1      24.961   2.766  50.245  1.00  0.00     0.151 A 
HETATM   11  N2  UNL     1      24.155   3.369  49.350  1.00  0.00    -0.223 NA
HETATM   12  C7  UNL     1      22.814   3.226  49.397  1.00  0.00     0.236 A 
HETATM   13  N3  UNL     1      22.273   2.470  50.353  1.00  0.00    -0.241 NA
HETATM   14  C8  UNL     1      22.988   1.839  51.275  1.00  0.00     0.077 A 
HETATM   15  C9  UNL     1      22.406   1.064  52.249  1.00  0.00     0.072 A 
HETATM   16  C15 UNL     1      24.351   2.010  51.193  1.00  0.00     0.076 A 
HETATM   17  C10 UNL     1      23.216   0.444  53.168  1.00  0.00     0.107 A 
HETATM   18  C13 UNL     1      24.577   0.611  53.091  1.00  0.00     0.136 A 
HETATM   19  C14 UNL     1      25.145   1.390  52.109  1.00  0.00     0.121 A 
HETATM   20  O3  UNL     1      25.418  -0.012  54.015  1.00  0.00    -0.344 OA
HETATM   21  O2  UNL     1      26.503   1.492  52.117  1.00  0.00    -0.345 OA
HETATM   22  C16 UNL     1      27.383   0.597  52.733  1.00  0.00     0.202 C 
HETATM   23  C17 UNL     1      26.712  -0.442  53.569  1.00  0.00     0.202 C 
BRANCH  17  24
HETATM   24  O1  UNL     1      22.653  -0.334  54.148  1.00  0.00    -0.348 OA
BRANCH  24  25
HETATM   25  C11 UNL     1      22.007  -1.552  53.887  1.00  0.00     0.171 C 
HETATM   26  C12 UNL     1      20.533  -1.386  54.195  1.00  0.00     0.034 C 
ENDBRANCH  24  25
ENDBRANCH  17  24
ENDBRANCH   8  10
ENDBRANCH   7   8
ENDBRANCH   3   6
TORSDOF 5
ENDMDL
MODEL 5
REMARK VINA RESULT:      -7.2      8.818     12.065
REMARK  5 active torsions:
REMARK  status: ('A' for Active; 'I' for Inactive)
REMARK    1  A    between atoms: C3_3  and  C4_4 
REMARK    2  A    between atoms: C5_5  and  N1_6 
REMARK    3  A    between atoms: N1_6  and  C6_7 
REMARK    4  A    between atoms: C10_13  and  O1_14 
REMARK    5  A    between atoms: O1_14  and  C11_15 
ROOT
HETATM    1  C1  UNL     1      31.594   0.749  46.380  1.00  0.00     0.018 C 
HETATM    2  C2  UNL     1      32.197   1.715  46.814  1.00  0.00    -0.069 C 
HETATM    3  C3  UNL     1      32.928   2.853  47.329  1.00  0.00     0.067 C 
HETATM    4  C18 UNL     1      34.205   2.762  47.675  1.00  0.00    -0.001 C 
HETATM    5  C19 UNL     1      34.965   3.906  48.201  1.00  0.00     0.038 C 
ENDROOT
BRANCH   3   6
HETATM    6  C4  UNL     1      32.234   4.104  47.460  1.00  0.00    -0.035 C 
HETATM    7  C5  UNL     1      31.621   5.170  47.566  1.00  0.00     0.018 C 
BRANCH   7   8
HETATM    8  N1  UNL     1      30.931   6.410  47.672  1.00  0.00    -0.299 N 
HETATM    9  H2  UNL     1      31.664   7.095  47.414  1.00  0.00     0.178 HD
BRANCH   8  10
HETATM   10  C6  UNL     1      29.568   6.324  48.067  1.00  0.00     0.151 A 
HETATM   11  N2  UNL     1      29.063   5.081  48.190  1.00  0.00    -0.223 NA
HETATM   12  C7  UNL     1      27.782   4.872  48.559  1.00  0.00     0.236 A 
HETATM   13  N3  UNL     1      26.996   5.921  48.807  1.00  0.00    -0.241 NA
HETATM   14  C8  UNL     1      27.407   7.178  48.712  1.00  0.00     0.077 A 
HETATM   15  C9  UNL     1      26.578   8.242  48.975  1.00  0.00     0.072 A 
HETATM   16  C15 UNL     1      28.719   7.349  48.334  1.00  0.00     0.076 A 
HETATM   17  C10 UNL     1      27.080   9.514  48.853  1.00  0.00     0.107 A 
HETATM   18  C13 UNL     1      28.389   9.690  48.476  1.00  0.00     0.136 A 
HETATM   19  C14 UNL     1      29.208   8.615  48.217  1.00  0.00     0.121 A 
HETATM   20  O3  UNL     1      28.918  10.976  48.347  1.00  0.00    -0.344 OA
HETATM   21  O2  UNL     1      30.489   8.896  47.850  1.00  0.00    -0.345 OA
HETATM   22  C16 UNL     1      31.163  10.095  48.099  1.00  0.00     0.202 C 
HETATM   23  C17 UNL     1      30.303  11.172  48.670  1.00  0.00     0.202 C 
BRANCH  17  24
HETATM   24  O1  UNL     1      26.266  10.588  49.112  1.00  0.00    -0.348 OA
BRANCH  24  25
HETATM   25  C11 UNL     1      25.379  11.125  48.167  1.00  0.00     0.171 C 
HETATM   26  C12 UNL     1      25.734  12.583  47.956  1.00  0.00     0.034 C 
ENDBRANCH  24  25
ENDBRANCH  17  24
ENDBRANCH   8  10
ENDBRANCH   7   8
ENDBRANCH   3   6
TORSDOF 5
ENDMDL
MODEL 6
REMARK VINA RESULT:      -7.1      4.679      8.160
REMARK  5 active torsions:
REMARK  status: ('A' for Active; 'I' for Inactive)
REMARK    1  A    between atoms: C3_3  and  C4_4 
REMARK    2  A    between atoms: C5_5  and  N1_6 
REMARK    3  A    between atoms: N1_6  and  C6_7 
REMARK    4  A    between atoms: C10_13  and  O1_14 
REMARK    5  A    between atoms: O1_14  and  C11_15 
ROOT
HETATM    1  C1  UNL     1      28.056  -1.354  53.074  1.00  0.00     0.018 C 
HETATM    2  C2  UNL     1      27.158  -0.576  52.808  1.00  0.00    -0.069 C 
HETATM    3  C3  UNL     1      26.080   0.341  52.505  1.00  0.00     0.067 C 
HETATM    4  C18 UNL     1      24.853   0.154  52.973  1.00  0.00    -0.001 C 
HETATM    5  C19 UNL     1      23.744   1.073  52.675  1.00  0.00     0.038 C 
ENDROOT
BRANCH   3   6
HETATM    6  C4  UNL     1      26.367   1.476  51.672  1.00  0.00    -0.035 C 
HETATM    7  C5  UNL     1      26.596   2.447  50.947  1.00  0.00     0.018 C 
BRANCH   7   8
HETATM    8  N1  UNL     1      26.882   3.558  50.103  1.00  0.00    -0.299 N 
HETATM    9  H2  UNL     1      27.862   3.375  49.819  1.00  0.00     0.178 HD
BRANCH   8  10
HETATM   10  C6  UNL     1      25.822   4.489  49.930  1.00  0.00     0.151 A 
HETATM   11  N2  UNL     1      24.673   4.205  50.572  1.00  0.00    -0.223 NA
HETATM   12  C7  UNL     1      23.596   5.015  50.485  1.00  0.00     0.236 A 
HETATM   13  N3  UNL     1      23.672   6.122  49.744  1.00  0.00    -0.241 NA
HETATM   14  C8  UNL     1      24.761   6.480  49.079  1.00  0.00     0.077 A 
HETATM   15  C9  UNL     1      24.814   7.627  48.324  1.00  0.00     0.072 A 
HETATM   16  C15 UNL     1      25.837   5.629  49.194  1.00  0.00     0.076 A 
HETATM   17  C10 UNL     1      25.980   7.928  47.665  1.00  0.00     0.107 A 
HETATM   18  C13 UNL     1      27.057   7.082  47.776  1.00  0.00     0.136 A 
HETATM   19  C14 UNL     1      26.989   5.937  48.536  1.00  0.00     0.121 A 
HETATM   20  O3  UNL     1      28.251   7.370  47.113  1.00  0.00    -0.344 OA
HETATM   21  O2  UNL     1      28.110   5.165  48.582  1.00  0.00    -0.345 OA
HETATM   22  C16 UNL     1      29.408   5.597  48.293  1.00  0.00     0.202 C 
HETATM   23  C17 UNL     1      29.482   6.981  47.739  1.00  0.00     0.202 C 
BRANCH  17  24
HETATM   24  O1  UNL     1      26.051   9.069  46.906  1.00  0.00    -0.348 OA
BRANCH  24  25
HETATM   25  C11 UNL     1      25.336   9.244  45.711  1.00  0.00     0.171 C 
HETATM   26  C12 UNL     1      26.186   8.727  44.568  1.00  0.00     0.034 C 
ENDBRANCH  24  25
ENDBRANCH  17  24
ENDBRANCH   8  10
ENDBRANCH   7   8
ENDBRANCH   3   6
TORSDOF 5
ENDMDL
MODEL 7
REMARK VINA RESULT:      -6.9      3.093      5.320
REMARK  5 active torsions:
REMARK  status: ('A' for Active; 'I' for Inactive)
REMARK    1  A    between atoms: C3_3  and  C4_4 
REMARK    2  A    between atoms: C5_5  and  N1_6 
REMARK    3  A    between atoms: N1_6  and  C6_7 
REMARK    4  A    between atoms: C10_13  and  O1_14 
REMARK    5  A    between atoms: O1_14  and  C11_15 
ROOT
HETATM    1  C1  UNL     1      19.173   4.220  46.419  1.00  0.00     0.018 C 
HETATM    2  C2  UNL     1      20.235   4.526  46.931  1.00  0.00    -0.069 C 
HETATM    3  C3  UNL     1      21.497   4.905  47.531  1.00  0.00     0.067 C 
HETATM    4  C18 UNL     1      22.130   6.016  47.179  1.00  0.00    -0.001 C 
HETATM    5  C19 UNL     1      23.412   6.418  47.776  1.00  0.00     0.038 C 
ENDROOT
BRANCH   3   6
HETATM    6  C4  UNL     1      22.060   4.042  48.531  1.00  0.00    -0.035 C 
HETATM    7  C5  UNL     1      22.537   3.284  49.381  1.00  0.00     0.018 C 
BRANCH   7   8
HETATM    8  N1  UNL     1      23.073   2.422  50.378  1.00  0.00    -0.299 N 
HETATM    9  H2  UNL     1      22.241   1.878  50.672  1.00  0.00     0.178 HD
BRANCH   8  10
HETATM   10  C6  UNL     1      24.464   2.567  50.635  1.00  0.00     0.151 A 
HETATM   11  N2  UNL     1      25.103   3.512  49.919  1.00  0.00    -0.223 NA
HETATM   12  C7  UNL     1      26.425   3.743  50.075  1.00  0.00     0.236 A 
HETATM   13  N3  UNL     1      27.113   3.018  50.957  1.00  0.00    -0.241 NA
HETATM   14  C8  UNL     1      26.566   2.069  51.704  1.00  0.00     0.077 A 
HETATM   15  C9  UNL     1      27.297   1.336  52.609  1.00  0.00     0.072 A 
HETATM   16  C15 UNL     1      25.218   1.864  51.517  1.00  0.00     0.076 A 
HETATM   17  C10 UNL     1      26.657   0.370  53.344  1.00  0.00     0.107 A 
HETATM   18  C13 UNL     1      25.312   0.161  53.161  1.00  0.00     0.136 A 
HETATM   19  C14 UNL     1      24.593   0.903  52.252  1.00  0.00     0.121 A 
HETATM   20  O3  UNL     1      24.643  -0.816  53.900  1.00  0.00    -0.344 OA
HETATM   21  O2  UNL     1      23.265   0.620  52.145  1.00  0.00    -0.345 OA
HETATM   22  C16 UNL     1      22.490  -0.029  53.111  1.00  0.00     0.202 C 
HETATM   23  C17 UNL     1      23.274  -0.574  54.258  1.00  0.00     0.202 C 
BRANCH  17  24
HETATM   24  O1  UNL     1      27.372  -0.371  54.252  1.00  0.00    -0.348 OA
BRANCH  24  25
HETATM   25  C11 UNL     1      28.700  -0.086  54.601  1.00  0.00     0.171 C 
HETATM   26  C12 UNL     1      29.611  -0.962  53.764  1.00  0.00     0.034 C 
ENDBRANCH  24  25
ENDBRANCH  17  24
ENDBRANCH   8  10
ENDBRANCH   7   8
ENDBRANCH   3   6
TORSDOF 5
ENDMDL
MODEL 8
REMARK VINA RESULT:      -6.9      3.085      5.036
REMARK  5 active torsions:
REMARK  status: ('A' for Active; 'I' for Inactive)
REMARK    1  A    between atoms: C3_3  and  C4_4 
REMARK    2  A    between atoms: C5_5  and  N1_6 
REMARK    3  A    between atoms: N1_6  and  C6_7 
REMARK    4  A    between atoms: C10_13  and  O1_14 
REMARK    5  A    between atoms: O1_14  and  C11_15 
ROOT
HETATM    1  C1  UNL     1      22.177  -1.331  55.182  1.00  0.00     0.018 C 
HETATM    2  C2  UNL     1      21.543  -0.803  54.286  1.00  0.00    -0.069 C 
HETATM    3  C3  UNL     1      20.773  -0.184  53.228  1.00  0.00     0.067 C 
HETATM    4  C18 UNL     1      19.514  -0.525  52.990  1.00  0.00    -0.001 C 
HETATM    5  C19 UNL     1      18.716   0.091  51.919  1.00  0.00     0.038 C 
ENDROOT
BRANCH   3   6
HETATM    6  C4  UNL     1      21.409   0.823  52.426  1.00  0.00    -0.035 C 
HETATM    7  C5  UNL     1      21.972   1.689  51.749  1.00  0.00     0.018 C 
BRANCH   7   8
HETATM    8  N1  UNL     1      22.601   2.703  50.973  1.00  0.00    -0.299 N 
HETATM    9  H2  UNL     1      21.793   3.258  50.636  1.00  0.00     0.178 HD
BRANCH   8  10
HETATM   10  C6  UNL     1      24.020   2.638  50.910  1.00  0.00     0.151 A 
HETATM   11  N2  UNL     1      24.597   1.617  51.570  1.00  0.00    -0.223 NA
HETATM   12  C7  UNL     1      25.937   1.451  51.583  1.00  0.00     0.236 A 
HETATM   13  N3  UNL     1      26.707   2.319  50.926  1.00  0.00    -0.241 NA
HETATM   14  C8  UNL     1      26.226   3.353  50.250  1.00  0.00     0.077 A 
HETATM   15  C9  UNL     1      27.041   4.233  49.580  1.00  0.00     0.072 A 
HETATM   16  C15 UNL     1      24.856   3.487  50.261  1.00  0.00     0.076 A 
HETATM   17  C10 UNL     1      26.465   5.279  48.902  1.00  0.00     0.107 A 
HETATM   18  C13 UNL     1      25.099   5.418  48.910  1.00  0.00     0.136 A 
HETATM   19  C14 UNL     1      24.295   4.528  49.585  1.00  0.00     0.121 A 
HETATM   20  O3  UNL     1      24.494   6.475  48.227  1.00  0.00    -0.344 OA
HETATM   21  O2  UNL     1      22.953   4.753  49.531  1.00  0.00    -0.345 OA
HETATM   22  C16 UNL     1      22.293   5.516  48.563  1.00  0.00     0.202 C 
HETATM   23  C17 UNL     1      23.205   6.249  47.637  1.00  0.00     0.202 C 
BRANCH  17  24
HETATM   24  O1  UNL     1      27.264   6.168  48.228  1.00  0.00    -0.348 OA
BRANCH  24  25
HETATM   25  C11 UNL     1      28.658   6.037  48.143  1.00  0.00     0.171 C 
HETATM   26  C12 UNL     1      29.185   7.131  47.236  1.00  0.00     0.034 C 
ENDBRANCH  24  25
ENDBRANCH  17  24
ENDBRANCH   8  10
ENDBRANCH   7   8
ENDBRANCH   3   6
TORSDOF 5
ENDMDL
MODEL 9
REMARK VINA RESULT:      -6.9      3.974      6.922
REMARK  5 active torsions:
REMARK  status: ('A' for Active; 'I' for Inactive)
REMARK    1  A    between atoms: C3_3  and  C4_4 
REMARK    2  A    between atoms: C5_5  and  N1_6 
REMARK    3  A    between atoms: N1_6  and  C6_7 
REMARK    4  A    between atoms: C10_13  and  O1_14 
REMARK    5  A    between atoms: O1_14  and  C11_15 
ROOT
HETATM    1  C1  UNL     1      21.640  -1.385  54.580  1.00  0.00     0.018 C 
HETATM    2  C2  UNL     1      22.659  -0.835  54.202  1.00  0.00    -0.069 C 
HETATM    3  C3  UNL     1      23.880  -0.197  53.758  1.00  0.00     0.067 C 
HETATM    4  C18 UNL     1      25.071  -0.727  53.997  1.00  0.00    -0.001 C 
HETATM    5  C19 UNL     1      26.323  -0.094  53.555  1.00  0.00     0.038 C 
ENDROOT
BRANCH   3   6
HETATM    6  C4  UNL     1      23.776   1.043  53.040  1.00  0.00    -0.035 C 
HETATM    7  C5  UNL     1      23.706   2.106  52.418  1.00  0.00     0.018 C 
BRANCH   7   8
HETATM    8  N1  UNL     1      23.620   3.345  51.721  1.00  0.00    -0.299 N 
HETATM    9  H2  UNL     1      22.701   3.711  52.032  1.00  0.00     0.178 HD
BRANCH   8  10
HETATM   10  C6  UNL     1      24.728   3.661  50.889  1.00  0.00     0.151 A 
HETATM   11  N2  UNL     1      25.642   2.687  50.721  1.00  0.00    -0.223 NA
HETATM   12  C7  UNL     1      26.737   2.869  49.953  1.00  0.00     0.236 A 
HETATM   13  N3  UNL     1      26.918   4.043  49.346  1.00  0.00    -0.241 NA
HETATM   14  C8  UNL     1      26.072   5.057  49.454  1.00  0.00     0.077 A 
HETATM   15  C9  UNL     1      26.281   6.257  48.816  1.00  0.00     0.072 A 
HETATM   16  C15 UNL     1      24.968   4.832  50.245  1.00  0.00     0.076 A 
HETATM   17  C10 UNL     1      25.357   7.259  48.979  1.00  0.00     0.107 A 
HETATM   18  C13 UNL     1      24.254   7.039  49.768  1.00  0.00     0.136 A 
HETATM   19  C14 UNL     1      24.057   5.833  50.399  1.00  0.00     0.121 A 
HETATM   20  O3  UNL     1      23.302   8.046  49.945  1.00  0.00    -0.344 OA
HETATM   21  O2  UNL     1      22.933   5.715  51.158  1.00  0.00    -0.345 OA
HETATM   22  C16 UNL     1      21.786   6.505  51.042  1.00  0.00     0.202 C 
HETATM   23  C17 UNL     1      21.930   7.657  50.104  1.00  0.00     0.202 C 
BRANCH  17  24
HETATM   24  O1  UNL     1      25.550   8.463  48.350  1.00  0.00    -0.348 OA
BRANCH  24  25
HETATM   25  C11 UNL     1      26.060   8.577  47.048  1.00  0.00     0.171 C 
HETATM   26  C12 UNL     1      24.916   8.402  46.071  1.00  0.00     0.034 C 
ENDBRANCH  24  25
ENDBRANCH  17  24
ENDBRANCH   8  10
ENDBRANCH   7   8
ENDBRANCH   3   6
TORSDOF 5
ENDMDL
