MODEL 1
REMARK VINA RESULT:      -7.6      0.000      0.000
REMARK  4 active torsions:
REMARK  status: ('A' for Active; 'I' for Inactive)
REMARK    1  A    between atoms: O1_2  and  C2_3 
REMARK    2  A    between atoms: C13_17  and  O2_18 
REMARK    3  A    between atoms: O2_18  and  N4_19 
REMARK    4  A    between atoms: C14_20  and  O3_21 
ROOT
HETATM    1  C2  UNL     1      22.644   0.092  52.611  1.00  0.00     0.100 C 
HETATM    2  C3  UNL     1      23.839   0.155  53.119  1.00  0.00     0.014 C 
HETATM    3  C4  UNL     1      25.076  -0.003  53.882  1.00  0.00     0.052 C 
HETATM    4  C5  UNL     1      26.272  -0.354  52.996  1.00  0.00     0.155 C 
HETATM    5  N1  UNL     1      26.439   0.713  52.024  1.00  0.00    -0.262 NA
HETATM    6  C6  UNL     1      27.160   1.737  52.191  1.00  0.00     0.226 C 
HETATM    7  C7  UNL     1      27.984   2.179  53.262  1.00  0.00     0.140 C 
HETATM    8  N2  UNL     1      28.631   2.543  54.133  1.00  0.00    -0.188 NA
HETATM    9  N3  UNL     1      26.884   2.353  50.944  1.00  0.00    -0.236 NA
HETATM   10  C8  UNL     1      25.793   3.060  50.835  1.00  0.00     0.093 C 
HETATM   11  C9  UNL     1      25.162   3.839  49.737  1.00  0.00     0.057 C 
HETATM   12  C10 UNL     1      23.719   3.382  49.562  1.00  0.00    -0.021 C 
HETATM   13  C11 UNL     1      23.010   4.091  48.479  1.00  0.00     0.017 C 
HETATM   14  C12 UNL     1      22.746   2.581  49.970  1.00  0.00     0.068 C 
HETATM   15  C13 UNL     1      22.030   1.574  50.719  1.00  0.00     0.117 C 
HETATM   16  C14 UNL     1      21.830   0.670  51.600  1.00  0.00     0.131 C 
ENDROOT
BRANCH   1  17
HETATM   17  O1  UNL     1      22.492  -0.863  53.557  1.00  0.00    -0.353 OA
HETATM   18  C1  UNL     1      21.673  -0.868  54.680  1.00  0.00     0.210 C 
ENDBRANCH   1  17
BRANCH  16  19
HETATM   19  O3  UNL     1      20.574   0.121  51.595  1.00  0.00    -0.356 OA
HETATM   20  H18 UNL     1      19.740   0.644  51.835  1.00  0.00     0.218 HD
ENDBRANCH  16  19
BRANCH  15  21
HETATM   21  O2  UNL     1      21.061   1.983  49.821  1.00  0.00    -0.246 OA
BRANCH  21  22
HETATM   22  N4  UNL     1      20.616   1.269  48.756  1.00  0.00    -0.305 N 
HETATM   23  H16 UNL     1      19.618   1.025  48.756  1.00  0.00     0.184 HD
HETATM   24  H17 UNL     1      21.255   0.550  48.390  1.00  0.00     0.184 HD
ENDBRANCH  21  22
ENDBRANCH  15  21
TORSDOF 4
ENDMDL
MODEL 2
REMARK VINA RESULT:      -7.6      2.141      4.619
REMARK  4 active torsions:
REMARK  status: ('A' for Active; 'I' for Inactive)
REMARK    1  A    between atoms: O1_2  and  C2_3 
REMARK    2  A    between atoms: C13_17  and  O2_18 
REMARK    3  A    between atoms: O2_18  and  N4_19 
REMARK    4  A    between atoms: C14_20  and  O3_21 
ROOT
HETATM    1  C2  UNL     1      24.472   2.333  51.269  1.00  0.00     0.100 C 
HETATM    2  C3  UNL     1      25.689   2.095  51.660  1.00  0.00     0.014 C 
HETATM    3  C4  UNL     1      27.133   2.044  51.882  1.00  0.00     0.052 C 
HETATM    4  C5  UNL     1      27.517   2.362  53.328  1.00  0.00     0.155 C 
HETATM    5  N1  UNL     1      26.864   1.391  54.189  1.00  0.00    -0.262 NA
HETATM    6  C6  UNL     1      27.365   0.287  54.545  1.00  0.00     0.226 C 
HETATM    7  C7  UNL     1      28.607  -0.346  54.272  1.00  0.00     0.140 C 
HETATM    8  N2  UNL     1      29.600  -0.865  54.035  1.00  0.00    -0.188 NA
HETATM    9  N3  UNL     1      26.267  -0.162  55.321  1.00  0.00    -0.236 NA
HETATM   10  C8  UNL     1      25.272  -0.739  54.705  1.00  0.00     0.093 C 
HETATM   11  C9  UNL     1      23.978  -1.330  55.140  1.00  0.00     0.057 C 
HETATM   12  C10 UNL     1      22.846  -0.711  54.330  1.00  0.00    -0.021 C 
HETATM   13  C11 UNL     1      21.514  -1.227  54.702  1.00  0.00     0.017 C 
HETATM   14  C12 UNL     1      22.492   0.138  53.376  1.00  0.00     0.068 C 
HETATM   15  C13 UNL     1      22.580   1.128  52.328  1.00  0.00     0.117 C 
HETATM   16  C14 UNL     1      23.126   1.951  51.517  1.00  0.00     0.131 C 
ENDROOT
BRANCH   1  17
HETATM   17  O1  UNL     1      25.104   3.193  50.438  1.00  0.00    -0.353 OA
HETATM   18  C1  UNL     1      25.022   4.579  50.376  1.00  0.00     0.210 C 
ENDBRANCH   1  17
BRANCH  16  19
HETATM   19  O3  UNL     1      22.257   2.623  50.697  1.00  0.00    -0.356 OA
HETATM   20  H18 UNL     1      22.226   2.487  49.693  1.00  0.00     0.218 HD
ENDBRANCH  16  19
BRANCH  15  21
HETATM   21  O2  UNL     1      21.214   0.918  52.387  1.00  0.00    -0.246 OA
BRANCH  21  22
HETATM   22  N4  UNL     1      20.297   1.797  52.863  1.00  0.00    -0.305 N 
HETATM   23  H16 UNL     1      19.870   1.565  53.768  1.00  0.00     0.184 HD
HETATM   24  H17 UNL     1      19.671   2.225  52.167  1.00  0.00     0.184 HD
ENDBRANCH  21  22
ENDBRANCH  15  21
TORSDOF 4
ENDMDL
MODEL 3
REMARK VINA RESULT:      -7.3      2.172      5.248
REMARK  4 active torsions:
REMARK  status: ('A' for Active; 'I' for Inactive)
REMARK    1  A    between atoms: O1_2  and  C2_3 
REMARK    2  A    between atoms: C13_17  and  O2_18 
REMARK    3  A    between atoms: O2_18  and  N4_19 
REMARK    4  A    between atoms: C14_20  and  O3_21 
ROOT
HETATM    1  C2  UNL     1      22.003  -0.350  53.912  1.00  0.00     0.100 C 
HETATM    2  C3  UNL     1      21.731   0.431  52.910  1.00  0.00     0.014 C 
HETATM    3  C4  UNL     1      21.124   1.247  51.859  1.00  0.00     0.052 C 
HETATM    4  C5  UNL     1      21.553   2.713  51.932  1.00  0.00     0.155 C 
HETATM    5  N1  UNL     1      22.999   2.764  51.805  1.00  0.00    -0.262 NA
HETATM    6  C6  UNL     1      23.626   2.877  50.714  1.00  0.00     0.226 C 
HETATM    7  C7  UNL     1      23.206   2.986  49.361  1.00  0.00     0.140 C 
HETATM    8  N2  UNL     1      22.866   3.054  48.270  1.00  0.00    -0.188 NA
HETATM    9  N3  UNL     1      24.935   2.849  51.259  1.00  0.00    -0.236 NA
HETATM   10  C8  UNL     1      25.468   1.687  51.519  1.00  0.00     0.093 C 
HETATM   11  C9  UNL     1      26.773   1.240  52.077  1.00  0.00     0.057 C 
HETATM   12  C10 UNL     1      26.522   0.294  53.244  1.00  0.00    -0.021 C 
HETATM   13  C11 UNL     1      27.764  -0.194  53.876  1.00  0.00     0.017 C 
HETATM   14  C12 UNL     1      25.633  -0.333  54.001  1.00  0.00     0.068 C 
HETATM   15  C13 UNL     1      24.367  -0.784  54.530  1.00  0.00     0.117 C 
HETATM   16  C14 UNL     1      23.098  -0.898  54.635  1.00  0.00     0.131 C 
ENDROOT
BRANCH   1  17
HETATM   17  O1  UNL     1      20.655  -0.427  53.981  1.00  0.00    -0.353 OA
HETATM   18  C1  UNL     1      19.827  -1.535  53.843  1.00  0.00     0.210 C 
ENDBRANCH   1  17
BRANCH  16  19
HETATM   19  O3  UNL     1      22.669  -1.713  55.650  1.00  0.00    -0.356 OA
HETATM   20  H18 UNL     1      21.799  -1.566  56.147  1.00  0.00     0.218 HD
ENDBRANCH  16  19
BRANCH  15  21
HETATM   21  O2  UNL     1      25.256  -1.431  55.369  1.00  0.00    -0.246 OA
BRANCH  21  22
HETATM   22  N4  UNL     1      25.292  -1.322  56.721  1.00  0.00    -0.305 N 
HETATM   23  H16 UNL     1      25.588  -0.413  57.096  1.00  0.00     0.184 HD
HETATM   24  H17 UNL     1      25.618  -2.150  57.237  1.00  0.00     0.184 HD
ENDBRANCH  21  22
ENDBRANCH  15  21
TORSDOF 4
ENDMDL
MODEL 4
REMARK VINA RESULT:      -7.2      2.921      6.041
REMARK  4 active torsions:
REMARK  status: ('A' for Active; 'I' for Inactive)
REMARK    1  A    between atoms: O1_2  and  C2_3 
REMARK    2  A    between atoms: C13_17  and  O2_18 
REMARK    3  A    between atoms: O2_18  and  N4_19 
REMARK    4  A    between atoms: C14_20  and  O3_21 
ROOT
HETATM    1  C2  UNL     1      26.791   1.220  53.138  1.00  0.00     0.100 C 
HETATM    2  C3  UNL     1      26.314   2.121  52.332  1.00  0.00     0.014 C 
HETATM    3  C4  UNL     1      26.081   3.217  51.392  1.00  0.00     0.052 C 
HETATM    4  C5  UNL     1      25.353   2.761  50.127  1.00  0.00     0.155 C 
HETATM    5  N1  UNL     1      24.078   2.190  50.525  1.00  0.00    -0.262 NA
HETATM    6  C6  UNL     1      22.998   2.836  50.633  1.00  0.00     0.226 C 
HETATM    7  C7  UNL     1      22.660   4.202  50.429  1.00  0.00     0.140 C 
HETATM    8  N2  UNL     1      22.394   5.306  50.284  1.00  0.00    -0.188 NA
HETATM    9  N3  UNL     1      22.185   1.752  51.050  1.00  0.00    -0.236 NA
HETATM   10  C8  UNL     1      22.191   1.428  52.313  1.00  0.00     0.093 C 
HETATM   11  C9  UNL     1      21.504   0.389  53.127  1.00  0.00     0.057 C 
HETATM   12  C10 UNL     1      22.541  -0.391  53.925  1.00  0.00    -0.021 C 
HETATM   13  C11 UNL     1      21.953  -1.459  54.756  1.00  0.00     0.017 C 
HETATM   14  C12 UNL     1      23.819  -0.555  54.232  1.00  0.00     0.068 C 
HETATM   15  C13 UNL     1      25.252  -0.367  54.262  1.00  0.00     0.117 C 
HETATM   16  C14 UNL     1      26.387   0.148  53.978  1.00  0.00     0.131 C 
ENDROOT
BRANCH   1  17
HETATM   17  O1  UNL     1      27.964   1.800  52.796  1.00  0.00    -0.353 OA
HETATM   18  C1  UNL     1      28.866   2.500  53.588  1.00  0.00     0.210 C 
ENDBRANCH   1  17
BRANCH  16  19
HETATM   19  O3  UNL     1      27.461  -0.433  54.601  1.00  0.00    -0.356 OA
HETATM   20  H18 UNL     1      28.421  -0.221  54.358  1.00  0.00     0.218 HD
ENDBRANCH  16  19
BRANCH  15  21
HETATM   21  O2  UNL     1      25.101  -1.432  55.132  1.00  0.00    -0.246 OA
BRANCH  21  22
HETATM   22  N4  UNL     1      25.177  -1.366  56.486  1.00  0.00    -0.305 N 
HETATM   23  H16 UNL     1      26.026  -1.755  56.914  1.00  0.00     0.184 HD
HETATM   24  H17 UNL     1      24.300  -1.524  57.000  1.00  0.00     0.184 HD
ENDBRANCH  21  22
ENDBRANCH  15  21
TORSDOF 4
ENDMDL
MODEL 5
REMARK VINA RESULT:      -7.0      2.500      6.744
REMARK  4 active torsions:
REMARK  status: ('A' for Active; 'I' for Inactive)
REMARK    1  A    between atoms: O1_2  and  C2_3 
REMARK    2  A    between atoms: C13_17  and  O2_18 
REMARK    3  A    between atoms: O2_18  and  N4_19 
REMARK    4  A    between atoms: C14_20  and  O3_21 
ROOT
HETATM    1  C2  UNL     1      25.202   3.415  50.010  1.00  0.00     0.100 C 
HETATM    2  C3  UNL     1      24.041   3.419  49.426  1.00  0.00     0.014 C 
HETATM    3  C4  UNL     1      22.871   3.636  48.576  1.00  0.00     0.052 C 
HETATM    4  C5  UNL     1      22.370   2.345  47.926  1.00  0.00     0.155 C 
HETATM    5  N1  UNL     1      22.028   1.413  48.986  1.00  0.00    -0.262 NA
HETATM    6  C6  UNL     1      20.888   1.311  49.521  1.00  0.00     0.226 C 
HETATM    7  C7  UNL     1      19.656   1.987  49.311  1.00  0.00     0.140 C 
HETATM    8  N2  UNL     1      18.669   2.547  49.156  1.00  0.00    -0.188 NA
HETATM    9  N3  UNL     1      21.217   0.286  50.444  1.00  0.00    -0.236 NA
HETATM   10  C8  UNL     1      21.783   0.628  51.567  1.00  0.00     0.093 C 
HETATM   11  C9  UNL     1      22.269  -0.117  52.759  1.00  0.00     0.057 C 
HETATM   12  C10 UNL     1      23.715   0.272  53.041  1.00  0.00    -0.021 C 
HETATM   13  C11 UNL     1      24.292  -0.432  54.203  1.00  0.00     0.017 C 
HETATM   14  C12 UNL     1      24.760   1.007  52.691  1.00  0.00     0.068 C 
HETATM   15  C13 UNL     1      25.588   1.950  51.975  1.00  0.00     0.117 C 
HETATM   16  C14 UNL     1      25.906   2.816  51.090  1.00  0.00     0.131 C 
ENDROOT
BRANCH   1  17
HETATM   17  O1  UNL     1      25.485   4.322  49.047  1.00  0.00    -0.353 OA
HETATM   18  C1  UNL     1      25.856   5.656  49.173  1.00  0.00     0.210 C 
ENDBRANCH   1  17
BRANCH  16  19
HETATM   19  O3  UNL     1      27.191   3.287  51.172  1.00  0.00    -0.356 OA
HETATM   20  H18 UNL     1      27.872   3.169  50.432  1.00  0.00     0.218 HD
ENDBRANCH  16  19
BRANCH  15  21
HETATM   21  O2  UNL     1      26.462   1.510  52.952  1.00  0.00    -0.246 OA
BRANCH  21  22
HETATM   22  N4  UNL     1      26.992   2.272  53.942  1.00  0.00    -0.305 N 
HETATM   23  H16 UNL     1      27.001   3.287  53.781  1.00  0.00     0.184 HD
HETATM   24  H17 UNL     1      27.814   1.886  54.425  1.00  0.00     0.184 HD
ENDBRANCH  21  22
ENDBRANCH  15  21
TORSDOF 4
ENDMDL
MODEL 6
REMARK VINA RESULT:      -6.8      2.519      5.300
REMARK  4 active torsions:
REMARK  status: ('A' for Active; 'I' for Inactive)
REMARK    1  A    between atoms: O1_2  and  C2_3 
REMARK    2  A    between atoms: C13_17  and  O2_18 
REMARK    3  A    between atoms: O2_18  and  N4_19 
REMARK    4  A    between atoms: C14_20  and  O3_21 
ROOT
HETATM    1  C2  UNL     1      25.235  -0.201  53.906  1.00  0.00     0.100 C 
HETATM    2  C3  UNL     1      23.958  -0.326  53.696  1.00  0.00     0.014 C 
HETATM    3  C4  UNL     1      22.539  -0.678  53.696  1.00  0.00     0.052 C 
HETATM    4  C5  UNL     1      21.633   0.534  53.920  1.00  0.00     0.155 C 
HETATM    5  N1  UNL     1      21.892   1.489  52.856  1.00  0.00    -0.262 NA
HETATM    6  C6  UNL     1      21.278   1.526  51.752  1.00  0.00     0.226 C 
HETATM    7  C7  UNL     1      20.227   0.745  51.201  1.00  0.00     0.140 C 
HETATM    8  N2  UNL     1      19.394   0.102  50.749  1.00  0.00    -0.188 NA
HETATM    9  N3  UNL     1      21.987   2.620  51.193  1.00  0.00    -0.236 NA
HETATM   10  C8  UNL     1      23.133   2.381  50.620  1.00  0.00     0.093 C 
HETATM   11  C9  UNL     1      24.152   3.223  49.937  1.00  0.00     0.057 C 
HETATM   12  C10 UNL     1      25.518   2.964  50.562  1.00  0.00    -0.021 C 
HETATM   13  C11 UNL     1      26.597   3.770  49.958  1.00  0.00     0.017 C 
HETATM   14  C12 UNL     1      26.223   2.298  51.464  1.00  0.00     0.068 C 
HETATM   15  C13 UNL     1      26.558   1.389  52.536  1.00  0.00     0.117 C 
HETATM   16  C14 UNL     1      26.377   0.507  53.443  1.00  0.00     0.131 C 
ENDROOT
BRANCH   1  17
HETATM   17  O1  UNL     1      24.983  -1.129  54.856  1.00  0.00    -0.353 OA
HETATM   18  C1  UNL     1      25.016  -1.006  56.240  1.00  0.00     0.210 C 
ENDBRANCH   1  17
BRANCH  16  19
HETATM   19  O3  UNL     1      27.504   0.144  54.135  1.00  0.00    -0.356 OA
HETATM   20  H18 UNL     1      28.134  -0.585  53.823  1.00  0.00     0.218 HD
ENDBRANCH  16  19
BRANCH  15  21
HETATM   21  O2  UNL     1      27.793   1.945  52.257  1.00  0.00    -0.246 OA
BRANCH  21  22
HETATM   22  N4  UNL     1      28.463   2.823  53.047  1.00  0.00    -0.305 N 
HETATM   23  H16 UNL     1      27.971   3.694  53.279  1.00  0.00     0.184 HD
HETATM   24  H17 UNL     1      29.475   2.908  52.879  1.00  0.00     0.184 HD
ENDBRANCH  21  22
ENDBRANCH  15  21
TORSDOF 4
ENDMDL
MODEL 7
REMARK VINA RESULT:      -6.6      2.753      6.694
REMARK  4 active torsions:
REMARK  status: ('A' for Active; 'I' for Inactive)
REMARK    1  A    between atoms: O1_2  and  C2_3 
REMARK    2  A    between atoms: C13_17  and  O2_18 
REMARK    3  A    between atoms: O2_18  and  N4_19 
REMARK    4  A    between atoms: C14_20  and  O3_21 
ROOT
HETATM    1  C2  UNL     1      24.880   2.230  51.794  1.00  0.00     0.100 C 
HETATM    2  C3  UNL     1      23.761   2.761  51.397  1.00  0.00     0.014 C 
HETATM    3  C4  UNL     1      22.693   3.547  50.781  1.00  0.00     0.052 C 
HETATM    4  C5  UNL     1      21.709   2.683  49.991  1.00  0.00     0.155 C 
HETATM    5  N1  UNL     1      21.127   1.717  50.907  1.00  0.00    -0.262 NA
HETATM    6  C6  UNL     1      20.071   1.898  51.576  1.00  0.00     0.226 C 
HETATM    7  C7  UNL     1      19.160   2.984  51.674  1.00  0.00     0.140 C 
HETATM    8  N2  UNL     1      18.438   3.868  51.767  1.00  0.00    -0.188 NA
HETATM    9  N3  UNL     1      20.067   0.646  52.242  1.00  0.00    -0.236 NA
HETATM   10  C8  UNL     1      20.800   0.518  53.313  1.00  0.00     0.093 C 
HETATM   11  C9  UNL     1      21.064  -0.592  54.269  1.00  0.00     0.057 C 
HETATM   12  C10 UNL     1      22.568  -0.794  54.400  1.00  0.00    -0.021 C 
HETATM   13  C11 UNL     1      22.931  -1.890  55.320  1.00  0.00     0.017 C 
HETATM   14  C12 UNL     1      23.782  -0.406  54.037  1.00  0.00     0.068 C 
HETATM   15  C13 UNL     1      24.843   0.329  53.387  1.00  0.00     0.117 C 
HETATM   16  C14 UNL     1      25.391   1.205  52.634  1.00  0.00     0.131 C 
ENDROOT
BRANCH   1  17
HETATM   17  O1  UNL     1      25.404   3.173  50.978  1.00  0.00    -0.353 OA
HETATM   18  C1  UNL     1      26.262   3.022  49.895  1.00  0.00     0.210 C 
ENDBRANCH   1  17
BRANCH  16  19
HETATM   19  O3  UNL     1      26.761   1.175  52.610  1.00  0.00    -0.356 OA
HETATM   20  H18 UNL     1      27.317   0.704  53.314  1.00  0.00     0.218 HD
ENDBRANCH  16  19
BRANCH  15  21
HETATM   21  O2  UNL     1      25.565  -0.588  54.131  1.00  0.00    -0.246 OA
BRANCH  21  22
HETATM   22  N4  UNL     1      26.277  -0.313  55.253  1.00  0.00    -0.305 N 
HETATM   23  H16 UNL     1      26.132  -0.944  56.050  1.00  0.00     0.184 HD
HETATM   24  H17 UNL     1      26.398   0.683  55.483  1.00  0.00     0.184 HD
ENDBRANCH  21  22
ENDBRANCH  15  21
TORSDOF 4
ENDMDL
MODEL 8
REMARK VINA RESULT:      -6.5      2.947      5.786
REMARK  4 active torsions:
REMARK  status: ('A' for Active; 'I' for Inactive)
REMARK    1  A    between atoms: O1_2  and  C2_3 
REMARK    2  A    between atoms: C13_17  and  O2_18 
REMARK    3  A    between atoms: O2_18  and  N4_19 
REMARK    4  A    between atoms: C14_20  and  O3_21 
ROOT
HETATM    1  C2  UNL     1      20.116  -0.628  53.409  1.00  0.00     0.100 C 
HETATM    2  C3  UNL     1      19.628   0.074  52.430  1.00  0.00     0.014 C 
HETATM    3  C4  UNL     1      18.802   0.745  51.426  1.00  0.00     0.052 C 
HETATM    4  C5  UNL     1      18.945   2.267  51.470  1.00  0.00     0.155 C 
HETATM    5  N1  UNL     1      20.342   2.593  51.239  1.00  0.00    -0.262 NA
HETATM    6  C6  UNL     1      20.856   2.810  50.106  1.00  0.00     0.226 C 
HETATM    7  C7  UNL     1      20.327   2.819  48.787  1.00  0.00     0.140 C 
HETATM    8  N2  UNL     1      19.904   2.806  47.723  1.00  0.00    -0.188 NA
HETATM    9  N3  UNL     1      22.181   3.040  50.555  1.00  0.00    -0.236 NA
HETATM   10  C8  UNL     1      22.945   2.006  50.774  1.00  0.00     0.093 C 
HETATM   11  C9  UNL     1      24.347   1.824  51.235  1.00  0.00     0.057 C 
HETATM   12  C10 UNL     1      24.367   0.862  52.417  1.00  0.00    -0.021 C 
HETATM   13  C11 UNL     1      25.721   0.630  52.957  1.00  0.00     0.017 C 
HETATM   14  C12 UNL     1      23.671   0.087  53.235  1.00  0.00     0.068 C 
HETATM   15  C13 UNL     1      22.556  -0.593  53.854  1.00  0.00     0.117 C 
HETATM   16  C14 UNL     1      21.344  -0.946  54.050  1.00  0.00     0.131 C 
ENDROOT
BRANCH   1  17
HETATM   17  O1  UNL     1      18.816  -0.961  53.575  1.00  0.00    -0.353 OA
HETATM   18  C1  UNL     1      18.210  -2.210  53.505  1.00  0.00     0.210 C 
ENDBRANCH   1  17
BRANCH  16  19
HETATM   19  O3  UNL     1      21.153  -1.815  55.093  1.00  0.00    -0.356 OA
HETATM   20  H18 UNL     1      20.530  -1.621  55.868  1.00  0.00     0.218 HD
ENDBRANCH  16  19
BRANCH  15  21
HETATM   21  O2  UNL     1      23.611  -1.046  54.625  1.00  0.00    -0.246 OA
BRANCH  21  22
HETATM   22  N4  UNL     1      23.517  -1.531  55.889  1.00  0.00    -0.305 N 
HETATM   23  H16 UNL     1      24.108  -2.340  56.112  1.00  0.00     0.184 HD
HETATM   24  H17 UNL     1      22.577  -1.531  56.309  1.00  0.00     0.184 HD
ENDBRANCH  21  22
ENDBRANCH  15  21
TORSDOF 4
ENDMDL
MODEL 9
REMARK VINA RESULT:      -6.5      2.685      5.318
REMARK  4 active torsions:
REMARK  status: ('A' for Active; 'I' for Inactive)
REMARK    1  A    between atoms: O1_2  and  C2_3 
REMARK    2  A    between atoms: C13_17  and  O2_18 
REMARK    3  A    between atoms: O2_18  and  N4_19 
REMARK    4  A    between atoms: C14_20  and  O3_21 
ROOT
HETATM    1  C2  UNL     1      24.582   0.173  53.040  1.00  0.00     0.100 C 
HETATM    2  C3  UNL     1      23.427  -0.292  53.413  1.00  0.00     0.014 C 
HETATM    3  C4  UNL     1      22.300  -0.987  54.034  1.00  0.00     0.052 C 
HETATM    4  C5  UNL     1      21.284  -0.024  54.651  1.00  0.00     0.155 C 
HETATM    5  N1  UNL     1      20.790   0.843  53.595  1.00  0.00    -0.262 NA
HETATM    6  C6  UNL     1      19.779   0.604  52.876  1.00  0.00     0.226 C 
HETATM    7  C7  UNL     1      18.852  -0.472  52.834  1.00  0.00     0.140 C 
HETATM    8  N2  UNL     1      18.117  -1.349  52.788  1.00  0.00    -0.188 NA
HETATM    9  N3  UNL     1      19.851   1.773  52.076  1.00  0.00    -0.236 NA
HETATM   10  C8  UNL     1      20.659   1.769  51.053  1.00  0.00     0.093 C 
HETATM   11  C9  UNL     1      21.015   2.760  50.002  1.00  0.00     0.057 C 
HETATM   12  C10 UNL     1      22.529   2.923  49.957  1.00  0.00    -0.021 C 
HETATM   13  C11 UNL     1      22.980   3.903  48.949  1.00  0.00     0.017 C 
HETATM   14  C12 UNL     1      23.705   2.558  50.446  1.00  0.00     0.068 C 
HETATM   15  C13 UNL     1      24.701   1.884  51.247  1.00  0.00     0.117 C 
HETATM   16  C14 UNL     1      25.175   1.090  52.130  1.00  0.00     0.131 C 
ENDROOT
BRANCH   1  17
HETATM   17  O1  UNL     1      25.026  -0.680  53.991  1.00  0.00    -0.353 OA
HETATM   18  C1  UNL     1      25.792  -0.418  55.121  1.00  0.00     0.210 C 
ENDBRANCH   1  17
BRANCH  16  19
HETATM   19  O3  UNL     1      26.540   1.100  52.249  1.00  0.00    -0.356 OA
HETATM   20  H18 UNL     1      27.139   1.699  51.693  1.00  0.00     0.218 HD
ENDBRANCH  16  19
BRANCH  15  21
HETATM   21  O2  UNL     1      25.494   2.700  50.460  1.00  0.00    -0.246 OA
BRANCH  21  22
HETATM   22  N4  UNL     1      26.308   3.687  50.911  1.00  0.00    -0.305 N 
HETATM   23  H16 UNL     1      26.294   3.862  51.924  1.00  0.00     0.184 HD
HETATM   24  H17 UNL     1      26.392   4.519  50.312  1.00  0.00     0.184 HD
ENDBRANCH  21  22
ENDBRANCH  15  21
TORSDOF 4
ENDMDL
