MODEL 1
REMARK VINA RESULT:      -8.8      0.000      0.000
REMARK  8 active torsions:
REMARK  status: ('A' for Active; 'I' for Inactive)
REMARK    1  A    between atoms: C2_2  and  O1_3 
REMARK    2  A    between atoms: O1_3  and  C3_4 
REMARK    3  A    between atoms: C7_8  and  C8_9 
REMARK       I    between atoms: C8_9  and  N1_11 
REMARK    4  A    between atoms: N1_11  and  C9_12 
REMARK    5  A    between atoms: C12_15  and  N2_16 
REMARK    6  A    between atoms: N2_16  and  C13_17 
REMARK    7  A    between atoms: C14_19  and  N4_20 
REMARK    8  A    between atoms: N4_20  and  C15_21 
ROOT
HETATM    1  C9  UNL     1      26.571   4.954  49.018  1.00  0.00     0.034 A 
HETATM    2  C10 UNL     1      25.285   5.410  48.943  1.00  0.00     0.032 A 
HETATM    3  C11 UNL     1      24.251   4.634  49.440  1.00  0.00     0.034 A 
HETATM    4  C12 UNL     1      24.478   3.398  50.016  1.00  0.00     0.059 A 
HETATM    5  C20 UNL     1      25.771   2.914  50.104  1.00  0.00     0.034 A 
HETATM    6  C21 UNL     1      26.791   3.721  49.594  1.00  0.00     0.032 A 
ENDROOT
BRANCH   4   7
HETATM    7  N2  UNL     1      23.359   2.674  50.498  1.00  0.00    -0.226 NA
BRANCH   7   8
HETATM    8  C13 UNL     1      23.478   1.900  51.550  1.00  0.00     0.199 A 
HETATM    9  N3  UNL     1      22.587   1.668  52.599  1.00  0.00    -0.204 NA
HETATM   10  C14 UNL     1      23.821   1.020  52.581  1.00  0.00     0.179 A 
BRANCH  10  11
HETATM   11  N4  UNL     1      25.044   0.279  52.709  1.00  0.00    -0.337 N 
HETATM   12  H11 UNL     1      25.058  -0.746  52.462  1.00  0.00     0.168 HD
BRANCH  11  13
HETATM   13  C15 UNL     1      26.260   0.866  53.159  1.00  0.00     0.050 A 
HETATM   14  C16 UNL     1      26.400   2.108  53.594  1.00  0.00     0.113 A 
HETATM   15  N5  UNL     1      27.690   2.539  54.010  1.00  0.00    -0.392 N 
HETATM   16  C17 UNL     1      28.879   1.741  54.003  1.00  0.00     0.170 A 
HETATM   17  H13 UNL     1      27.791   3.523  54.352  1.00  0.00     0.159 HD
HETATM   18  C18 UNL     1      28.596   0.372  53.497  1.00  0.00     0.031 A 
HETATM   19 CL1  UNL     1      30.079  -0.571  53.506  1.00  0.00    -0.087 Cl
HETATM   20  C19 UNL     1      27.410  -0.020  53.116  1.00  0.00     0.052 A 
ENDBRANCH  11  13
ENDBRANCH  10  11
ENDBRANCH   7   8
ENDBRANCH   4   7
BRANCH   1  21
HETATM   21  N1  UNL     1      27.755   5.629  48.552  1.00  0.00    -0.327 N 
HETATM   22  C8  UNL     1      28.097   7.009  48.574  1.00  0.00     0.230 C 
HETATM   23  O2  UNL     1      27.193   7.725  49.090  1.00  0.00    -0.272 OA
HETATM   24  H8  UNL     1      28.247   4.754  48.207  1.00  0.00     0.169 HD
BRANCH  22  25
HETATM   25  C7  UNL     1      29.456   7.120  47.952  1.00  0.00     0.107 A 
HETATM   26  C6  UNL     1      30.208   8.096  48.776  1.00  0.00    -0.012 A 
HETATM   27  C5  UNL     1      31.363   7.981  49.410  1.00  0.00    -0.001 A 
HETATM   28  C4  UNL     1      32.002   6.681  49.277  1.00  0.00     0.032 A 
HETATM   29  C3  UNL     1      31.392   5.762  48.560  1.00  0.00     0.048 A 
HETATM   30  C22 UNL     1      30.108   5.786  47.816  1.00  0.00     0.082 A 
BRANCH  29  31
HETATM   31  O1  UNL     1      31.984   4.495  48.413  1.00  0.00    -0.347 OA
BRANCH  31  32
HETATM   32  C2  UNL     1      32.363   4.054  47.129  1.00  0.00     0.158 C 
HETATM   33  C1  UNL     1      32.686   2.757  47.002  1.00  0.00     0.038 C 
ENDBRANCH  31  32
ENDBRANCH  29  31
ENDBRANCH  22  25
ENDBRANCH   1  21
TORSDOF 8
ENDMDL
MODEL 2
REMARK VINA RESULT:      -8.7      3.306      8.532
REMARK  8 active torsions:
REMARK  status: ('A' for Active; 'I' for Inactive)
REMARK    1  A    between atoms: C2_2  and  O1_3 
REMARK    2  A    between atoms: O1_3  and  C3_4 
REMARK    3  A    between atoms: C7_8  and  C8_9 
REMARK       I    between atoms: C8_9  and  N1_11 
REMARK    4  A    between atoms: N1_11  and  C9_12 
REMARK    5  A    between atoms: C12_15  and  N2_16 
REMARK    6  A    between atoms: N2_16  and  C13_17 
REMARK    7  A    between atoms: C14_19  and  N4_20 
REMARK    8  A    between atoms: N4_20  and  C15_21 
ROOT
HETATM    1  C9  UNL     1      26.269   4.023  49.830  1.00  0.00     0.034 A 
HETATM    2  C10 UNL     1      27.267   4.369  48.965  1.00  0.00     0.032 A 
HETATM    3  C11 UNL     1      27.370   5.678  48.522  1.00  0.00     0.034 A 
HETATM    4  C12 UNL     1      26.487   6.658  48.931  1.00  0.00     0.059 A 
HETATM    5  C20 UNL     1      25.466   6.334  49.808  1.00  0.00     0.034 A 
HETATM    6  C21 UNL     1      25.390   5.005  50.236  1.00  0.00     0.032 A 
ENDROOT
BRANCH   4   7
HETATM    7  N2  UNL     1      26.669   7.970  48.428  1.00  0.00    -0.226 NA
BRANCH   7   8
HETATM    8  C13 UNL     1      27.862   8.513  48.420  1.00  0.00     0.199 A 
HETATM    9  N3  UNL     1      28.358   9.580  47.668  1.00  0.00    -0.204 NA
HETATM   10  C14 UNL     1      29.188   8.929  48.579  1.00  0.00     0.179 A 
BRANCH  10  11
HETATM   11  N4  UNL     1      30.164   8.368  49.469  1.00  0.00    -0.337 N 
HETATM   12  H11 UNL     1      30.064   8.516  50.509  1.00  0.00     0.168 HD
BRANCH  11  13
HETATM   13  C15 UNL     1      31.280   7.610  49.015  1.00  0.00     0.050 A 
HETATM   14  C16 UNL     1      32.549   7.969  49.120  1.00  0.00     0.113 A 
HETATM   15  N5  UNL     1      33.546   7.092  48.613  1.00  0.00    -0.392 N 
HETATM   16  C17 UNL     1      33.305   5.829  47.984  1.00  0.00     0.170 A 
HETATM   17  H13 UNL     1      34.548   7.385  48.700  1.00  0.00     0.159 HD
HETATM   18  C18 UNL     1      31.849   5.536  47.925  1.00  0.00     0.031 A 
HETATM   19 CL1  UNL     1      31.599   3.979  47.148  1.00  0.00    -0.087 Cl
HETATM   20  C19 UNL     1      30.935   6.344  48.392  1.00  0.00     0.052 A 
ENDBRANCH  11  13
ENDBRANCH  10  11
ENDBRANCH   7   8
ENDBRANCH   4   7
BRANCH   1  21
HETATM   21  N1  UNL     1      26.019   2.717  50.384  1.00  0.00    -0.327 N 
HETATM   22  C8  UNL     1      26.674   2.023  51.438  1.00  0.00     0.230 C 
HETATM   23  O2  UNL     1      27.621   2.690  51.943  1.00  0.00    -0.272 OA
HETATM   24  H8  UNL     1      25.206   2.484  49.743  1.00  0.00     0.169 HD
BRANCH  22  25
HETATM   25  C7  UNL     1      25.980   0.702  51.573  1.00  0.00     0.107 A 
HETATM   26  C6  UNL     1      26.865  -0.145  52.408  1.00  0.00    -0.012 A 
HETATM   27  C5  UNL     1      26.629  -0.786  53.540  1.00  0.00    -0.001 A 
HETATM   28  C4  UNL     1      25.276  -0.633  54.054  1.00  0.00     0.032 A 
HETATM   29  C3  UNL     1      24.433   0.107  53.366  1.00  0.00     0.048 A 
HETATM   30  C22 UNL     1      24.594   0.861  52.097  1.00  0.00     0.082 A 
BRANCH  29  31
HETATM   31  O1  UNL     1      23.118   0.273  53.835  1.00  0.00    -0.347 OA
BRANCH  31  32
HETATM   32  C2  UNL     1      22.133  -0.671  53.481  1.00  0.00     0.158 C 
HETATM   33  C1  UNL     1      21.675  -1.469  54.460  1.00  0.00     0.038 C 
ENDBRANCH  31  32
ENDBRANCH  29  31
ENDBRANCH  22  25
ENDBRANCH   1  21
TORSDOF 8
ENDMDL
MODEL 3
REMARK VINA RESULT:      -8.7      3.580      8.568
REMARK  8 active torsions:
REMARK  status: ('A' for Active; 'I' for Inactive)
REMARK    1  A    between atoms: C2_2  and  O1_3 
REMARK    2  A    between atoms: O1_3  and  C3_4 
REMARK    3  A    between atoms: C7_8  and  C8_9 
REMARK       I    between atoms: C8_9  and  N1_11 
REMARK    4  A    between atoms: N1_11  and  C9_12 
REMARK    5  A    between atoms: C12_15  and  N2_16 
REMARK    6  A    between atoms: N2_16  and  C13_17 
REMARK    7  A    between atoms: C14_19  and  N4_20 
REMARK    8  A    between atoms: N4_20  and  C15_21 
ROOT
HETATM    1  C9  UNL     1      25.752   4.460  50.286  1.00  0.00     0.034 A 
HETATM    2  C10 UNL     1      26.812   4.046  49.531  1.00  0.00     0.032 A 
HETATM    3  C11 UNL     1      27.412   4.928  48.647  1.00  0.00     0.034 A 
HETATM    4  C12 UNL     1      26.969   6.229  48.502  1.00  0.00     0.059 A 
HETATM    5  C20 UNL     1      25.897   6.673  49.255  1.00  0.00     0.034 A 
HETATM    6  C21 UNL     1      25.314   5.758  50.137  1.00  0.00     0.032 A 
ENDROOT
BRANCH   4   7
HETATM    7  N2  UNL     1      27.644   7.061  47.575  1.00  0.00    -0.226 NA
BRANCH   7   8
HETATM    8  C13 UNL     1      28.630   7.827  47.972  1.00  0.00     0.199 A 
HETATM    9  N3  UNL     1      29.010   9.099  47.540  1.00  0.00    -0.204 NA
HETATM   10  C14 UNL     1      29.734   8.466  48.549  1.00  0.00     0.179 A 
BRANCH  10  11
HETATM   11  N4  UNL     1      30.578   7.951  49.589  1.00  0.00    -0.337 N 
HETATM   12  H11 UNL     1      30.320   8.122  50.598  1.00  0.00     0.168 HD
BRANCH  11  13
HETATM   13  C15 UNL     1      31.765   7.211  49.328  1.00  0.00     0.050 A 
HETATM   14  C16 UNL     1      31.918   5.910  49.513  1.00  0.00     0.113 A 
HETATM   15  N5  UNL     1      33.174   5.323  49.200  1.00  0.00    -0.392 N 
HETATM   16  C17 UNL     1      34.318   6.020  48.693  1.00  0.00     0.170 A 
HETATM   17  H13 UNL     1      33.286   4.292  49.350  1.00  0.00     0.159 HD
HETATM   18  C18 UNL     1      34.025   7.468  48.527  1.00  0.00     0.031 A 
HETATM   19 CL1  UNL     1      35.451   8.283  47.903  1.00  0.00    -0.087 Cl
HETATM   20  C19 UNL     1      32.869   8.004  48.815  1.00  0.00     0.052 A 
ENDBRANCH  11  13
ENDBRANCH  10  11
ENDBRANCH   7   8
ENDBRANCH   4   7
BRANCH   1  21
HETATM   21  N1  UNL     1      25.017   3.676  51.246  1.00  0.00    -0.327 N 
HETATM   22  C8  UNL     1      23.940   2.766  51.060  1.00  0.00     0.230 C 
HETATM   23  O2  UNL     1      23.603   2.654  49.847  1.00  0.00    -0.272 OA
HETATM   24  H8  UNL     1      25.554   4.017  52.095  1.00  0.00     0.169 HD
BRANCH  22  25
HETATM   25  C7  UNL     1      23.580   2.250  52.419  1.00  0.00     0.107 A 
HETATM   26  C6  UNL     1      22.318   1.490  52.251  1.00  0.00    -0.012 A 
HETATM   27  C5  UNL     1      22.018   0.238  52.551  1.00  0.00    -0.001 A 
HETATM   28  C4  UNL     1      23.108  -0.522  53.145  1.00  0.00     0.032 A 
HETATM   29  C3  UNL     1      24.261   0.086  53.324  1.00  0.00     0.048 A 
HETATM   30  C22 UNL     1      24.698   1.473  53.025  1.00  0.00     0.082 A 
BRANCH  29  31
HETATM   31  O1  UNL     1      25.333  -0.621  53.895  1.00  0.00    -0.347 OA
BRANCH  31  32
HETATM   32  C2  UNL     1      26.566  -0.677  53.215  1.00  0.00     0.158 C 
HETATM   33  C1  UNL     1      26.827  -1.796  52.519  1.00  0.00     0.038 C 
ENDBRANCH  31  32
ENDBRANCH  29  31
ENDBRANCH  22  25
ENDBRANCH   1  21
TORSDOF 8
ENDMDL
MODEL 4
REMARK VINA RESULT:      -8.7      0.936      1.278
REMARK  8 active torsions:
REMARK  status: ('A' for Active; 'I' for Inactive)
REMARK    1  A    between atoms: C2_2  and  O1_3 
REMARK    2  A    between atoms: O1_3  and  C3_4 
REMARK    3  A    between atoms: C7_8  and  C8_9 
REMARK       I    between atoms: C8_9  and  N1_11 
REMARK    4  A    between atoms: N1_11  and  C9_12 
REMARK    5  A    between atoms: C12_15  and  N2_16 
REMARK    6  A    between atoms: N2_16  and  C13_17 
REMARK    7  A    between atoms: C14_19  and  N4_20 
REMARK    8  A    between atoms: N4_20  and  C15_21 
ROOT
HETATM    1  C9  UNL     1      26.336   4.244  49.465  1.00  0.00     0.034 A 
HETATM    2  C10 UNL     1      26.511   3.267  50.402  1.00  0.00     0.032 A 
HETATM    3  C11 UNL     1      25.409   2.602  50.916  1.00  0.00     0.034 A 
HETATM    4  C12 UNL     1      24.123   2.899  50.507  1.00  0.00     0.059 A 
HETATM    5  C20 UNL     1      23.918   3.885  49.557  1.00  0.00     0.034 A 
HETATM    6  C21 UNL     1      25.051   4.536  49.060  1.00  0.00     0.032 A 
ENDROOT
BRANCH   4   7
HETATM    7  N2  UNL     1      23.056   2.168  51.085  1.00  0.00    -0.226 NA
BRANCH   7   8
HETATM    8  C13 UNL     1      23.282   1.351  52.086  1.00  0.00     0.199 A 
HETATM    9  N3  UNL     1      22.562   1.157  53.266  1.00  0.00    -0.204 NA
HETATM   10  C14 UNL     1      23.715   0.411  53.027  1.00  0.00     0.179 A 
BRANCH  10  11
HETATM   11  N4  UNL     1      24.874  -0.430  52.930  1.00  0.00    -0.337 N 
HETATM   12  H11 UNL     1      24.818  -1.329  52.382  1.00  0.00     0.168 HD
BRANCH  11  13
HETATM   13  C15 UNL     1      26.116  -0.110  53.547  1.00  0.00     0.050 A 
HETATM   14  C16 UNL     1      26.311   0.860  54.426  1.00  0.00     0.113 A 
HETATM   15  N5  UNL     1      27.620   1.048  54.949  1.00  0.00    -0.392 N 
HETATM   16  C17 UNL     1      28.774   0.271  54.609  1.00  0.00     0.170 A 
HETATM   17  H13 UNL     1      27.765   1.818  55.644  1.00  0.00     0.159 HD
HETATM   18  C18 UNL     1      28.430  -0.782  53.618  1.00  0.00     0.031 A 
HETATM   19 CL1  UNL     1      29.872  -1.710  53.230  1.00  0.00    -0.087 Cl
HETATM   20  C19 UNL     1      27.227  -0.952  53.140  1.00  0.00     0.052 A 
ENDBRANCH  11  13
ENDBRANCH  10  11
ENDBRANCH   7   8
ENDBRANCH   4   7
BRANCH   1  21
HETATM   21  N1  UNL     1      27.366   5.029  48.832  1.00  0.00    -0.327 N 
HETATM   22  C8  UNL     1      27.498   6.439  48.699  1.00  0.00     0.230 C 
HETATM   23  O2  UNL     1      26.541   7.068  49.231  1.00  0.00    -0.272 OA
HETATM   24  H8  UNL     1      27.954   4.202  48.522  1.00  0.00     0.169 HD
BRANCH  22  25
HETATM   25  C7  UNL     1      28.771   6.677  47.946  1.00  0.00     0.107 A 
HETATM   26  C6  UNL     1      29.337   7.938  48.481  1.00  0.00    -0.012 A 
HETATM   27  C5  UNL     1      30.518   8.195  49.016  1.00  0.00    -0.001 A 
HETATM   28  C4  UNL     1      31.412   7.050  49.095  1.00  0.00     0.032 A 
HETATM   29  C3  UNL     1      30.978   5.894  48.639  1.00  0.00     0.048 A 
HETATM   30  C22 UNL     1      29.684   5.501  48.026  1.00  0.00     0.082 A 
BRANCH  29  31
HETATM   31  O1  UNL     1      31.818   4.769  48.700  1.00  0.00    -0.347 OA
BRANCH  31  32
HETATM   32  C2  UNL     1      32.704   4.508  47.635  1.00  0.00     0.158 C 
HETATM   33  C1  UNL     1      32.344   3.549  46.766  1.00  0.00     0.038 C 
ENDBRANCH  31  32
ENDBRANCH  29  31
ENDBRANCH  22  25
ENDBRANCH   1  21
TORSDOF 8
ENDMDL
MODEL 5
REMARK VINA RESULT:      -8.6      3.223      8.362
REMARK  8 active torsions:
REMARK  status: ('A' for Active; 'I' for Inactive)
REMARK    1  A    between atoms: C2_2  and  O1_3 
REMARK    2  A    between atoms: O1_3  and  C3_4 
REMARK    3  A    between atoms: C7_8  and  C8_9 
REMARK       I    between atoms: C8_9  and  N1_11 
REMARK    4  A    between atoms: N1_11  and  C9_12 
REMARK    5  A    between atoms: C12_15  and  N2_16 
REMARK    6  A    between atoms: N2_16  and  C13_17 
REMARK    7  A    between atoms: C14_19  and  N4_20 
REMARK    8  A    between atoms: N4_20  and  C15_21 
ROOT
HETATM    1  C9  UNL     1      25.704   4.282  50.303  1.00  0.00     0.034 A 
HETATM    2  C10 UNL     1      26.763   3.810  49.580  1.00  0.00     0.032 A 
HETATM    3  C11 UNL     1      27.456   4.666  48.738  1.00  0.00     0.034 A 
HETATM    4  C12 UNL     1      27.108   5.996  48.604  1.00  0.00     0.059 A 
HETATM    5  C20 UNL     1      26.039   6.499  49.325  1.00  0.00     0.034 A 
HETATM    6  C21 UNL     1      25.362   5.610  50.165  1.00  0.00     0.032 A 
ENDROOT
BRANCH   4   7
HETATM    7  N2  UNL     1      27.873   6.797  47.720  1.00  0.00    -0.226 NA
BRANCH   7   8
HETATM    8  C13 UNL     1      29.071   7.200  48.066  1.00  0.00     0.199 A 
HETATM    9  N3  UNL     1      29.721   8.409  47.810  1.00  0.00    -0.204 NA
HETATM   10  C14 UNL     1      30.370   7.415  48.540  1.00  0.00     0.179 A 
BRANCH  10  11
HETATM   11  N4  UNL     1      31.170   6.497  49.301  1.00  0.00    -0.337 N 
HETATM   12  H11 UNL     1      30.909   6.289  50.302  1.00  0.00     0.168 HD
BRANCH  11  13
HETATM   13  C15 UNL     1      32.316   5.844  48.768  1.00  0.00     0.050 A 
HETATM   14  C16 UNL     1      33.552   6.319  48.789  1.00  0.00     0.113 A 
HETATM   15  N5  UNL     1      34.588   5.536  48.210  1.00  0.00    -0.392 N 
HETATM   16  C17 UNL     1      34.421   4.255  47.593  1.00  0.00     0.170 A 
HETATM   17  H13 UNL     1      35.562   5.920  48.231  1.00  0.00     0.159 HD
HETATM   18  C18 UNL     1      32.997   3.830  47.631  1.00  0.00     0.031 A 
HETATM   19 CL1  UNL     1      32.838   2.256  46.865  1.00  0.00    -0.087 Cl
HETATM   20  C19 UNL     1      32.047   4.551  48.164  1.00  0.00     0.052 A 
ENDBRANCH  11  13
ENDBRANCH  10  11
ENDBRANCH   7   8
ENDBRANCH   4   7
BRANCH   1  21
HETATM   21  N1  UNL     1      24.881   3.533  51.218  1.00  0.00    -0.327 N 
HETATM   22  C8  UNL     1      23.760   2.692  50.971  1.00  0.00     0.230 C 
HETATM   23  O2  UNL     1      23.472   2.617  49.743  1.00  0.00    -0.272 OA
HETATM   24  H8  UNL     1      25.399   3.830  52.095  1.00  0.00     0.169 HD
BRANCH  22  25
HETATM   25  C7  UNL     1      23.309   2.183  52.306  1.00  0.00     0.107 A 
HETATM   26  C6  UNL     1      22.131   1.323  52.042  1.00  0.00    -0.012 A 
HETATM   27  C5  UNL     1      21.898   0.059  52.352  1.00  0.00    -0.001 A 
HETATM   28  C4  UNL     1      22.979  -0.599  53.070  1.00  0.00     0.032 A 
HETATM   29  C3  UNL     1      24.060   0.102  53.340  1.00  0.00     0.048 A 
HETATM   30  C22 UNL     1      24.418   1.511  53.041  1.00  0.00     0.082 A 
BRANCH  29  31
HETATM   31  O1  UNL     1      25.121  -0.505  54.033  1.00  0.00    -0.347 OA
BRANCH  31  32
HETATM   32  C2  UNL     1      26.416  -0.478  53.477  1.00  0.00     0.158 C 
HETATM   33  C1  UNL     1      26.712  -1.433  52.580  1.00  0.00     0.038 C 
ENDBRANCH  31  32
ENDBRANCH  29  31
ENDBRANCH  22  25
ENDBRANCH   1  21
TORSDOF 8
ENDMDL
MODEL 6
REMARK VINA RESULT:      -8.2      1.394      1.796
REMARK  8 active torsions:
REMARK  status: ('A' for Active; 'I' for Inactive)
REMARK    1  A    between atoms: C2_2  and  O1_3 
REMARK    2  A    between atoms: O1_3  and  C3_4 
REMARK    3  A    between atoms: C7_8  and  C8_9 
REMARK       I    between atoms: C8_9  and  N1_11 
REMARK    4  A    between atoms: N1_11  and  C9_12 
REMARK    5  A    between atoms: C12_15  and  N2_16 
REMARK    6  A    between atoms: N2_16  and  C13_17 
REMARK    7  A    between atoms: C14_19  and  N4_20 
REMARK    8  A    between atoms: N4_20  and  C15_21 
ROOT
HETATM    1  C9  UNL     1      27.284   5.306  48.944  1.00  0.00     0.034 A 
HETATM    2  C10 UNL     1      26.930   4.002  49.141  1.00  0.00     0.032 A 
HETATM    3  C11 UNL     1      25.655   3.695  49.587  1.00  0.00     0.034 A 
HETATM    4  C12 UNL     1      24.716   4.676  49.843  1.00  0.00     0.059 A 
HETATM    5  C20 UNL     1      25.049   6.006  49.651  1.00  0.00     0.034 A 
HETATM    6  C21 UNL     1      26.343   6.281  49.201  1.00  0.00     0.032 A 
ENDROOT
BRANCH   4   7
HETATM    7  N2  UNL     1      23.437   4.270  50.296  1.00  0.00    -0.226 NA
BRANCH   7   8
HETATM    8  C13 UNL     1      23.326   3.344  51.217  1.00  0.00     0.199 A 
HETATM    9  N3  UNL     1      22.505   3.294  52.345  1.00  0.00    -0.204 NA
HETATM   10  C14 UNL     1      23.376   2.240  52.075  1.00  0.00     0.179 A 
BRANCH  10  11
HETATM   11  N4  UNL     1      24.214   1.082  51.936  1.00  0.00    -0.337 N 
HETATM   12  H11 UNL     1      24.070   0.434  51.117  1.00  0.00     0.168 HD
BRANCH  11  13
HETATM   13  C15 UNL     1      25.243   0.757  52.864  1.00  0.00     0.050 A 
HETATM   14  C16 UNL     1      25.236  -0.275  53.691  1.00  0.00     0.113 A 
HETATM   15  N5  UNL     1      26.349  -0.457  54.557  1.00  0.00    -0.392 N 
HETATM   16  C17 UNL     1      27.503   0.387  54.623  1.00  0.00     0.170 A 
HETATM   17  H13 UNL     1      26.334  -1.277  55.209  1.00  0.00     0.159 HD
HETATM   18  C18 UNL     1      27.396   1.507  53.650  1.00  0.00     0.031 A 
HETATM   19 CL1  UNL     1      28.830   2.517  53.763  1.00  0.00    -0.087 Cl
HETATM   20  C19 UNL     1      26.372   1.671  52.856  1.00  0.00     0.052 A 
ENDBRANCH  11  13
ENDBRANCH  10  11
ENDBRANCH   7   8
ENDBRANCH   4   7
BRANCH   1  21
HETATM   21  N1  UNL     1      28.559   5.797  48.489  1.00  0.00    -0.327 N 
HETATM   22  C8  UNL     1      28.872   6.867  47.605  1.00  0.00     0.230 C 
HETATM   23  O2  UNL     1      27.841   7.455  47.172  1.00  0.00    -0.272 OA
HETATM   24  H8  UNL     1      29.143   5.096  49.032  1.00  0.00     0.169 HD
BRANCH  22  25
HETATM   25  C7  UNL     1      30.366   6.910  47.503  1.00  0.00     0.107 A 
HETATM   26  C6  UNL     1      30.834   7.739  48.639  1.00  0.00    -0.012 A 
HETATM   27  C5  UNL     1      31.686   7.467  49.613  1.00  0.00    -0.001 A 
HETATM   28  C4  UNL     1      32.261   6.131  49.560  1.00  0.00     0.032 A 
HETATM   29  C3  UNL     1      31.892   5.336  48.578  1.00  0.00     0.048 A 
HETATM   30  C22 UNL     1      30.953   5.541  47.447  1.00  0.00     0.082 A 
BRANCH  29  31
HETATM   31  O1  UNL     1      32.430   4.040  48.499  1.00  0.00    -0.347 OA
BRANCH  31  32
HETATM   32  C2  UNL     1      33.348   3.733  47.474  1.00  0.00     0.158 C 
HETATM   33  C1  UNL     1      34.624   3.532  47.841  1.00  0.00     0.038 C 
ENDBRANCH  31  32
ENDBRANCH  29  31
ENDBRANCH  22  25
ENDBRANCH   1  21
TORSDOF 8
ENDMDL
MODEL 7
REMARK VINA RESULT:      -8.0      1.664      3.292
REMARK  8 active torsions:
REMARK  status: ('A' for Active; 'I' for Inactive)
REMARK    1  A    between atoms: C2_2  and  O1_3 
REMARK    2  A    between atoms: O1_3  and  C3_4 
REMARK    3  A    between atoms: C7_8  and  C8_9 
REMARK       I    between atoms: C8_9  and  N1_11 
REMARK    4  A    between atoms: N1_11  and  C9_12 
REMARK    5  A    between atoms: C12_15  and  N2_16 
REMARK    6  A    between atoms: N2_16  and  C13_17 
REMARK    7  A    between atoms: C14_19  and  N4_20 
REMARK    8  A    between atoms: N4_20  and  C15_21 
ROOT
HETATM    1  C9  UNL     1      26.799   5.644  48.896  1.00  0.00     0.034 A 
HETATM    2  C10 UNL     1      25.484   6.014  48.916  1.00  0.00     0.032 A 
HETATM    3  C11 UNL     1      24.517   5.098  49.297  1.00  0.00     0.034 A 
HETATM    4  C12 UNL     1      24.842   3.805  49.662  1.00  0.00     0.059 A 
HETATM    5  C20 UNL     1      26.166   3.404  49.651  1.00  0.00     0.034 A 
HETATM    6  C21 UNL     1      27.117   4.353  49.261  1.00  0.00     0.032 A 
ENDROOT
BRANCH   4   7
HETATM    7  N2  UNL     1      23.788   2.936  50.038  1.00  0.00    -0.226 NA
BRANCH   7   8
HETATM    8  C13 UNL     1      23.899   2.190  51.110  1.00  0.00     0.199 A 
HETATM    9  N3  UNL     1      23.055   2.076  52.216  1.00  0.00    -0.204 NA
HETATM   10  C14 UNL     1      24.222   1.316  52.154  1.00  0.00     0.179 A 
BRANCH  10  11
HETATM   11  N4  UNL     1      25.379   0.471  52.241  1.00  0.00    -0.337 N 
HETATM   12  H11 UNL     1      25.359  -0.482  51.790  1.00  0.00     0.168 HD
BRANCH  11  13
HETATM   13  C15 UNL     1      26.571   0.859  52.915  1.00  0.00     0.050 A 
HETATM   14  C16 UNL     1      26.803   2.048  53.446  1.00  0.00     0.113 A 
HETATM   15  N5  UNL     1      28.052   2.272  54.087  1.00  0.00    -0.392 N 
HETATM   16  C17 UNL     1      29.108   1.314  54.216  1.00  0.00     0.170 A 
HETATM   17  H13 UNL     1      28.226   3.217  54.505  1.00  0.00     0.159 HD
HETATM   18  C18 UNL     1      28.732   0.023  53.583  1.00  0.00     0.031 A 
HETATM   19 CL1  UNL     1      30.053  -1.122  53.764  1.00  0.00    -0.087 Cl
HETATM   20  C19 UNL     1      27.583  -0.180  52.995  1.00  0.00     0.052 A 
ENDBRANCH  11  13
ENDBRANCH  10  11
ENDBRANCH   7   8
ENDBRANCH   4   7
BRANCH   1  21
HETATM   21  N1  UNL     1      27.923   6.466  48.527  1.00  0.00    -0.327 N 
HETATM   22  C8  UNL     1      29.249   6.103  48.163  1.00  0.00     0.230 C 
HETATM   23  O2  UNL     1      29.431   4.853  48.179  1.00  0.00    -0.272 OA
HETATM   24  H8  UNL     1      27.413   7.392  48.623  1.00  0.00     0.169 HD
BRANCH  22  25
HETATM   25  C7  UNL     1      29.978   7.381  47.883  1.00  0.00     0.107 A 
HETATM   26  C6  UNL     1      29.757   7.676  46.447  1.00  0.00    -0.012 A 
HETATM   27  C5  UNL     1      29.251   8.743  45.853  1.00  0.00    -0.001 A 
HETATM   28  C4  UNL     1      28.842   9.806  46.760  1.00  0.00     0.032 A 
HETATM   29  C3  UNL     1      29.007   9.615  48.051  1.00  0.00     0.048 A 
HETATM   30  C22 UNL     1      29.558   8.467  48.814  1.00  0.00     0.082 A 
BRANCH  29  31
HETATM   31  O1  UNL     1      28.622  10.623  48.952  1.00  0.00    -0.347 OA
BRANCH  31  32
HETATM   32  C2  UNL     1      29.105  11.935  48.771  1.00  0.00     0.158 C 
HETATM   33  C1  UNL     1      30.401  12.150  49.049  1.00  0.00     0.038 C 
ENDBRANCH  31  32
ENDBRANCH  29  31
ENDBRANCH  22  25
ENDBRANCH   1  21
TORSDOF 8
ENDMDL
MODEL 8
REMARK VINA RESULT:      -7.9      1.894      2.987
REMARK  8 active torsions:
REMARK  status: ('A' for Active; 'I' for Inactive)
REMARK    1  A    between atoms: C2_2  and  O1_3 
REMARK    2  A    between atoms: O1_3  and  C3_4 
REMARK    3  A    between atoms: C7_8  and  C8_9 
REMARK       I    between atoms: C8_9  and  N1_11 
REMARK    4  A    between atoms: N1_11  and  C9_12 
REMARK    5  A    between atoms: C12_15  and  N2_16 
REMARK    6  A    between atoms: N2_16  and  C13_17 
REMARK    7  A    between atoms: C14_19  and  N4_20 
REMARK    8  A    between atoms: N4_20  and  C15_21 
ROOT
HETATM    1  C9  UNL     1      28.747   6.311  47.995  1.00  0.00     0.034 A 
HETATM    2  C10 UNL     1      28.363   5.105  48.508  1.00  0.00     0.032 A 
HETATM    3  C11 UNL     1      27.039   4.896  48.859  1.00  0.00     0.034 A 
HETATM    4  C12 UNL     1      26.081   5.880  48.705  1.00  0.00     0.059 A 
HETATM    5  C20 UNL     1      26.443   7.111  48.186  1.00  0.00     0.034 A 
HETATM    6  C21 UNL     1      27.786   7.288  47.843  1.00  0.00     0.032 A 
ENDROOT
BRANCH   4   7
HETATM    7  N2  UNL     1      24.751   5.578  49.089  1.00  0.00    -0.226 NA
BRANCH   7   8
HETATM    8  C13 UNL     1      24.519   4.665  50.001  1.00  0.00     0.199 A 
HETATM    9  N3  UNL     1      23.325   4.035  50.357  1.00  0.00    -0.204 NA
HETATM   10  C14 UNL     1      24.507   3.705  51.019  1.00  0.00     0.179 A 
BRANCH  10  11
HETATM   11  N4  UNL     1      25.630   3.258  51.792  1.00  0.00    -0.337 N 
HETATM   12  H11 UNL     1      26.516   3.832  51.799  1.00  0.00     0.168 HD
BRANCH  11  13
HETATM   13  C15 UNL     1      25.613   2.061  52.561  1.00  0.00     0.050 A 
HETATM   14  C16 UNL     1      24.596   1.220  52.653  1.00  0.00     0.113 A 
HETATM   15  N5  UNL     1      24.743   0.064  53.468  1.00  0.00    -0.392 N 
HETATM   16  C17 UNL     1      25.912  -0.286  54.216  1.00  0.00     0.170 A 
HETATM   17  H13 UNL     1      23.932  -0.596  53.534  1.00  0.00     0.159 HD
HETATM   18  C18 UNL     1      26.982   0.730  54.034  1.00  0.00     0.031 A 
HETATM   19 CL1  UNL     1      28.396   0.263  54.968  1.00  0.00    -0.087 Cl
HETATM   20  C19 UNL     1      26.843   1.791  53.284  1.00  0.00     0.052 A 
ENDBRANCH  11  13
ENDBRANCH  10  11
ENDBRANCH   7   8
ENDBRANCH   4   7
BRANCH   1  21
HETATM   21  N1  UNL     1      30.073   6.693  47.583  1.00  0.00    -0.327 N 
HETATM   22  C8  UNL     1      30.988   7.614  48.163  1.00  0.00     0.230 C 
HETATM   23  O2  UNL     1      30.528   8.166  49.202  1.00  0.00    -0.272 OA
HETATM   24  H8  UNL     1      30.106   6.060  46.731  1.00  0.00     0.169 HD
BRANCH  22  25
HETATM   25  C7  UNL     1      32.212   7.598  47.299  1.00  0.00     0.107 A 
HETATM   26  C6  UNL     1      33.340   7.995  48.175  1.00  0.00    -0.012 A 
HETATM   27  C5  UNL     1      34.477   7.378  48.452  1.00  0.00    -0.001 A 
HETATM   28  C4  UNL     1      34.649   6.095  47.786  1.00  0.00     0.032 A 
HETATM   29  C3  UNL     1      33.687   5.676  46.992  1.00  0.00     0.048 A 
HETATM   30  C22 UNL     1      32.386   6.284  46.617  1.00  0.00     0.082 A 
BRANCH  29  31
HETATM   31  O1  UNL     1      33.823   4.442  46.334  1.00  0.00    -0.347 OA
BRANCH  31  32
HETATM   32  C2  UNL     1      32.668   3.730  45.951  1.00  0.00     0.158 C 
HETATM   33  C1  UNL     1      32.379   2.619  46.647  1.00  0.00     0.038 C 
ENDBRANCH  31  32
ENDBRANCH  29  31
ENDBRANCH  22  25
ENDBRANCH   1  21
TORSDOF 8
ENDMDL
MODEL 9
REMARK VINA RESULT:      -7.9      3.997      9.277
REMARK  8 active torsions:
REMARK  status: ('A' for Active; 'I' for Inactive)
REMARK    1  A    between atoms: C2_2  and  O1_3 
REMARK    2  A    between atoms: O1_3  and  C3_4 
REMARK    3  A    between atoms: C7_8  and  C8_9 
REMARK       I    between atoms: C8_9  and  N1_11 
REMARK    4  A    between atoms: N1_11  and  C9_12 
REMARK    5  A    between atoms: C12_15  and  N2_16 
REMARK    6  A    between atoms: N2_16  and  C13_17 
REMARK    7  A    between atoms: C14_19  and  N4_20 
REMARK    8  A    between atoms: N4_20  and  C15_21 
ROOT
HETATM    1  C9  UNL     1      25.599   4.883  50.208  1.00  0.00     0.034 A 
HETATM    2  C10 UNL     1      25.516   6.206  49.876  1.00  0.00     0.032 A 
HETATM    3  C11 UNL     1      26.436   6.752  48.995  1.00  0.00     0.034 A 
HETATM    4  C12 UNL     1      27.447   5.996  48.434  1.00  0.00     0.059 A 
HETATM    5  C20 UNL     1      27.553   4.653  48.754  1.00  0.00     0.034 A 
HETATM    6  C21 UNL     1      26.610   4.133  49.646  1.00  0.00     0.032 A 
ENDROOT
BRANCH   4   7
HETATM    7  N2  UNL     1      28.341   6.638  47.543  1.00  0.00    -0.226 NA
BRANCH   7   8
HETATM    8  C13 UNL     1      29.631   6.422  47.633  1.00  0.00     0.199 A 
HETATM    9  N3  UNL     1      30.678   7.317  47.860  1.00  0.00    -0.204 NA
HETATM   10  C14 UNL     1      30.951   5.961  47.692  1.00  0.00     0.179 A 
BRANCH  10  11
HETATM   11  N4  UNL     1      31.395   4.604  47.539  1.00  0.00    -0.337 N 
HETATM   12  H11 UNL     1      30.775   3.816  47.867  1.00  0.00     0.168 HD
BRANCH  11  13
HETATM   13  C15 UNL     1      32.649   4.261  46.961  1.00  0.00     0.050 A 
HETATM   14  C16 UNL     1      33.558   3.469  47.507  1.00  0.00     0.113 A 
HETATM   15  N5  UNL     1      34.763   3.228  46.794  1.00  0.00    -0.392 N 
HETATM   16  C17 UNL     1      35.098   3.771  45.512  1.00  0.00     0.170 A 
HETATM   17  H13 UNL     1      35.477   2.600  47.234  1.00  0.00     0.159 HD
HETATM   18  C18 UNL     1      34.004   4.640  45.003  1.00  0.00     0.031 A 
HETATM   19 CL1  UNL     1      34.455   5.284  43.431  1.00  0.00    -0.087 Cl
HETATM   20  C19 UNL     1      32.897   4.859  45.661  1.00  0.00     0.052 A 
ENDBRANCH  11  13
ENDBRANCH  10  11
ENDBRANCH   7   8
ENDBRANCH   4   7
BRANCH   1  21
HETATM   21  N1  UNL     1      24.731   4.161  51.103  1.00  0.00    -0.327 N 
HETATM   22  C8  UNL     1      23.631   3.303  50.826  1.00  0.00     0.230 C 
HETATM   23  O2  UNL     1      23.411   3.182  49.588  1.00  0.00    -0.272 OA
HETATM   24  H8  UNL     1      25.199   4.493  51.996  1.00  0.00     0.169 HD
BRANCH  22  25
HETATM   25  C7  UNL     1      23.111   2.838  52.151  1.00  0.00     0.107 A 
HETATM   26  C6  UNL     1      21.712   3.321  52.238  1.00  0.00    -0.012 A 
HETATM   27  C5  UNL     1      20.583   2.664  52.441  1.00  0.00    -0.001 A 
HETATM   28  C4  UNL     1      20.738   1.226  52.606  1.00  0.00     0.032 A 
HETATM   29  C3  UNL     1      21.953   0.724  52.540  1.00  0.00     0.048 A 
HETATM   30  C22 UNL     1      23.273   1.366  52.319  1.00  0.00     0.082 A 
BRANCH  29  31
HETATM   31  O1  UNL     1      22.136  -0.661  52.696  1.00  0.00    -0.347 OA
BRANCH  31  32
HETATM   32  C2  UNL     1      21.604  -1.306  53.831  1.00  0.00     0.158 C 
HETATM   33  C1  UNL     1      22.259  -1.134  54.991  1.00  0.00     0.038 C 
ENDBRANCH  31  32
ENDBRANCH  29  31
ENDBRANCH  22  25
ENDBRANCH   1  21
TORSDOF 8
ENDMDL
