MODEL 1
REMARK VINA RESULT:      -7.4      0.000      0.000
REMARK  6 active torsions:
REMARK  status: ('A' for Active; 'I' for Inactive)
REMARK    1  A    between atoms: N1_2  and  C3_4 
REMARK    2  A    between atoms: C3_4  and  C4_5 
REMARK    3  A    between atoms: C5_6  and  C6_7 
REMARK       I    between atoms: C6_7  and  N2_9 
REMARK    4  A    between atoms: N2_9  and  C7_10 
REMARK    5  A    between atoms: N5_17  and  C12_18 
REMARK    6  A    between atoms: C12_18  and  P1_19 
ROOT
HETATM    1  C7  UNL     1      26.317   3.708  49.630  1.00  0.00     0.034 C 
HETATM    2  C8  UNL     1      25.119   3.603  49.023  1.00  0.00     0.024 C 
HETATM    3  C9  UNL     1      23.761   3.065  49.144  1.00  0.00     0.179 C 
HETATM    4  N3  UNL     1      23.519   2.356  50.392  1.00  0.00    -0.287 NA
HETATM    5  C10 UNL     1      23.506   2.939  51.524  1.00  0.00     0.163 C 
HETATM    6  N4  UNL     1      23.328   2.699  52.911  1.00  0.00    -0.280 NA
HETATM    7  C11 UNL     1      24.282   2.046  53.486  1.00  0.00     0.353 C 
HETATM    8  N5  UNL     1      25.278   1.731  52.551  1.00  0.00    -0.364 N 
HETATM    9  C18 UNL     1      26.262   2.463  51.874  1.00  0.00     0.090 C 
HETATM   10  C19 UNL     1      26.762   3.176  50.906  1.00  0.00     0.046 C 
ENDROOT
BRANCH   1  11
HETATM   11  N2  UNL     1      27.340   4.442  48.910  1.00  0.00    -0.324 N 
HETATM   12  C6  UNL     1      27.397   5.830  48.663  1.00  0.00     0.245 C 
HETATM   13  O1  UNL     1      26.514   6.632  49.066  1.00  0.00    -0.268 OA
HETATM   14  H11 UNL     1      28.104   3.805  48.555  1.00  0.00     0.169 HD
BRANCH  12  15
HETATM   15  C5  UNL     1      28.519   6.365  47.914  1.00  0.00     0.072 C 
HETATM   16  C4  UNL     1      29.722   5.869  48.128  1.00  0.00     0.008 C 
BRANCH  16  17
HETATM   17  C3  UNL     1      30.900   6.411  47.360  1.00  0.00     0.299 C 
BRANCH  17  18
HETATM   18  N1  UNL     1      32.026   6.580  48.262  1.00  0.00     0.083 N 
HETATM   19  C1  UNL     1      33.237   6.006  47.707  1.00  0.00     0.309 C 
HETATM   20  C2  UNL     1      31.775   5.956  49.545  1.00  0.00     0.309 C 
ENDBRANCH  17  18
ENDBRANCH  16  17
ENDBRANCH  12  15
ENDBRANCH   1  11
BRANCH   8  21
HETATM   21  C12 UNL     1      24.914   0.355  52.553  1.00  0.00     0.158 C 
BRANCH  21  22
HETATM   22  P1  UNL     1      25.880  -0.677  53.633  1.00  0.00    -0.091 P 
HETATM   23  C13 UNL     1      26.946  -1.514  52.747  1.00  0.00     0.005 A 
HETATM   24  C14 UNL     1      28.383  -1.439  52.966  1.00  0.00     0.001 A 
HETATM   25  C15 UNL     1      28.935  -0.691  53.895  1.00  0.00     0.000 A 
HETATM   26  C16 UNL     1      28.171   0.133  54.792  1.00  0.00     0.001 A 
HETATM   27  C17 UNL     1      26.856   0.246  54.804  1.00  0.00     0.005 A 
HETATM   28  H19 UNL     1      25.061  -1.628  54.280  1.00  0.00     0.062 HD
ENDBRANCH  21  22
ENDBRANCH   8  21
TORSDOF 6
ENDMDL
MODEL 2
REMARK VINA RESULT:      -7.2      4.737      9.120
REMARK  6 active torsions:
REMARK  status: ('A' for Active; 'I' for Inactive)
REMARK    1  A    between atoms: N1_2  and  C3_4 
REMARK    2  A    between atoms: C3_4  and  C4_5 
REMARK    3  A    between atoms: C5_6  and  C6_7 
REMARK       I    between atoms: C6_7  and  N2_9 
REMARK    4  A    between atoms: N2_9  and  C7_10 
REMARK    5  A    between atoms: N5_17  and  C12_18 
REMARK    6  A    between atoms: C12_18  and  P1_19 
ROOT
HETATM    1  C7  UNL     1      21.705   1.764  51.944  1.00  0.00     0.034 C 
HETATM    2  C8  UNL     1      21.651   3.102  52.090  1.00  0.00     0.024 C 
HETATM    3  C9  UNL     1      22.450   4.315  52.288  1.00  0.00     0.179 C 
HETATM    4  N3  UNL     1      23.884   4.072  52.352  1.00  0.00    -0.287 NA
HETATM    5  C10 UNL     1      24.558   3.660  51.353  1.00  0.00     0.163 C 
HETATM    6  N4  UNL     1      25.871   3.305  50.952  1.00  0.00    -0.280 NA
HETATM    7  C11 UNL     1      26.324   2.205  51.453  1.00  0.00     0.353 C 
HETATM    8  N5  UNL     1      25.362   1.631  52.296  1.00  0.00    -0.364 N 
HETATM    9  C18 UNL     1      24.142   0.973  52.097  1.00  0.00     0.090 C 
HETATM   10  C19 UNL     1      22.852   0.873  51.955  1.00  0.00     0.046 C 
ENDROOT
BRANCH   1  11
HETATM   11  N2  UNL     1      20.435   1.086  51.768  1.00  0.00    -0.324 N 
HETATM   12  C6  UNL     1      19.755   0.269  52.694  1.00  0.00     0.245 C 
HETATM   13  O1  UNL     1      20.200   0.024  53.846  1.00  0.00    -0.268 OA
HETATM   14  H11 UNL     1      20.023   1.267  50.812  1.00  0.00     0.169 HD
BRANCH  12  15
HETATM   15  C5  UNL     1      18.483  -0.318  52.312  1.00  0.00     0.072 C 
HETATM   16  C4  UNL     1      17.917  -1.194  53.119  1.00  0.00     0.008 C 
BRANCH  16  17
HETATM   17  C3  UNL     1      16.598  -1.815  52.739  1.00  0.00     0.299 C 
BRANCH  17  18
HETATM   18  N1  UNL     1      15.843  -0.880  51.922  1.00  0.00     0.083 N 
HETATM   19  C1  UNL     1      14.876  -0.146  52.716  1.00  0.00     0.309 C 
HETATM   20  C2  UNL     1      15.134  -1.561  50.858  1.00  0.00     0.309 C 
ENDBRANCH  17  18
ENDBRANCH  16  17
ENDBRANCH  12  15
ENDBRANCH   1  11
BRANCH   8  21
HETATM   21  C12 UNL     1      26.112   1.967  53.459  1.00  0.00     0.158 C 
BRANCH  21  22
HETATM   22  P1  UNL     1      26.838   0.585  54.312  1.00  0.00    -0.091 P 
HETATM   23  C13 UNL     1      26.607  -0.756  53.433  1.00  0.00     0.005 A 
HETATM   24  C14 UNL     1      27.706  -1.589  52.964  1.00  0.00     0.001 A 
HETATM   25  C15 UNL     1      28.968  -1.326  53.211  1.00  0.00     0.000 A 
HETATM   26  C16 UNL     1      29.396  -0.183  53.972  1.00  0.00     0.001 A 
HETATM   27  C17 UNL     1      28.604   0.726  54.509  1.00  0.00     0.005 A 
HETATM   28  H19 UNL     1      26.195   0.368  55.551  1.00  0.00     0.062 HD
ENDBRANCH  21  22
ENDBRANCH   8  21
TORSDOF 6
ENDMDL
MODEL 3
REMARK VINA RESULT:      -7.2      1.691      1.957
REMARK  6 active torsions:
REMARK  status: ('A' for Active; 'I' for Inactive)
REMARK    1  A    between atoms: N1_2  and  C3_4 
REMARK    2  A    between atoms: C3_4  and  C4_5 
REMARK    3  A    between atoms: C5_6  and  C6_7 
REMARK       I    between atoms: C6_7  and  N2_9 
REMARK    4  A    between atoms: N2_9  and  C7_10 
REMARK    5  A    between atoms: N5_17  and  C12_18 
REMARK    6  A    between atoms: C12_18  and  P1_19 
ROOT
HETATM    1  C7  UNL     1      24.741   3.940  49.891  1.00  0.00     0.034 C 
HETATM    2  C8  UNL     1      23.785   3.439  49.083  1.00  0.00     0.024 C 
HETATM    3  C9  UNL     1      22.745   2.414  48.957  1.00  0.00     0.179 C 
HETATM    4  N3  UNL     1      22.614   1.560  50.129  1.00  0.00    -0.287 NA
HETATM    5  C10 UNL     1      22.204   1.993  51.254  1.00  0.00     0.163 C 
HETATM    6  N4  UNL     1      21.928   1.584  52.584  1.00  0.00    -0.280 NA
HETATM    7  C11 UNL     1      22.963   1.297  53.301  1.00  0.00     0.353 C 
HETATM    8  N5  UNL     1      24.131   1.470  52.544  1.00  0.00    -0.364 N 
HETATM    9  C18 UNL     1      24.840   2.578  52.064  1.00  0.00     0.090 C 
HETATM   10  C19 UNL     1      25.161   3.509  51.212  1.00  0.00     0.046 C 
ENDROOT
BRANCH   1  11
HETATM   11  N2  UNL     1      25.490   5.068  49.374  1.00  0.00    -0.324 N 
HETATM   12  C6  UNL     1      26.821   5.082  48.905  1.00  0.00     0.245 C 
HETATM   13  O1  UNL     1      27.547   4.054  48.882  1.00  0.00    -0.268 OA
HETATM   14  H11 UNL     1      24.916   5.955  49.374  1.00  0.00     0.169 HD
BRANCH  12  15
HETATM   15  C5  UNL     1      27.384   6.331  48.427  1.00  0.00     0.072 C 
HETATM   16  C4  UNL     1      28.679   6.393  48.180  1.00  0.00     0.008 C 
BRANCH  16  17
HETATM   17  C3  UNL     1      29.282   7.681  47.683  1.00  0.00     0.299 C 
BRANCH  17  18
HETATM   18  N1  UNL     1      29.446   8.598  48.798  1.00  0.00     0.083 N 
HETATM   19  C1  UNL     1      28.851   9.890  48.509  1.00  0.00     0.309 C 
HETATM   20  C2  UNL     1      30.845   8.804  49.113  1.00  0.00     0.309 C 
ENDBRANCH  17  18
ENDBRANCH  16  17
ENDBRANCH  12  15
ENDBRANCH   1  11
BRANCH   8  21
HETATM   21  C12 UNL     1      24.338   0.064  52.455  1.00  0.00     0.158 C 
BRANCH  21  22
HETATM   22  P1  UNL     1      25.477  -0.607  53.645  1.00  0.00    -0.091 P 
HETATM   23  C13 UNL     1      26.602  -1.475  52.866  1.00  0.00     0.005 A 
HETATM   24  C14 UNL     1      28.026  -1.187  52.965  1.00  0.00     0.001 A 
HETATM   25  C15 UNL     1      28.517  -0.207  53.688  1.00  0.00     0.000 A 
HETATM   26  C16 UNL     1      27.695   0.686  54.459  1.00  0.00     0.001 A 
HETATM   27  C17 UNL     1      26.378   0.643  54.541  1.00  0.00     0.005 A 
HETATM   28  H19 UNL     1      24.819  -1.497  54.521  1.00  0.00     0.062 HD
ENDBRANCH  21  22
ENDBRANCH   8  21
TORSDOF 6
ENDMDL
MODEL 4
REMARK VINA RESULT:      -7.1      1.704      2.114
REMARK  6 active torsions:
REMARK  status: ('A' for Active; 'I' for Inactive)
REMARK    1  A    between atoms: N1_2  and  C3_4 
REMARK    2  A    between atoms: C3_4  and  C4_5 
REMARK    3  A    between atoms: C5_6  and  C6_7 
REMARK       I    between atoms: C6_7  and  N2_9 
REMARK    4  A    between atoms: N2_9  and  C7_10 
REMARK    5  A    between atoms: N5_17  and  C12_18 
REMARK    6  A    between atoms: C12_18  and  P1_19 
ROOT
HETATM    1  C7  UNL     1      24.197   3.410  50.329  1.00  0.00     0.034 C 
HETATM    2  C8  UNL     1      23.333   2.844  49.463  1.00  0.00     0.024 C 
HETATM    3  C9  UNL     1      22.341   1.779  49.291  1.00  0.00     0.179 C 
HETATM    4  N3  UNL     1      22.132   0.970  50.483  1.00  0.00    -0.287 NA
HETATM    5  C10 UNL     1      21.609   1.434  51.547  1.00  0.00     0.163 C 
HETATM    6  N4  UNL     1      21.228   1.070  52.864  1.00  0.00    -0.280 NA
HETATM    7  C11 UNL     1      22.203   0.849  53.681  1.00  0.00     0.353 C 
HETATM    8  N5  UNL     1      23.428   1.031  53.024  1.00  0.00    -0.364 N 
HETATM    9  C18 UNL     1      24.143   2.142  52.560  1.00  0.00     0.090 C 
HETATM   10  C19 UNL     1      24.510   3.048  51.700  1.00  0.00     0.046 C 
ENDROOT
BRANCH   1  11
HETATM   11  N2  UNL     1      24.954   4.542  49.831  1.00  0.00    -0.324 N 
HETATM   12  C6  UNL     1      26.283   4.553  49.359  1.00  0.00     0.245 C 
HETATM   13  O1  UNL     1      27.001   3.520  49.313  1.00  0.00    -0.268 OA
HETATM   14  H11 UNL     1      24.387   5.433  49.850  1.00  0.00     0.169 HD
BRANCH  12  15
HETATM   15  C5  UNL     1      26.856   5.806  48.902  1.00  0.00     0.072 C 
HETATM   16  C4  UNL     1      28.013   5.785  48.269  1.00  0.00     0.008 C 
BRANCH  16  17
HETATM   17  C3  UNL     1      28.623   7.076  47.787  1.00  0.00     0.299 C 
BRANCH  17  18
HETATM   18  N1  UNL     1      30.071   6.950  47.778  1.00  0.00     0.083 N 
HETATM   19  C1  UNL     1      30.482   5.574  47.989  1.00  0.00     0.309 C 
HETATM   20  C2  UNL     1      30.679   7.768  48.807  1.00  0.00     0.309 C 
ENDBRANCH  17  18
ENDBRANCH  16  17
ENDBRANCH  12  15
ENDBRANCH   1  11
BRANCH   8  21
HETATM   21  C12 UNL     1      23.686  -0.369  53.015  1.00  0.00     0.158 C 
BRANCH  21  22
HETATM   22  P1  UNL     1      25.347  -0.832  53.452  1.00  0.00    -0.091 P 
HETATM   23  C13 UNL     1      26.345  -0.413  52.246  1.00  0.00     0.005 A 
HETATM   24  C14 UNL     1      27.476   0.483  52.436  1.00  0.00     0.001 A 
HETATM   25  C15 UNL     1      27.783   1.026  53.591  1.00  0.00     0.000 A 
HETATM   26  C16 UNL     1      27.028   0.789  54.793  1.00  0.00     0.001 A 
HETATM   27  C17 UNL     1      25.961   0.020  54.893  1.00  0.00     0.005 A 
HETATM   28  H19 UNL     1      25.455  -2.232  53.594  1.00  0.00     0.062 HD
ENDBRANCH  21  22
ENDBRANCH   8  21
TORSDOF 6
ENDMDL
MODEL 5
REMARK VINA RESULT:      -6.9      5.481      8.074
REMARK  6 active torsions:
REMARK  status: ('A' for Active; 'I' for Inactive)
REMARK    1  A    between atoms: N1_2  and  C3_4 
REMARK    2  A    between atoms: C3_4  and  C4_5 
REMARK    3  A    between atoms: C5_6  and  C6_7 
REMARK       I    between atoms: C6_7  and  N2_9 
REMARK    4  A    between atoms: N2_9  and  C7_10 
REMARK    5  A    between atoms: N5_17  and  C12_18 
REMARK    6  A    between atoms: C12_18  and  P1_19 
ROOT
HETATM    1  C7  UNL     1      22.436   0.956  52.048  1.00  0.00     0.034 C 
HETATM    2  C8  UNL     1      22.478   1.038  50.703  1.00  0.00     0.024 C 
HETATM    3  C9  UNL     1      21.667   1.062  49.483  1.00  0.00     0.179 C 
HETATM    4  N3  UNL     1      20.234   0.984  49.726  1.00  0.00    -0.287 NA
HETATM    5  C10 UNL     1      19.583   1.912  50.307  1.00  0.00     0.163 C 
HETATM    6  N4  UNL     1      18.280   2.271  50.738  1.00  0.00    -0.280 NA
HETATM    7  C11 UNL     1      17.824   1.600  51.743  1.00  0.00     0.353 C 
HETATM    8  N5  UNL     1      18.774   0.654  52.156  1.00  0.00    -0.364 N 
HETATM    9  C18 UNL     1      20.002   0.717  52.826  1.00  0.00     0.090 C 
HETATM   10  C19 UNL     1      21.296   0.816  52.935  1.00  0.00     0.046 C 
ENDROOT
BRANCH   1  11
HETATM   11  N2  UNL     1      23.714   0.993  52.732  1.00  0.00    -0.324 N 
HETATM   12  C6  UNL     1      24.432   2.127  53.165  1.00  0.00     0.245 C 
HETATM   13  O1  UNL     1      24.017   3.304  52.996  1.00  0.00    -0.268 OA
HETATM   14  H11 UNL     1      24.099   0.023  52.897  1.00  0.00     0.169 HD
BRANCH  12  15
HETATM   15  C5  UNL     1      25.704   1.939  53.837  1.00  0.00     0.072 C 
HETATM   16  C4  UNL     1      26.172   0.714  53.987  1.00  0.00     0.008 C 
BRANCH  16  17
HETATM   17  C3  UNL     1      27.491   0.499  54.682  1.00  0.00     0.299 C 
BRANCH  17  18
HETATM   18  N1  UNL     1      28.575   0.788  53.758  1.00  0.00     0.083 N 
HETATM   19  C1  UNL     1      29.536  -0.298  53.717  1.00  0.00     0.309 C 
HETATM   20  C2  UNL     1      29.276   2.000  54.129  1.00  0.00     0.309 C 
ENDBRANCH  17  18
ENDBRANCH  16  17
ENDBRANCH  12  15
ENDBRANCH   1  11
BRANCH   8  21
HETATM   21  C12 UNL     1      17.999  -0.421  51.636  1.00  0.00     0.158 C 
BRANCH  21  22
HETATM   22  P1  UNL     1      16.907  -1.197  52.808  1.00  0.00    -0.091 P 
HETATM   23  C13 UNL     1      15.636  -1.813  52.014  1.00  0.00     0.005 A 
HETATM   24  C14 UNL     1      15.282  -3.224  52.071  1.00  0.00     0.001 A 
HETATM   25  C15 UNL     1      15.957  -4.112  52.765  1.00  0.00     0.000 A 
HETATM   26  C16 UNL     1      17.121  -3.779  53.542  1.00  0.00     0.001 A 
HETATM   27  C17 UNL     1      17.650  -2.575  53.659  1.00  0.00     0.005 A 
HETATM   28  H19 UNL     1      16.391  -0.246  53.715  1.00  0.00     0.062 HD
ENDBRANCH  21  22
ENDBRANCH   8  21
TORSDOF 6
ENDMDL
MODEL 6
REMARK VINA RESULT:      -6.7      3.420      9.131
REMARK  6 active torsions:
REMARK  status: ('A' for Active; 'I' for Inactive)
REMARK    1  A    between atoms: N1_2  and  C3_4 
REMARK    2  A    between atoms: C3_4  and  C4_5 
REMARK    3  A    between atoms: C5_6  and  C6_7 
REMARK       I    between atoms: C6_7  and  N2_9 
REMARK    4  A    between atoms: N2_9  and  C7_10 
REMARK    5  A    between atoms: N5_17  and  C12_18 
REMARK    6  A    between atoms: C12_18  and  P1_19 
ROOT
HETATM    1  C7  UNL     1      28.898   7.602  48.458  1.00  0.00     0.034 C 
HETATM    2  C8  UNL     1      29.182   8.674  49.224  1.00  0.00     0.024 C 
HETATM    3  C9  UNL     1      30.148   9.751  49.461  1.00  0.00     0.179 C 
HETATM    4  N3  UNL     1      31.275   9.743  48.541  1.00  0.00    -0.287 NA
HETATM    5  C10 UNL     1      31.150   9.982  47.296  1.00  0.00     0.163 C 
HETATM    6  N4  UNL     1      31.890  10.084  46.090  1.00  0.00    -0.280 NA
HETATM    7  C11 UNL     1      32.343   8.969  45.623  1.00  0.00     0.353 C 
HETATM    8  N5  UNL     1      31.973   7.911  46.466  1.00  0.00    -0.364 N 
HETATM    9  C18 UNL     1      30.773   7.243  46.742  1.00  0.00     0.090 C 
HETATM   10  C19 UNL     1      29.651   7.017  47.364  1.00  0.00     0.046 C 
ENDROOT
BRANCH   1  11
HETATM   11  N2  UNL     1      27.668   6.899  48.769  1.00  0.00    -0.324 N 
HETATM   12  C6  UNL     1      27.446   5.506  48.774  1.00  0.00     0.245 C 
HETATM   13  O1  UNL     1      28.344   4.670  48.494  1.00  0.00    -0.268 OA
HETATM   14  H11 UNL     1      26.886   7.566  49.013  1.00  0.00     0.169 HD
BRANCH  12  15
HETATM   15  C5  UNL     1      26.127   5.007  49.118  1.00  0.00     0.072 C 
HETATM   16  C4  UNL     1      26.005   3.760  49.530  1.00  0.00     0.008 C 
BRANCH  16  17
HETATM   17  C3  UNL     1      24.644   3.223  49.891  1.00  0.00     0.299 C 
BRANCH  17  18
HETATM   18  N1  UNL     1      24.718   2.547  51.175  1.00  0.00     0.083 N 
HETATM   19  C1  UNL     1      24.226   3.393  52.246  1.00  0.00     0.309 C 
HETATM   20  C2  UNL     1      26.078   2.159  51.491  1.00  0.00     0.309 C 
ENDBRANCH  17  18
ENDBRANCH  16  17
ENDBRANCH  12  15
ENDBRANCH   1  11
BRANCH   8  21
HETATM   21  C12 UNL     1      33.306   7.759  46.941  1.00  0.00     0.158 C 
BRANCH  21  22
HETATM   22  P1  UNL     1      33.944   6.099  46.873  1.00  0.00    -0.091 P 
HETATM   23  C13 UNL     1      33.255   5.222  48.048  1.00  0.00     0.005 A 
HETATM   24  C14 UNL     1      32.496   4.008  47.781  1.00  0.00     0.001 A 
HETATM   25  C15 UNL     1      32.306   3.524  46.575  1.00  0.00     0.000 A 
HETATM   26  C16 UNL     1      32.830   4.147  45.390  1.00  0.00     0.001 A 
HETATM   27  C17 UNL     1      33.550   5.253  45.355  1.00  0.00     0.005 A 
HETATM   28  H19 UNL     1      35.333   6.087  47.126  1.00  0.00     0.062 HD
ENDBRANCH  21  22
ENDBRANCH   8  21
TORSDOF 6
ENDMDL
MODEL 7
REMARK VINA RESULT:      -6.7      3.313      8.016
REMARK  6 active torsions:
REMARK  status: ('A' for Active; 'I' for Inactive)
REMARK    1  A    between atoms: N1_2  and  C3_4 
REMARK    2  A    between atoms: C3_4  and  C4_5 
REMARK    3  A    between atoms: C5_6  and  C6_7 
REMARK       I    between atoms: C6_7  and  N2_9 
REMARK    4  A    between atoms: N2_9  and  C7_10 
REMARK    5  A    between atoms: N5_17  and  C12_18 
REMARK    6  A    between atoms: C12_18  and  P1_19 
ROOT
HETATM    1  C7  UNL     1      24.801   5.037  50.738  1.00  0.00     0.034 C 
HETATM    2  C8  UNL     1      24.075   6.097  51.143  1.00  0.00     0.024 C 
HETATM    3  C9  UNL     1      23.857   7.536  50.962  1.00  0.00     0.179 C 
HETATM    4  N3  UNL     1      24.717   8.139  49.954  1.00  0.00    -0.287 NA
HETATM    5  C10 UNL     1      24.627   7.859  48.715  1.00  0.00     0.163 C 
HETATM    6  N4  UNL     1      25.193   8.159  47.450  1.00  0.00    -0.280 NA
HETATM    7  C11 UNL     1      26.388   7.709  47.257  1.00  0.00     0.353 C 
HETATM    8  N5  UNL     1      26.827   7.016  48.395  1.00  0.00    -0.364 N 
HETATM    9  C18 UNL     1      26.516   5.783  48.980  1.00  0.00     0.090 C 
HETATM   10  C19 UNL     1      25.877   4.965  49.766  1.00  0.00     0.046 C 
ENDROOT
BRANCH   1  11
HETATM   11  N2  UNL     1      24.492   3.769  51.371  1.00  0.00    -0.324 N 
HETATM   12  C6  UNL     1      23.730   2.704  50.848  1.00  0.00     0.245 C 
HETATM   13  O1  UNL     1      23.202   2.739  49.705  1.00  0.00    -0.268 OA
HETATM   14  H11 UNL     1      24.919   3.697  52.335  1.00  0.00     0.169 HD
BRANCH  12  15
HETATM   15  C5  UNL     1      23.541   1.513  51.654  1.00  0.00     0.072 C 
HETATM   16  C4  UNL     1      24.533   1.095  52.417  1.00  0.00     0.008 C 
BRANCH  16  17
HETATM   17  C3  UNL     1      24.356  -0.140  53.261  1.00  0.00     0.299 C 
BRANCH  17  18
HETATM   18  N1  UNL     1      25.646  -0.553  53.786  1.00  0.00     0.083 N 
HETATM   19  C1  UNL     1      26.360   0.565  54.373  1.00  0.00     0.309 C 
HETATM   20  C2  UNL     1      26.479  -1.129  52.749  1.00  0.00     0.309 C 
ENDBRANCH  17  18
ENDBRANCH  16  17
ENDBRANCH  12  15
ENDBRANCH   1  11
BRANCH   8  21
HETATM   21  C12 UNL     1      27.738   8.056  48.734  1.00  0.00     0.158 C 
BRANCH  21  22
HETATM   22  P1  UNL     1      29.363   7.895  48.028  1.00  0.00    -0.091 P 
HETATM   23  C13 UNL     1      30.416   8.725  48.936  1.00  0.00     0.005 A 
HETATM   24  C14 UNL     1      31.578   8.106  49.558  1.00  0.00     0.001 A 
HETATM   25  C15 UNL     1      31.869   6.831  49.438  1.00  0.00     0.000 A 
HETATM   26  C16 UNL     1      31.066   5.913  48.676  1.00  0.00     0.001 A 
HETATM   27  C17 UNL     1      29.963   6.217  48.017  1.00  0.00     0.005 A 
HETATM   28  H19 UNL     1      29.406   8.468  46.738  1.00  0.00     0.062 HD
ENDBRANCH  21  22
ENDBRANCH   8  21
TORSDOF 6
ENDMDL
MODEL 8
REMARK VINA RESULT:      -6.7      4.257      7.555
REMARK  6 active torsions:
REMARK  status: ('A' for Active; 'I' for Inactive)
REMARK    1  A    between atoms: N1_2  and  C3_4 
REMARK    2  A    between atoms: C3_4  and  C4_5 
REMARK    3  A    between atoms: C5_6  and  C6_7 
REMARK       I    between atoms: C6_7  and  N2_9 
REMARK    4  A    between atoms: N2_9  and  C7_10 
REMARK    5  A    between atoms: N5_17  and  C12_18 
REMARK    6  A    between atoms: C12_18  and  P1_19 
ROOT
HETATM    1  C7  UNL     1      22.746   2.423  51.268  1.00  0.00     0.034 C 
HETATM    2  C8  UNL     1      21.666   2.394  52.073  1.00  0.00     0.024 C 
HETATM    3  C9  UNL     1      20.393   3.049  52.387  1.00  0.00     0.179 C 
HETATM    4  N3  UNL     1      20.088   4.185  51.530  1.00  0.00    -0.287 NA
HETATM    5  C10 UNL     1      19.843   4.063  50.286  1.00  0.00     0.163 C 
HETATM    6  N4  UNL     1      19.517   4.810  49.126  1.00  0.00    -0.280 NA
HETATM    7  C11 UNL     1      20.467   5.549  48.659  1.00  0.00     0.353 C 
HETATM    8  N5  UNL     1      21.613   5.414  49.455  1.00  0.00    -0.364 N 
HETATM    9  C18 UNL     1      22.567   4.407  49.649  1.00  0.00     0.090 C 
HETATM   10  C19 UNL     1      23.087   3.349  50.203  1.00  0.00     0.046 C 
ENDROOT
BRANCH   1  11
HETATM   11  N2  UNL     1      23.743   1.395  51.494  1.00  0.00    -0.324 N 
HETATM   12  C6  UNL     1      24.819   1.418  52.406  1.00  0.00     0.245 C 
HETATM   13  O1  UNL     1      25.045   2.392  53.171  1.00  0.00    -0.268 OA
HETATM   14  H11 UNL     1      23.589   0.555  50.872  1.00  0.00     0.169 HD
BRANCH  12  15
HETATM   15  C5  UNL     1      25.708   0.272  52.474  1.00  0.00     0.072 C 
HETATM   16  C4  UNL     1      26.797   0.353  53.213  1.00  0.00     0.008 C 
BRANCH  16  17
HETATM   17  C3  UNL     1      27.732  -0.825  53.296  1.00  0.00     0.299 C 
BRANCH  17  18
HETATM   18  N1  UNL     1      28.830  -0.507  54.193  1.00  0.00     0.083 N 
HETATM   19  C1  UNL     1      28.914   0.921  54.437  1.00  0.00     0.309 C 
HETATM   20  C2  UNL     1      30.100  -0.950  53.653  1.00  0.00     0.309 C 
ENDBRANCH  17  18
ENDBRANCH  16  17
ENDBRANCH  12  15
ENDBRANCH   1  11
BRANCH   8  21
HETATM   21  C12 UNL     1      21.448   6.720  49.999  1.00  0.00     0.158 C 
BRANCH  21  22
HETATM   22  P1  UNL     1      22.812   7.828  49.725  1.00  0.00    -0.091 P 
HETATM   23  C13 UNL     1      23.950   7.548  50.843  1.00  0.00     0.005 A 
HETATM   24  C14 UNL     1      25.316   7.178  50.499  1.00  0.00     0.001 A 
HETATM   25  C15 UNL     1      25.739   7.041  49.263  1.00  0.00     0.000 A 
HETATM   26  C16 UNL     1      24.892   7.242  48.119  1.00  0.00     0.001 A 
HETATM   27  C17 UNL     1      23.617   7.581  48.154  1.00  0.00     0.005 A 
HETATM   28  H19 UNL     1      22.407   9.170  49.892  1.00  0.00     0.062 HD
ENDBRANCH  21  22
ENDBRANCH   8  21
TORSDOF 6
ENDMDL
MODEL 9
REMARK VINA RESULT:      -6.7      4.212      8.514
REMARK  6 active torsions:
REMARK  status: ('A' for Active; 'I' for Inactive)
REMARK    1  A    between atoms: N1_2  and  C3_4 
REMARK    2  A    between atoms: C3_4  and  C4_5 
REMARK    3  A    between atoms: C5_6  and  C6_7 
REMARK       I    between atoms: C6_7  and  N2_9 
REMARK    4  A    between atoms: N2_9  and  C7_10 
REMARK    5  A    between atoms: N5_17  and  C12_18 
REMARK    6  A    between atoms: C12_18  and  P1_19 
ROOT
HETATM    1  C7  UNL     1      25.548   5.794  50.124  1.00  0.00     0.034 C 
HETATM    2  C8  UNL     1      24.618   6.603  50.668  1.00  0.00     0.024 C 
HETATM    3  C9  UNL     1      23.945   7.899  50.545  1.00  0.00     0.179 C 
HETATM    4  N3  UNL     1      24.385   8.686  49.403  1.00  0.00    -0.287 NA
HETATM    5  C10 UNL     1      24.164   8.335  48.199  1.00  0.00     0.163 C 
HETATM    6  N4  UNL     1      24.375   8.734  46.854  1.00  0.00    -0.280 NA
HETATM    7  C11 UNL     1      25.595   8.656  46.439  1.00  0.00     0.353 C 
HETATM    8  N5  UNL     1      26.421   8.181  47.468  1.00  0.00    -0.364 N 
HETATM    9  C18 UNL     1      26.611   6.940  48.087  1.00  0.00     0.090 C 
HETATM   10  C19 UNL     1      26.403   6.004  48.969  1.00  0.00     0.046 C 
ENDROOT
BRANCH   1  11
HETATM   11  N2  UNL     1      25.759   4.522  50.788  1.00  0.00    -0.324 N 
HETATM   12  C6  UNL     1      25.181   3.275  50.473  1.00  0.00     0.245 C 
HETATM   13  O1  UNL     1      24.371   3.118  49.523  1.00  0.00    -0.268 OA
HETATM   14  H11 UNL     1      26.437   4.608  51.595  1.00  0.00     0.169 HD
BRANCH  12  15
HETATM   15  C5  UNL     1      25.531   2.116  51.274  1.00  0.00     0.072 C 
HETATM   16  C4  UNL     1      26.747   2.033  51.778  1.00  0.00     0.008 C 
BRANCH  16  17
HETATM   17  C3  UNL     1      27.130   0.837  52.611  1.00  0.00     0.299 C 
BRANCH  17  18
HETATM   18  N1  UNL     1      27.741   1.289  53.850  1.00  0.00     0.083 N 
HETATM   19  C1  UNL     1      28.637   2.406  53.618  1.00  0.00     0.309 C 
HETATM   20  C2  UNL     1      28.494   0.227  54.486  1.00  0.00     0.309 C 
ENDBRANCH  17  18
ENDBRANCH  16  17
ENDBRANCH  12  15
ENDBRANCH   1  11
BRANCH   8  21
HETATM   21  C12 UNL     1      27.017   9.462  47.645  1.00  0.00     0.158 C 
BRANCH  21  22
HETATM   22  P1  UNL     1      28.787   9.500  47.466  1.00  0.00    -0.091 P 
HETATM   23  C13 UNL     1      29.250  11.017  47.140  1.00  0.00     0.005 A 
HETATM   24  C14 UNL     1      30.193  11.748  47.974  1.00  0.00     0.001 A 
HETATM   25  C15 UNL     1      30.745  11.245  49.055  1.00  0.00     0.000 A 
HETATM   26  C16 UNL     1      30.471   9.914  49.526  1.00  0.00     0.001 A 
HETATM   27  C17 UNL     1      29.656   9.047  48.955  1.00  0.00     0.005 A 
HETATM   28  H19 UNL     1      29.195   8.711  46.369  1.00  0.00     0.062 HD
ENDBRANCH  21  22
ENDBRANCH   8  21
TORSDOF 6
ENDMDL
