MODEL 1
REMARK VINA RESULT:      -7.5      0.000      0.000
REMARK  4 active torsions:
REMARK  status: ('A' for Active; 'I' for Inactive)
REMARK    1  A    between atoms: C2_2  and  C3_3 
REMARK    2  A    between atoms: C4_5  and  C5_6 
REMARK    3  A    between atoms: C6_7  and  C7_8 
REMARK    4  A    between atoms: C9_11  and  N1_12 
ROOT
HETATM    1  C7  UNL     1      24.426   3.040  50.321  1.00  0.00     0.052 A 
HETATM    2  C8  UNL     1      23.016   2.589  50.482  1.00  0.00     0.081 A 
HETATM    3  S1  UNL     1      23.339   1.371  51.833  1.00  0.00    -0.060 SA
HETATM    4  C9  UNL     1      25.093   1.638  51.945  1.00  0.00     0.190 A 
HETATM    5  N3  UNL     1      25.322   2.455  51.137  1.00  0.00    -0.226 NA
ENDROOT
BRANCH   4   6
HETATM    6  N1  UNL     1      25.767   0.753  53.009  1.00  0.00    -0.234 N 
HETATM    7  N2  UNL     1      25.318  -0.733  53.349  1.00  0.00    -0.181 NA
HETATM    8  C10 UNL     1      26.370  -1.388  52.708  1.00  0.00     0.150 C 
HETATM    9  C11 UNL     1      26.944  -0.543  53.877  1.00  0.00    -0.018 C 
HETATM   10  C12 UNL     1      26.666   0.293  54.943  1.00  0.00     0.018 C 
HETATM   11  C16 UNL     1      28.160  -0.021  52.975  1.00  0.00     0.017 C 
HETATM   12  C13 UNL     1      26.814   1.287  53.862  1.00  0.00     0.165 C 
HETATM   13  C14 UNL     1      28.306   1.115  53.718  1.00  0.00    -0.055 C 
HETATM   14  C15 UNL     1      29.256   2.121  54.299  1.00  0.00     0.046 C 
ENDBRANCH   4   6
BRANCH   1  15
HETATM   15  C6  UNL     1      25.539   3.868  49.710  1.00  0.00     0.074 C 
HETATM   16  C5  UNL     1      26.731   4.182  49.281  1.00  0.00    -0.013 C 
BRANCH  16  17
HETATM   17  C4  UNL     1      26.411   5.571  48.816  1.00  0.00     0.020 C 
HETATM   18  C3  UNL     1      27.548   6.101  48.314  1.00  0.00     0.033 C 
HETATM   19 CL1  UNL     1      27.578   7.736  47.639  1.00  0.00    -0.084 Cl
BRANCH  18  20
HETATM   20  C2  UNL     1      28.792   5.368  48.284  1.00  0.00     0.013 C 
HETATM   21  C1  UNL     1      29.906   5.987  48.006  1.00  0.00     0.013 C 
ENDBRANCH  18  20
ENDBRANCH  16  17
ENDBRANCH   1  15
TORSDOF 4
ENDMDL
MODEL 2
REMARK VINA RESULT:      -7.4      1.957      3.072
REMARK  4 active torsions:
REMARK  status: ('A' for Active; 'I' for Inactive)
REMARK    1  A    between atoms: C2_2  and  C3_3 
REMARK    2  A    between atoms: C4_5  and  C5_6 
REMARK    3  A    between atoms: C6_7  and  C7_8 
REMARK    4  A    between atoms: C9_11  and  N1_12 
ROOT
HETATM    1  C7  UNL     1      26.059   4.458  49.286  1.00  0.00     0.052 A 
HETATM    2  C8  UNL     1      24.591   4.236  49.399  1.00  0.00     0.081 A 
HETATM    3  S1  UNL     1      24.679   2.905  50.677  1.00  0.00    -0.060 SA
HETATM    4  C9  UNL     1      26.450   2.874  50.829  1.00  0.00     0.190 A 
HETATM    5  N3  UNL     1      26.829   3.687  50.077  1.00  0.00    -0.226 NA
ENDROOT
BRANCH   4   6
HETATM    6  N1  UNL     1      26.946   1.829  51.846  1.00  0.00    -0.234 N 
HETATM    7  N2  UNL     1      28.385   1.851  52.519  1.00  0.00    -0.181 NA
HETATM    8  C10 UNL     1      27.985   2.303  53.777  1.00  0.00     0.150 C 
HETATM    9  C11 UNL     1      27.351   0.910  53.521  1.00  0.00    -0.018 C 
HETATM   10  C12 UNL     1      27.244  -0.171  52.666  1.00  0.00     0.018 C 
HETATM   11  C16 UNL     1      25.938   1.384  54.106  1.00  0.00     0.017 C 
HETATM   12  C13 UNL     1      26.136   0.667  52.169  1.00  0.00     0.165 C 
HETATM   13  C14 UNL     1      25.253   0.458  53.373  1.00  0.00    -0.055 C 
HETATM   14  C15 UNL     1      24.093  -0.494  53.322  1.00  0.00     0.046 C 
ENDBRANCH   4   6
BRANCH   1  15
HETATM   15  C6  UNL     1      27.306   5.127  48.743  1.00  0.00     0.074 C 
HETATM   16  C5  UNL     1      28.073   6.061  48.249  1.00  0.00    -0.013 C 
BRANCH  16  17
HETATM   17  C4  UNL     1      29.331   5.251  48.156  1.00  0.00     0.020 C 
HETATM   18  C3  UNL     1      30.367   6.082  48.407  1.00  0.00     0.033 C 
HETATM   19 CL1  UNL     1      32.035   5.495  48.410  1.00  0.00    -0.084 Cl
BRANCH  18  20
HETATM   20  C2  UNL     1      30.176   7.484  48.698  1.00  0.00     0.013 C 
HETATM   21  C1  UNL     1      31.210   8.272  48.813  1.00  0.00     0.013 C 
ENDBRANCH  18  20
ENDBRANCH  16  17
ENDBRANCH   1  15
TORSDOF 4
ENDMDL
MODEL 3
REMARK VINA RESULT:      -7.3      5.351      8.348
REMARK  4 active torsions:
REMARK  status: ('A' for Active; 'I' for Inactive)
REMARK    1  A    between atoms: C2_2  and  C3_3 
REMARK    2  A    between atoms: C4_5  and  C5_6 
REMARK    3  A    between atoms: C6_7  and  C7_8 
REMARK    4  A    between atoms: C9_11  and  N1_12 
ROOT
HETATM    1  C7  UNL     1      29.986   6.852  47.908  1.00  0.00     0.052 A 
HETATM    2  C8  UNL     1      30.679   8.158  47.735  1.00  0.00     0.081 A 
HETATM    3  S1  UNL     1      32.312   7.461  47.223  1.00  0.00    -0.060 SA
HETATM    4  C9  UNL     1      31.849   5.747  47.314  1.00  0.00     0.190 A 
HETATM    5  N3  UNL     1      30.728   5.758  47.653  1.00  0.00    -0.226 NA
ENDROOT
BRANCH   4   6
HETATM    6  N1  UNL     1      33.004   4.795  46.952  1.00  0.00    -0.234 N 
HETATM    7  N2  UNL     1      34.543   5.175  47.061  1.00  0.00    -0.181 NA
HETATM    8  C10 UNL     1      34.825   4.441  48.214  1.00  0.00     0.150 C 
HETATM    9  C11 UNL     1      34.423   3.459  47.080  1.00  0.00    -0.018 C 
HETATM   10  C12 UNL     1      34.065   3.312  45.753  1.00  0.00     0.018 C 
HETATM   11  C16 UNL     1      33.506   2.601  48.073  1.00  0.00     0.017 C 
HETATM   12  C13 UNL     1      32.734   3.494  46.366  1.00  0.00     0.165 C 
HETATM   13  C14 UNL     1      32.715   2.152  47.056  1.00  0.00    -0.055 C 
HETATM   14  C15 UNL     1      31.917   1.011  46.497  1.00  0.00     0.046 C 
ENDBRANCH   4   6
BRANCH   1  15
HETATM   15  C6  UNL     1      28.803   5.960  48.231  1.00  0.00     0.074 C 
HETATM   16  C5  UNL     1      28.120   4.866  48.432  1.00  0.00    -0.013 C 
BRANCH  16  17
HETATM   17  C4  UNL     1      26.806   5.515  48.751  1.00  0.00     0.020 C 
HETATM   18  C3  UNL     1      26.076   4.624  49.458  1.00  0.00     0.033 C 
HETATM   19 CL1  UNL     1      24.455   5.023  50.044  1.00  0.00    -0.084 Cl
BRANCH  18  20
HETATM   20  C2  UNL     1      26.575   3.308  49.788  1.00  0.00     0.013 C 
HETATM   21  C1  UNL     1      26.236   2.748  50.916  1.00  0.00     0.013 C 
ENDBRANCH  18  20
ENDBRANCH  16  17
ENDBRANCH   1  15
TORSDOF 4
ENDMDL
MODEL 4
REMARK VINA RESULT:      -7.2      4.135      6.841
REMARK  4 active torsions:
REMARK  status: ('A' for Active; 'I' for Inactive)
REMARK    1  A    between atoms: C2_2  and  C3_3 
REMARK    2  A    between atoms: C4_5  and  C5_6 
REMARK    3  A    between atoms: C6_7  and  C7_8 
REMARK    4  A    between atoms: C9_11  and  N1_12 
ROOT
HETATM    1  C7  UNL     1      23.596  -0.581  54.060  1.00  0.00     0.052 A 
HETATM    2  C8  UNL     1      22.587  -1.246  54.931  1.00  0.00     0.081 A 
HETATM    3  S1  UNL     1      21.105  -0.421  54.199  1.00  0.00    -0.060 SA
HETATM    4  C9  UNL     1      21.977   0.555  52.996  1.00  0.00     0.190 A 
HETATM    5  N3  UNL     1      23.106   0.285  53.154  1.00  0.00    -0.226 NA
ENDROOT
BRANCH   4   6
HETATM    6  N1  UNL     1      21.042   1.437  52.148  1.00  0.00    -0.234 N 
HETATM    7  N2  UNL     1      20.079   2.551  52.747  1.00  0.00    -0.181 NA
HETATM    8  C10 UNL     1      20.829   3.661  52.358  1.00  0.00     0.150 C 
HETATM    9  C11 UNL     1      20.338   2.917  51.087  1.00  0.00    -0.018 C 
HETATM   10  C12 UNL     1      19.592   1.871  50.576  1.00  0.00     0.018 C 
HETATM   11  C16 UNL     1      21.766   3.070  50.378  1.00  0.00     0.017 C 
HETATM   12  C13 UNL     1      20.905   1.212  50.720  1.00  0.00     0.165 C 
HETATM   13  C14 UNL     1      21.565   1.970  49.595  1.00  0.00    -0.055 C 
HETATM   14  C15 UNL     1      21.779   1.327  48.256  1.00  0.00     0.046 C 
ENDBRANCH   4   6
BRANCH   1  15
HETATM   15  C6  UNL     1      24.997  -0.299  53.555  1.00  0.00     0.074 C 
HETATM   16  C5  UNL     1      26.182  -0.525  53.054  1.00  0.00    -0.013 C 
BRANCH  16  17
HETATM   17  C4  UNL     1      26.677   0.891  53.082  1.00  0.00     0.020 C 
HETATM   18  C3  UNL     1      27.954   0.864  53.522  1.00  0.00     0.033 C 
HETATM   19 CL1  UNL     1      28.903   2.349  53.677  1.00  0.00    -0.084 Cl
BRANCH  18  20
HETATM   20  C2  UNL     1      28.621  -0.368  53.876  1.00  0.00     0.013 C 
HETATM   21  C1  UNL     1      29.885  -0.527  53.595  1.00  0.00     0.013 C 
ENDBRANCH  18  20
ENDBRANCH  16  17
ENDBRANCH   1  15
TORSDOF 4
ENDMDL
MODEL 5
REMARK VINA RESULT:      -7.2      2.814      6.338
REMARK  4 active torsions:
REMARK  status: ('A' for Active; 'I' for Inactive)
REMARK    1  A    between atoms: C2_2  and  C3_3 
REMARK    2  A    between atoms: C4_5  and  C5_6 
REMARK    3  A    between atoms: C6_7  and  C7_8 
REMARK    4  A    between atoms: C9_11  and  N1_12 
ROOT
HETATM    1  C7  UNL     1      23.529  -0.116  53.178  1.00  0.00     0.052 A 
HETATM    2  C8  UNL     1      22.105  -0.552  53.160  1.00  0.00     0.081 A 
HETATM    3  S1  UNL     1      21.520   0.697  51.931  1.00  0.00    -0.060 SA
HETATM    4  C9  UNL     1      23.088   1.496  51.677  1.00  0.00     0.190 A 
HETATM    5  N3  UNL     1      23.832   0.920  52.374  1.00  0.00    -0.226 NA
ENDROOT
BRANCH   4   6
HETATM    6  N1  UNL     1      23.010   2.662  50.674  1.00  0.00    -0.234 N 
HETATM    7  N2  UNL     1      21.698   3.514  50.395  1.00  0.00    -0.181 NA
HETATM    8  C10 UNL     1      22.080   4.661  51.093  1.00  0.00     0.150 C 
HETATM    9  C11 UNL     1      23.051   4.454  49.899  1.00  0.00    -0.018 C 
HETATM   10  C12 UNL     1      23.369   3.697  48.787  1.00  0.00     0.018 C 
HETATM   11  C16 UNL     1      24.326   4.801  50.803  1.00  0.00     0.017 C 
HETATM   12  C13 UNL     1      24.142   2.982  49.822  1.00  0.00     0.165 C 
HETATM   13  C14 UNL     1      25.165   4.073  50.010  1.00  0.00    -0.055 C 
HETATM   14  C15 UNL     1      26.534   3.959  49.404  1.00  0.00     0.046 C 
ENDBRANCH   4   6
BRANCH   1  15
HETATM   15  C6  UNL     1      24.977  -0.182  53.621  1.00  0.00     0.074 C 
HETATM   16  C5  UNL     1      26.151  -0.690  53.880  1.00  0.00    -0.013 C 
BRANCH  16  17
HETATM   17  C4  UNL     1      26.805   0.570  54.363  1.00  0.00     0.020 C 
HETATM   18  C3  UNL     1      28.121   0.482  54.067  1.00  0.00     0.033 C 
HETATM   19 CL1  UNL     1      29.241   1.793  54.463  1.00  0.00    -0.084 Cl
BRANCH  18  20
HETATM   20  C2  UNL     1      28.686  -0.671  53.403  1.00  0.00     0.013 C 
HETATM   21  C1  UNL     1      29.921  -1.016  53.639  1.00  0.00     0.013 C 
ENDBRANCH  18  20
ENDBRANCH  16  17
ENDBRANCH   1  15
TORSDOF 4
ENDMDL
MODEL 6
REMARK VINA RESULT:      -7.2      4.245      7.124
REMARK  4 active torsions:
REMARK  status: ('A' for Active; 'I' for Inactive)
REMARK    1  A    between atoms: C2_2  and  C3_3 
REMARK    2  A    between atoms: C4_5  and  C5_6 
REMARK    3  A    between atoms: C6_7  and  C7_8 
REMARK    4  A    between atoms: C9_11  and  N1_12 
ROOT
HETATM    1  C7  UNL     1      23.856  -0.621  53.998  1.00  0.00     0.052 A 
HETATM    2  C8  UNL     1      22.944  -1.191  55.028  1.00  0.00     0.081 A 
HETATM    3  S1  UNL     1      21.420  -0.309  54.468  1.00  0.00    -0.060 SA
HETATM    4  C9  UNL     1      22.167   0.568  53.114  1.00  0.00     0.190 A 
HETATM    5  N3  UNL     1      23.291   0.238  53.129  1.00  0.00    -0.226 NA
ENDROOT
BRANCH   4   6
HETATM    6  N1  UNL     1      21.172   1.471  52.362  1.00  0.00    -0.234 N 
HETATM    7  N2  UNL     1      21.542   2.887  51.743  1.00  0.00    -0.181 NA
HETATM    8  C10 UNL     1      21.582   2.490  50.406  1.00  0.00     0.150 C 
HETATM    9  C11 UNL     1      20.134   2.313  50.938  1.00  0.00    -0.018 C 
HETATM   10  C12 UNL     1      19.268   2.474  52.003  1.00  0.00     0.018 C 
HETATM   11  C16 UNL     1      19.986   0.888  50.222  1.00  0.00     0.017 C 
HETATM   12  C13 UNL     1      19.768   1.112  52.274  1.00  0.00     0.165 C 
HETATM   13  C14 UNL     1      19.046   0.466  51.118  1.00  0.00    -0.055 C 
HETATM   14  C15 UNL     1      17.791  -0.327  51.339  1.00  0.00     0.046 C 
ENDBRANCH   4   6
BRANCH   1  15
HETATM   15  C6  UNL     1      25.186  -0.441  53.294  1.00  0.00     0.074 C 
HETATM   16  C5  UNL     1      26.061   0.011  52.437  1.00  0.00    -0.013 C 
BRANCH  16  17
HETATM   17  C4  UNL     1      27.239  -0.775  52.930  1.00  0.00     0.020 C 
HETATM   18  C3  UNL     1      28.224   0.107  53.214  1.00  0.00     0.033 C 
HETATM   19 CL1  UNL     1      29.785  -0.432  53.848  1.00  0.00    -0.084 Cl
BRANCH  18  20
HETATM   20  C2  UNL     1      28.058   1.531  53.033  1.00  0.00     0.013 C 
HETATM   21  C1  UNL     1      28.775   2.363  53.736  1.00  0.00     0.013 C 
ENDBRANCH  18  20
ENDBRANCH  16  17
ENDBRANCH   1  15
TORSDOF 4
ENDMDL
MODEL 7
REMARK VINA RESULT:      -7.0      3.107      4.960
REMARK  4 active torsions:
REMARK  status: ('A' for Active; 'I' for Inactive)
REMARK    1  A    between atoms: C2_2  and  C3_3 
REMARK    2  A    between atoms: C4_5  and  C5_6 
REMARK    3  A    between atoms: C6_7  and  C7_8 
REMARK    4  A    between atoms: C9_11  and  N1_12 
ROOT
HETATM    1  C7  UNL     1      21.405  -0.348  53.072  1.00  0.00     0.052 A 
HETATM    2  C8  UNL     1      21.231  -1.217  54.268  1.00  0.00     0.081 A 
HETATM    3  S1  UNL     1      22.993  -1.166  54.821  1.00  0.00    -0.060 SA
HETATM    4  C9  UNL     1      23.594  -0.117  53.518  1.00  0.00     0.190 A 
HETATM    5  N3  UNL     1      22.653   0.108  52.858  1.00  0.00    -0.226 NA
ENDROOT
BRANCH   4   6
HETATM    6  N1  UNL     1      25.104   0.165  53.625  1.00  0.00    -0.234 N 
HETATM    7  N2  UNL     1      26.125  -0.734  54.447  1.00  0.00    -0.181 NA
HETATM    8  C10 UNL     1      26.723  -1.365  53.356  1.00  0.00     0.150 C 
HETATM    9  C11 UNL     1      27.027   0.155  53.284  1.00  0.00    -0.018 C 
HETATM   10  C12 UNL     1      26.890   1.390  53.889  1.00  0.00     0.018 C 
HETATM   11  C16 UNL     1      26.733   0.196  51.710  1.00  0.00     0.017 C 
HETATM   12  C13 UNL     1      25.674   1.372  53.052  1.00  0.00     0.165 C 
HETATM   13  C14 UNL     1      26.405   1.520  51.742  1.00  0.00    -0.055 C 
HETATM   14  C15 UNL     1      26.452   2.842  51.031  1.00  0.00     0.046 C 
ENDBRANCH   4   6
BRANCH   1  15
HETATM   15  C6  UNL     1      20.934   0.398  51.839  1.00  0.00     0.074 C 
HETATM   16  C5  UNL     1      20.291   1.274  51.115  1.00  0.00    -0.013 C 
BRANCH  16  17
HETATM   17  C4  UNL     1      20.817   0.843  49.778  1.00  0.00     0.020 C 
HETATM   18  C3  UNL     1      21.583   1.850  49.301  1.00  0.00     0.033 C 
HETATM   19 CL1  UNL     1      22.406   1.717  47.741  1.00  0.00    -0.084 Cl
BRANCH  18  20
HETATM   20  C2  UNL     1      21.785   3.078  50.035  1.00  0.00     0.013 C 
HETATM   21  C1  UNL     1      22.878   3.768  49.860  1.00  0.00     0.013 C 
ENDBRANCH  18  20
ENDBRANCH  16  17
ENDBRANCH   1  15
TORSDOF 4
ENDMDL
MODEL 8
REMARK VINA RESULT:      -6.9      3.647      6.606
REMARK  4 active torsions:
REMARK  status: ('A' for Active; 'I' for Inactive)
REMARK    1  A    between atoms: C2_2  and  C3_3 
REMARK    2  A    between atoms: C4_5  and  C5_6 
REMARK    3  A    between atoms: C6_7  and  C7_8 
REMARK    4  A    between atoms: C9_11  and  N1_12 
ROOT
HETATM    1  C7  UNL     1      25.748   2.580  50.875  1.00  0.00     0.052 A 
HETATM    2  C8  UNL     1      25.784   3.699  49.894  1.00  0.00     0.081 A 
HETATM    3  S1  UNL     1      23.954   3.905  49.746  1.00  0.00    -0.060 SA
HETATM    4  C9  UNL     1      23.502   2.617  50.884  1.00  0.00     0.190 A 
HETATM    5  N3  UNL     1      24.522   2.174  51.254  1.00  0.00    -0.226 NA
ENDROOT
BRANCH   4   6
HETATM    6  N1  UNL     1      21.978   2.457  51.035  1.00  0.00    -0.234 N 
HETATM    7  N2  UNL     1      20.927   2.797  49.892  1.00  0.00    -0.181 NA
HETATM    8  C10 UNL     1      20.630   1.482  49.529  1.00  0.00     0.150 C 
HETATM    9  C11 UNL     1      20.173   1.713  50.995  1.00  0.00    -0.018 C 
HETATM   10  C12 UNL     1      20.046   2.612  52.037  1.00  0.00     0.018 C 
HETATM   11  C16 UNL     1      20.761   0.298  51.459  1.00  0.00     0.017 C 
HETATM   12  C13 UNL     1      21.395   2.081  52.311  1.00  0.00     0.165 C 
HETATM   13  C14 UNL     1      20.922   0.718  52.748  1.00  0.00    -0.055 C 
HETATM   14  C15 UNL     1      20.862   0.353  54.203  1.00  0.00     0.046 C 
ENDBRANCH   4   6
BRANCH   1  15
HETATM   15  C6  UNL     1      26.363   1.538  51.789  1.00  0.00     0.074 C 
HETATM   16  C5  UNL     1      27.014   1.037  52.803  1.00  0.00    -0.013 C 
BRANCH  16  17
HETATM   17  C4  UNL     1      26.856  -0.409  52.440  1.00  0.00     0.020 C 
HETATM   18  C3  UNL     1      27.904  -1.077  52.972  1.00  0.00     0.033 C 
HETATM   19 CL1  UNL     1      28.070  -2.827  52.781  1.00  0.00    -0.084 Cl
BRANCH  18  20
HETATM   20  C2  UNL     1      28.935  -0.410  53.735  1.00  0.00     0.013 C 
HETATM   21  C1  UNL     1      30.151  -0.881  53.734  1.00  0.00     0.013 C 
ENDBRANCH  18  20
ENDBRANCH  16  17
ENDBRANCH   1  15
TORSDOF 4
ENDMDL
MODEL 9
REMARK VINA RESULT:      -6.9      2.656      4.232
REMARK  4 active torsions:
REMARK  status: ('A' for Active; 'I' for Inactive)
REMARK    1  A    between atoms: C2_2  and  C3_3 
REMARK    2  A    between atoms: C4_5  and  C5_6 
REMARK    3  A    between atoms: C6_7  and  C7_8 
REMARK    4  A    between atoms: C9_11  and  N1_12 
ROOT
HETATM    1  C7  UNL     1      26.458   2.057  51.302  1.00  0.00     0.052 A 
HETATM    2  C8  UNL     1      27.045   1.085  52.265  1.00  0.00     0.081 A 
HETATM    3  S1  UNL     1      25.441   0.462  52.937  1.00  0.00    -0.060 SA
HETATM    4  C9  UNL     1      24.382   1.482  51.938  1.00  0.00     0.190 A 
HETATM    5  N3  UNL     1      25.113   2.116  51.279  1.00  0.00    -0.226 NA
ENDROOT
BRANCH   4   6
HETATM    6  N1  UNL     1      22.886   1.254  52.225  1.00  0.00    -0.234 N 
HETATM    7  N2  UNL     1      21.708   1.783  51.299  1.00  0.00    -0.181 NA
HETATM    8  C10 UNL     1      21.376   0.559  50.717  1.00  0.00     0.150 C 
HETATM    9  C11 UNL     1      21.091   0.483  52.241  1.00  0.00    -0.018 C 
HETATM   10  C12 UNL     1      21.083   1.155  53.449  1.00  0.00     0.018 C 
HETATM   11  C16 UNL     1      21.736  -0.979  52.345  1.00  0.00     0.017 C 
HETATM   12  C13 UNL     1      22.457   0.617  53.457  1.00  0.00     0.165 C 
HETATM   13  C14 UNL     1      22.044  -0.818  53.665  1.00  0.00    -0.055 C 
HETATM   14  C15 UNL     1      22.156  -1.465  55.015  1.00  0.00     0.046 C 
ENDBRANCH   4   6
BRANCH   1  15
HETATM   15  C6  UNL     1      26.512   3.118  50.220  1.00  0.00     0.074 C 
HETATM   16  C5  UNL     1      26.090   3.994  49.349  1.00  0.00    -0.013 C 
BRANCH  16  17
HETATM   17  C4  UNL     1      27.434   4.428  48.844  1.00  0.00     0.020 C 
HETATM   18  C3  UNL     1      27.331   5.727  48.486  1.00  0.00     0.033 C 
HETATM   19 CL1  UNL     1      28.722   6.618  47.853  1.00  0.00    -0.084 Cl
BRANCH  18  20
HETATM   20  C2  UNL     1      26.094   6.464  48.609  1.00  0.00     0.013 C 
HETATM   21  C1  UNL     1      25.843   7.453  47.795  1.00  0.00     0.013 C 
ENDBRANCH  18  20
ENDBRANCH  16  17
ENDBRANCH   1  15
TORSDOF 4
ENDMDL
