MODEL 1
REMARK VINA RESULT:      -8.2      0.000      0.000
REMARK  10 active torsions:
REMARK  status: ('A' for Active; 'I' for Inactive)
REMARK    1  A    between atoms: C2_2  and  N1_3 
REMARK    2  A    between atoms: N1_3  and  C3_4 
REMARK    3  A    between atoms: C3_4  and  C9_11 
REMARK    4  A    between atoms: C4_5  and  C6_7 
REMARK    5  A    between atoms: C6_7  and  C7_8 
REMARK    6  A    between atoms: C7_8  and  C8_9 
REMARK    7  A    between atoms: C8_9  and  O1_10 
REMARK    8  A    between atoms: C13_17  and  C14_18 
REMARK    9  A    between atoms: C16_20  and  O3_21 
REMARK   10  A    between atoms: O3_21  and  C17_22 
ROOT
HETATM    1  C9  UNL     1      23.359   5.077  49.315  1.00  0.00     0.163 A 
HETATM    2  C10 UNL     1      22.838   4.184  48.242  1.00  0.00     0.236 A 
HETATM    3  O2  UNL     1      22.505   4.542  47.058  1.00  0.00    -0.272 OA
HETATM    4  N2  UNL     1      22.726   2.823  48.645  1.00  0.00    -0.326 N 
HETATM    5  C11 UNL     1      23.138   2.820  50.010  1.00  0.00     0.043 A 
HETATM    6  C12 UNL     1      23.180   1.716  50.838  1.00  0.00     0.042 A 
HETATM    7  C13 UNL     1      23.578   1.834  52.148  1.00  0.00    -0.023 A 
HETATM    8  C23 UNL     1      23.940   3.103  52.621  1.00  0.00     0.013 A 
HETATM    9  C24 UNL     1      23.887   4.188  51.766  1.00  0.00     0.011 A 
HETATM   10  C25 UNL     1      23.489   4.083  50.442  1.00  0.00    -0.012 A 
HETATM   11  H16 UNL     1      22.412   2.022  48.058  1.00  0.00     0.169 HD
ENDROOT
BRANCH   1  12
HETATM   12  C3  UNL     1      24.669   5.651  48.969  1.00  0.00     0.028 C 
HETATM   13  C4  UNL     1      25.943   5.295  48.972  1.00  0.00    -0.060 C 
HETATM   14  C5  UNL     1      26.492   4.005  49.392  1.00  0.00     0.045 C 
BRANCH  12  15
HETATM   15  N1  UNL     1      24.314   6.973  48.519  1.00  0.00    -0.369 N 
HETATM   16  H4  UNL     1      24.415   7.398  47.551  1.00  0.00     0.165 HD
BRANCH  15  17
HETATM   17  C2  UNL     1      23.740   8.003  49.305  1.00  0.00     0.078 C 
HETATM   18  C1  UNL     1      24.165   8.161  50.539  1.00  0.00     0.029 C 
ENDBRANCH  15  17
ENDBRANCH  12  15
BRANCH  13  19
HETATM   19  C6  UNL     1      26.946   6.269  48.518  1.00  0.00     0.038 C 
BRANCH  19  20
HETATM   20  C7  UNL     1      28.260   5.700  48.112  1.00  0.00     0.030 C 
BRANCH  20  21
HETATM   21  C8  UNL     1      29.458   6.505  48.556  1.00  0.00     0.164 C 
BRANCH  21  22
HETATM   22  O1  UNL     1      30.320   5.845  49.392  1.00  0.00    -0.401 OA
HETATM   23  H14 UNL     1      31.215   5.802  48.935  1.00  0.00     0.209 HD
ENDBRANCH  21  22
ENDBRANCH  20  21
ENDBRANCH  19  20
ENDBRANCH  13  19
ENDBRANCH   1  12
BRANCH   7  24
HETATM   24  C14 UNL     1      23.676   0.776  53.150  1.00  0.00    -0.017 A 
HETATM   25  C15 UNL     1      24.948   0.462  53.635  1.00  0.00     0.049 A 
HETATM   26  C16 UNL     1      25.210  -0.517  54.585  1.00  0.00     0.069 A 
HETATM   27  C19 UNL     1      24.106  -1.200  55.051  1.00  0.00     0.037 A 
HETATM   28  C20 UNL     1      22.827  -0.936  54.613  1.00  0.00     0.010 A 
HETATM   29  C21 UNL     1      22.624   0.047  53.668  1.00  0.00    -0.051 A 
HETATM   30  C22 UNL     1      21.262   0.362  53.174  1.00  0.00     0.049 C 
BRANCH  26  31
HETATM   31  O3  UNL     1      26.522  -0.730  54.980  1.00  0.00    -0.351 OA
BRANCH  31  32
HETATM   32  C17 UNL     1      27.589  -0.025  54.420  1.00  0.00     0.171 C 
HETATM   33  C18 UNL     1      28.408  -0.805  53.434  1.00  0.00     0.034 C 
ENDBRANCH  31  32
ENDBRANCH  26  31
ENDBRANCH   7  24
TORSDOF 10
ENDMDL
MODEL 2
REMARK VINA RESULT:      -8.1      1.697      1.924
REMARK  10 active torsions:
REMARK  status: ('A' for Active; 'I' for Inactive)
REMARK    1  A    between atoms: C2_2  and  N1_3 
REMARK    2  A    between atoms: N1_3  and  C3_4 
REMARK    3  A    between atoms: C3_4  and  C9_11 
REMARK    4  A    between atoms: C4_5  and  C6_7 
REMARK    5  A    between atoms: C6_7  and  C7_8 
REMARK    6  A    between atoms: C7_8  and  C8_9 
REMARK    7  A    between atoms: C8_9  and  O1_10 
REMARK    8  A    between atoms: C13_17  and  C14_18 
REMARK    9  A    between atoms: C16_20  and  O3_21 
REMARK   10  A    between atoms: O3_21  and  C17_22 
ROOT
HETATM    1  C9  UNL     1      22.921   5.463  49.674  1.00  0.00     0.163 A 
HETATM    2  C10 UNL     1      22.926   4.575  48.478  1.00  0.00     0.236 A 
HETATM    3  O2  UNL     1      22.571   4.904  47.292  1.00  0.00    -0.272 OA
HETATM    4  N2  UNL     1      23.376   3.254  48.759  1.00  0.00    -0.326 N 
HETATM    5  C11 UNL     1      23.634   3.254  50.161  1.00  0.00     0.043 A 
HETATM    6  C12 UNL     1      24.077   2.176  50.901  1.00  0.00     0.042 A 
HETATM    7  C13 UNL     1      24.275   2.287  52.257  1.00  0.00    -0.023 A 
HETATM    8  C23 UNL     1      24.015   3.521  52.867  1.00  0.00     0.013 A 
HETATM    9  C24 UNL     1      23.573   4.581  52.098  1.00  0.00     0.011 A 
HETATM   10  C25 UNL     1      23.371   4.484  50.729  1.00  0.00    -0.012 A 
HETATM   11  H16 UNL     1      23.487   2.474  48.077  1.00  0.00     0.169 HD
ENDROOT
BRANCH   1  12
HETATM   12  C3  UNL     1      23.882   6.571  49.543  1.00  0.00     0.028 C 
HETATM   13  C4  UNL     1      25.165   6.748  49.278  1.00  0.00    -0.060 C 
HETATM   14  C5  UNL     1      26.152   5.707  48.986  1.00  0.00     0.045 C 
BRANCH  12  15
HETATM   15  N1  UNL     1      23.058   7.722  49.809  1.00  0.00    -0.369 N 
HETATM   16  H4  UNL     1      23.304   8.752  49.731  1.00  0.00     0.165 HD
BRANCH  15  17
HETATM   17  C2  UNL     1      21.708   7.709  50.244  1.00  0.00     0.078 C 
HETATM   18  C1  UNL     1      20.863   8.550  49.690  1.00  0.00     0.029 C 
ENDBRANCH  15  17
ENDBRANCH  12  15
BRANCH  13  19
HETATM   19  C6  UNL     1      25.698   8.117  49.268  1.00  0.00     0.038 C 
BRANCH  19  20
HETATM   20  C7  UNL     1      27.183   8.232  49.281  1.00  0.00     0.030 C 
BRANCH  20  21
HETATM   21  C8  UNL     1      27.708   9.529  49.847  1.00  0.00     0.164 C 
BRANCH  21  22
HETATM   22  O1  UNL     1      27.588   9.656  51.207  1.00  0.00    -0.401 OA
HETATM   23  H14 UNL     1      28.512   9.600  51.601  1.00  0.00     0.209 HD
ENDBRANCH  21  22
ENDBRANCH  20  21
ENDBRANCH  19  20
ENDBRANCH  13  19
ENDBRANCH   1  12
BRANCH   7  24
HETATM   24  C14 UNL     1      24.733   1.251  53.179  1.00  0.00    -0.017 A 
HETATM   25  C15 UNL     1      26.017   1.386  53.714  1.00  0.00     0.049 A 
HETATM   26  C16 UNL     1      26.600   0.490  54.600  1.00  0.00     0.069 A 
HETATM   27  C19 UNL     1      25.818  -0.592  54.946  1.00  0.00     0.037 A 
HETATM   28  C20 UNL     1      24.546  -0.781  54.454  1.00  0.00     0.010 A 
HETATM   29  C21 UNL     1      24.016   0.140  53.576  1.00  0.00    -0.051 A 
HETATM   30  C22 UNL     1      22.649  -0.026  53.027  1.00  0.00     0.049 C 
BRANCH  26  31
HETATM   31  O3  UNL     1      27.885   0.741  55.056  1.00  0.00    -0.351 OA
BRANCH  31  32
HETATM   32  C17 UNL     1      28.991   0.717  54.205  1.00  0.00     0.171 C 
HETATM   33  C18 UNL     1      29.425  -0.655  53.779  1.00  0.00     0.034 C 
ENDBRANCH  31  32
ENDBRANCH  26  31
ENDBRANCH   7  24
TORSDOF 10
ENDMDL
MODEL 3
REMARK VINA RESULT:      -8.0      2.583      7.914
REMARK  10 active torsions:
REMARK  status: ('A' for Active; 'I' for Inactive)
REMARK    1  A    between atoms: C2_2  and  N1_3 
REMARK    2  A    between atoms: N1_3  and  C3_4 
REMARK    3  A    between atoms: C3_4  and  C9_11 
REMARK    4  A    between atoms: C4_5  and  C6_7 
REMARK    5  A    between atoms: C6_7  and  C7_8 
REMARK    6  A    between atoms: C7_8  and  C8_9 
REMARK    7  A    between atoms: C8_9  and  O1_10 
REMARK    8  A    between atoms: C13_17  and  C14_18 
REMARK    9  A    between atoms: C16_20  and  O3_21 
REMARK   10  A    between atoms: O3_21  and  C17_22 
ROOT
HETATM    1  C9  UNL     1      21.654   2.431  51.129  1.00  0.00     0.163 A 
HETATM    2  C10 UNL     1      21.289   3.483  52.119  1.00  0.00     0.236 A 
HETATM    3  O2  UNL     1      20.337   3.417  52.974  1.00  0.00    -0.272 OA
HETATM    4  N2  UNL     1      22.119   4.637  52.046  1.00  0.00    -0.326 N 
HETATM    5  C11 UNL     1      23.015   4.366  50.972  1.00  0.00     0.043 A 
HETATM    6  C12 UNL     1      24.004   5.214  50.511  1.00  0.00     0.042 A 
HETATM    7  C13 UNL     1      24.801   4.854  49.451  1.00  0.00    -0.023 A 
HETATM    8  C23 UNL     1      24.585   3.606  48.851  1.00  0.00     0.013 A 
HETATM    9  C24 UNL     1      23.588   2.780  49.336  1.00  0.00     0.011 A 
HETATM   10  C25 UNL     1      22.777   3.131  50.406  1.00  0.00    -0.012 A 
HETATM   11  H16 UNL     1      22.067   5.483  52.653  1.00  0.00     0.169 HD
ENDROOT
BRANCH   1  12
HETATM   12  C3  UNL     1      22.135   1.202  51.781  1.00  0.00     0.028 C 
HETATM   13  C4  UNL     1      23.108   0.823  52.592  1.00  0.00    -0.060 C 
HETATM   14  C5  UNL     1      24.151   1.672  53.168  1.00  0.00     0.045 C 
BRANCH  12  15
HETATM   15  N1  UNL     1      21.193   0.218  51.311  1.00  0.00    -0.369 N 
HETATM   16  H4  UNL     1      21.377  -0.766  50.957  1.00  0.00     0.165 HD
BRANCH  15  17
HETATM   17  C2  UNL     1      19.787   0.374  51.224  1.00  0.00     0.078 C 
HETATM   18  C1  UNL     1      19.038  -0.153  52.167  1.00  0.00     0.029 C 
ENDBRANCH  15  17
ENDBRANCH  12  15
BRANCH  13  19
HETATM   19  C6  UNL     1      23.188  -0.593  52.980  1.00  0.00     0.038 C 
BRANCH  19  20
HETATM   20  C7  UNL     1      22.953  -0.882  54.421  1.00  0.00     0.030 C 
BRANCH  20  21
HETATM   21  C8  UNL     1      21.540  -0.630  54.890  1.00  0.00     0.164 C 
BRANCH  21  22
HETATM   22  O1  UNL     1      20.715  -1.724  54.850  1.00  0.00    -0.401 OA
HETATM   23  H14 UNL     1      19.787  -1.399  54.634  1.00  0.00     0.209 HD
ENDBRANCH  21  22
ENDBRANCH  20  21
ENDBRANCH  19  20
ENDBRANCH  13  19
ENDBRANCH   1  12
BRANCH   7  24
HETATM   24  C14 UNL     1      25.881   5.627  48.843  1.00  0.00    -0.017 A 
HETATM   25  C15 UNL     1      27.171   5.097  48.911  1.00  0.00     0.049 A 
HETATM   26  C16 UNL     1      28.303   5.708  48.386  1.00  0.00     0.069 A 
HETATM   27  C19 UNL     1      28.086   6.920  47.765  1.00  0.00     0.037 A 
HETATM   28  C20 UNL     1      26.839   7.494  47.665  1.00  0.00     0.010 A 
HETATM   29  C21 UNL     1      25.749   6.844  48.205  1.00  0.00    -0.051 A 
HETATM   30  C22 UNL     1      24.389   7.429  48.115  1.00  0.00     0.049 C 
BRANCH  26  31
HETATM   31  O3  UNL     1      29.528   5.073  48.521  1.00  0.00    -0.351 OA
BRANCH  31  32
HETATM   32  C17 UNL     1      30.714   5.644  48.056  1.00  0.00     0.171 C 
HETATM   33  C18 UNL     1      31.623   4.698  47.328  1.00  0.00     0.034 C 
ENDBRANCH  31  32
ENDBRANCH  26  31
ENDBRANCH   7  24
TORSDOF 10
ENDMDL
MODEL 4
REMARK VINA RESULT:      -7.9      2.510      3.976
REMARK  10 active torsions:
REMARK  status: ('A' for Active; 'I' for Inactive)
REMARK    1  A    between atoms: C2_2  and  N1_3 
REMARK    2  A    between atoms: N1_3  and  C3_4 
REMARK    3  A    between atoms: C3_4  and  C9_11 
REMARK    4  A    between atoms: C4_5  and  C6_7 
REMARK    5  A    between atoms: C6_7  and  C7_8 
REMARK    6  A    between atoms: C7_8  and  C8_9 
REMARK    7  A    between atoms: C8_9  and  O1_10 
REMARK    8  A    between atoms: C13_17  and  C14_18 
REMARK    9  A    between atoms: C16_20  and  O3_21 
REMARK   10  A    between atoms: O3_21  and  C17_22 
ROOT
HETATM    1  C9  UNL     1      23.990   6.312  49.642  1.00  0.00     0.163 A 
HETATM    2  C10 UNL     1      22.987   6.879  50.586  1.00  0.00     0.236 A 
HETATM    3  O2  UNL     1      22.368   7.993  50.451  1.00  0.00    -0.272 OA
HETATM    4  N2  UNL     1      22.749   6.052  51.720  1.00  0.00    -0.326 N 
HETATM    5  C11 UNL     1      23.631   4.945  51.547  1.00  0.00     0.043 A 
HETATM    6  C12 UNL     1      23.770   3.880  52.414  1.00  0.00     0.042 A 
HETATM    7  C13 UNL     1      24.670   2.874  52.154  1.00  0.00    -0.023 A 
HETATM    8  C23 UNL     1      25.440   2.958  50.987  1.00  0.00     0.013 A 
HETATM    9  C24 UNL     1      25.277   4.037  50.139  1.00  0.00     0.011 A 
HETATM   10  C25 UNL     1      24.372   5.058  50.389  1.00  0.00    -0.012 A 
HETATM   11  H16 UNL     1      22.075   6.232  52.493  1.00  0.00     0.169 HD
ENDROOT
BRANCH   1  12
HETATM   12  C3  UNL     1      23.395   5.983  48.336  1.00  0.00     0.028 C 
HETATM   13  C4  UNL     1      22.630   5.048  47.799  1.00  0.00    -0.060 C 
HETATM   14  C5  UNL     1      22.063   3.882  48.478  1.00  0.00     0.045 C 
BRANCH  12  15
HETATM   15  N1  UNL     1      23.864   7.064  47.507  1.00  0.00    -0.369 N 
HETATM   16  H4  UNL     1      23.434   7.460  46.621  1.00  0.00     0.165 HD
BRANCH  15  17
HETATM   17  C2  UNL     1      25.034   7.837  47.715  1.00  0.00     0.078 C 
HETATM   18  C1  UNL     1      25.823   8.068  46.689  1.00  0.00     0.029 C 
ENDBRANCH  15  17
ENDBRANCH  12  15
BRANCH  13  19
HETATM   19  C6  UNL     1      22.292   5.150  46.372  1.00  0.00     0.038 C 
BRANCH  19  20
HETATM   20  C7  UNL     1      21.952   3.868  45.696  1.00  0.00     0.030 C 
BRANCH  20  21
HETATM   21  C8  UNL     1      20.715   3.922  44.832  1.00  0.00     0.164 C 
BRANCH  21  22
HETATM   22  O1  UNL     1      20.901   3.521  43.534  1.00  0.00    -0.401 OA
HETATM   23  H14 UNL     1      21.406   2.650  43.553  1.00  0.00     0.209 HD
ENDBRANCH  21  22
ENDBRANCH  20  21
ENDBRANCH  19  20
ENDBRANCH  13  19
ENDBRANCH   1  12
BRANCH   7  24
HETATM   24  C14 UNL     1      24.940   1.687  52.963  1.00  0.00    -0.017 A 
HETATM   25  C15 UNL     1      26.154   1.639  53.652  1.00  0.00     0.049 A 
HETATM   26  C16 UNL     1      26.562   0.585  54.458  1.00  0.00     0.069 A 
HETATM   27  C19 UNL     1      25.671  -0.464  54.555  1.00  0.00     0.037 A 
HETATM   28  C20 UNL     1      24.459  -0.476  53.901  1.00  0.00     0.010 A 
HETATM   29  C21 UNL     1      24.105   0.598  53.112  1.00  0.00    -0.051 A 
HETATM   30  C22 UNL     1      22.807   0.625  52.395  1.00  0.00     0.049 C 
BRANCH  26  31
HETATM   31  O3  UNL     1      27.795   0.662  55.087  1.00  0.00    -0.351 OA
BRANCH  31  32
HETATM   32  C17 UNL     1      28.993   0.656  54.370  1.00  0.00     0.171 C 
HETATM   33  C18 UNL     1      29.387  -0.683  53.818  1.00  0.00     0.034 C 
ENDBRANCH  31  32
ENDBRANCH  26  31
ENDBRANCH   7  24
TORSDOF 10
ENDMDL
MODEL 5
REMARK VINA RESULT:      -7.5      5.176      8.809
REMARK  10 active torsions:
REMARK  status: ('A' for Active; 'I' for Inactive)
REMARK    1  A    between atoms: C2_2  and  N1_3 
REMARK    2  A    between atoms: N1_3  and  C3_4 
REMARK    3  A    between atoms: C3_4  and  C9_11 
REMARK    4  A    between atoms: C4_5  and  C6_7 
REMARK    5  A    between atoms: C6_7  and  C7_8 
REMARK    6  A    between atoms: C7_8  and  C8_9 
REMARK    7  A    between atoms: C8_9  and  O1_10 
REMARK    8  A    between atoms: C13_17  and  C14_18 
REMARK    9  A    between atoms: C16_20  and  O3_21 
REMARK   10  A    between atoms: O3_21  and  C17_22 
ROOT
HETATM    1  C9  UNL     1      16.936  -0.399  51.396  1.00  0.00     0.163 A 
HETATM    2  C10 UNL     1      17.062  -0.072  49.948  1.00  0.00     0.236 A 
HETATM    3  O2  UNL     1      16.154  -0.223  49.058  1.00  0.00    -0.272 OA
HETATM    4  N2  UNL     1      18.340   0.450  49.597  1.00  0.00    -0.326 N 
HETATM    5  C11 UNL     1      19.081   0.431  50.815  1.00  0.00     0.043 A 
HETATM    6  C12 UNL     1      20.393   0.831  50.968  1.00  0.00     0.042 A 
HETATM    7  C13 UNL     1      21.015   0.751  52.191  1.00  0.00    -0.023 A 
HETATM    8  C23 UNL     1      20.283   0.252  53.276  1.00  0.00     0.013 A 
HETATM    9  C24 UNL     1      18.971  -0.140  53.091  1.00  0.00     0.011 A 
HETATM   10  C25 UNL     1      18.331  -0.063  51.863  1.00  0.00    -0.012 A 
HETATM   11  H16 UNL     1      18.646   0.769  48.654  1.00  0.00     0.169 HD
ENDROOT
BRANCH   1  12
HETATM   12  C3  UNL     1      15.939   0.449  52.069  1.00  0.00     0.028 C 
HETATM   13  C4  UNL     1      15.603   1.726  52.136  1.00  0.00    -0.060 C 
HETATM   14  C5  UNL     1      16.241   2.839  51.431  1.00  0.00     0.045 C 
BRANCH  12  15
HETATM   15  N1  UNL     1      15.193  -0.512  52.841  1.00  0.00    -0.369 N 
HETATM   16  H4  UNL     1      15.115  -0.605  53.895  1.00  0.00     0.165 HD
BRANCH  15  17
HETATM   17  C2  UNL     1      14.387  -1.559  52.328  1.00  0.00     0.078 C 
HETATM   18  C1  UNL     1      13.371  -1.248  51.554  1.00  0.00     0.029 C 
ENDBRANCH  15  17
ENDBRANCH  12  15
BRANCH  13  19
HETATM   19  C6  UNL     1      14.479   2.113  53.000  1.00  0.00     0.038 C 
BRANCH  19  20
HETATM   20  C7  UNL     1      13.793   3.383  52.637  1.00  0.00     0.030 C 
BRANCH  20  21
HETATM   21  C8  UNL     1      13.571   4.330  53.792  1.00  0.00     0.164 C 
BRANCH  21  22
HETATM   22  O1  UNL     1      14.717   4.807  54.374  1.00  0.00    -0.401 OA
HETATM   23  H14 UNL     1      14.858   5.748  54.045  1.00  0.00     0.209 HD
ENDBRANCH  21  22
ENDBRANCH  20  21
ENDBRANCH  19  20
ENDBRANCH  13  19
ENDBRANCH   1  12
BRANCH   7  24
HETATM   24  C14 UNL     1      22.388   1.127  52.521  1.00  0.00    -0.017 A 
HETATM   25  C15 UNL     1      23.274   0.102  52.861  1.00  0.00     0.049 A 
HETATM   26  C16 UNL     1      24.606   0.293  53.202  1.00  0.00     0.069 A 
HETATM   27  C19 UNL     1      25.038   1.603  53.188  1.00  0.00     0.037 A 
HETATM   28  C20 UNL     1      24.214   2.656  52.860  1.00  0.00     0.010 A 
HETATM   29  C21 UNL     1      22.899   2.410  52.530  1.00  0.00    -0.051 A 
HETATM   30  C22 UNL     1      21.981   3.517  52.168  1.00  0.00     0.049 C 
BRANCH  26  31
HETATM   31  O3  UNL     1      25.380  -0.812  53.521  1.00  0.00    -0.351 OA
BRANCH  31  32
HETATM   32  C17 UNL     1      26.438  -1.235  52.714  1.00  0.00     0.171 C 
HETATM   33  C18 UNL     1      27.799  -0.833  53.202  1.00  0.00     0.034 C 
ENDBRANCH  31  32
ENDBRANCH  26  31
ENDBRANCH   7  24
TORSDOF 10
ENDMDL
MODEL 6
REMARK VINA RESULT:      -7.5      4.498      8.125
REMARK  10 active torsions:
REMARK  status: ('A' for Active; 'I' for Inactive)
REMARK    1  A    between atoms: C2_2  and  N1_3 
REMARK    2  A    between atoms: N1_3  and  C3_4 
REMARK    3  A    between atoms: C3_4  and  C9_11 
REMARK    4  A    between atoms: C4_5  and  C6_7 
REMARK    5  A    between atoms: C6_7  and  C7_8 
REMARK    6  A    between atoms: C7_8  and  C8_9 
REMARK    7  A    between atoms: C8_9  and  O1_10 
REMARK    8  A    between atoms: C13_17  and  C14_18 
REMARK    9  A    between atoms: C16_20  and  O3_21 
REMARK   10  A    between atoms: O3_21  and  C17_22 
ROOT
HETATM    1  C9  UNL     1      23.030  -0.731  53.351  1.00  0.00     0.163 A 
HETATM    2  C10 UNL     1      22.392  -1.028  54.665  1.00  0.00     0.236 A 
HETATM    3  O2  UNL     1      22.986  -1.477  55.707  1.00  0.00    -0.272 OA
HETATM    4  N2  UNL     1      20.993  -0.766  54.684  1.00  0.00    -0.326 N 
HETATM    5  C11 UNL     1      20.692  -0.330  53.361  1.00  0.00     0.043 A 
HETATM    6  C12 UNL     1      19.443   0.024  52.892  1.00  0.00     0.042 A 
HETATM    7  C13 UNL     1      19.266   0.412  51.585  1.00  0.00    -0.023 A 
HETATM    8  C23 UNL     1      20.386   0.440  50.743  1.00  0.00     0.013 A 
HETATM    9  C24 UNL     1      21.623   0.080  51.244  1.00  0.00     0.011 A 
HETATM   10  C25 UNL     1      21.816  -0.313  52.560  1.00  0.00    -0.012 A 
HETATM   11  H16 UNL     1      20.349  -0.875  55.496  1.00  0.00     0.169 HD
ENDROOT
BRANCH   1  12
HETATM   12  C3  UNL     1      24.000   0.372  53.444  1.00  0.00     0.028 C 
HETATM   13  C4  UNL     1      24.062   1.666  53.183  1.00  0.00    -0.060 C 
HETATM   14  C5  UNL     1      22.993   2.502  52.636  1.00  0.00     0.045 C 
BRANCH  12  15
HETATM   15  N1  UNL     1      25.161  -0.289  53.983  1.00  0.00    -0.369 N 
HETATM   16  H4  UNL     1      25.694  -0.079  54.877  1.00  0.00     0.165 HD
BRANCH  15  17
HETATM   17  C2  UNL     1      25.848  -1.387  53.406  1.00  0.00     0.078 C 
HETATM   18  C1  UNL     1      26.682  -1.155  52.416  1.00  0.00     0.029 C 
ENDBRANCH  15  17
ENDBRANCH  12  15
BRANCH  13  19
HETATM   19  C6  UNL     1      25.319   2.378  53.451  1.00  0.00     0.038 C 
BRANCH  19  20
HETATM   20  C7  UNL     1      26.317   2.364  52.345  1.00  0.00     0.030 C 
BRANCH  20  21
HETATM   21  C8  UNL     1      27.754   2.261  52.797  1.00  0.00     0.164 C 
BRANCH  21  22
HETATM   22  O1  UNL     1      28.010   2.799  54.032  1.00  0.00    -0.401 OA
HETATM   23  H14 UNL     1      28.094   2.038  54.685  1.00  0.00     0.209 HD
ENDBRANCH  21  22
ENDBRANCH  20  21
ENDBRANCH  19  20
ENDBRANCH  13  19
ENDBRANCH   1  12
BRANCH   7  24
HETATM   24  C14 UNL     1      18.021   0.813  50.934  1.00  0.00    -0.017 A 
HETATM   25  C15 UNL     1      17.252  -0.191  50.340  1.00  0.00     0.049 A 
HETATM   26  C16 UNL     1      16.049   0.025  49.681  1.00  0.00     0.069 A 
HETATM   27  C19 UNL     1      15.625   1.337  49.637  1.00  0.00     0.037 A 
HETATM   28  C20 UNL     1      16.338   2.370  50.204  1.00  0.00     0.010 A 
HETATM   29  C21 UNL     1      17.527   2.099  50.846  1.00  0.00    -0.051 A 
HETATM   30  C22 UNL     1      18.322   3.184  51.471  1.00  0.00     0.049 C 
BRANCH  26  31
HETATM   31  O3  UNL     1      15.383  -1.061  49.133  1.00  0.00    -0.351 OA
BRANCH  31  32
HETATM   32  C17 UNL     1      15.496  -1.395  47.782  1.00  0.00     0.171 C 
HETATM   33  C18 UNL     1      15.509  -2.868  47.498  1.00  0.00     0.034 C 
ENDBRANCH  31  32
ENDBRANCH  26  31
ENDBRANCH   7  24
TORSDOF 10
ENDMDL
MODEL 7
REMARK VINA RESULT:      -7.3      2.573      4.332
REMARK  10 active torsions:
REMARK  status: ('A' for Active; 'I' for Inactive)
REMARK    1  A    between atoms: C2_2  and  N1_3 
REMARK    2  A    between atoms: N1_3  and  C3_4 
REMARK    3  A    between atoms: C3_4  and  C9_11 
REMARK    4  A    between atoms: C4_5  and  C6_7 
REMARK    5  A    between atoms: C6_7  and  C7_8 
REMARK    6  A    between atoms: C7_8  and  C8_9 
REMARK    7  A    between atoms: C8_9  and  O1_10 
REMARK    8  A    between atoms: C13_17  and  C14_18 
REMARK    9  A    between atoms: C16_20  and  O3_21 
REMARK   10  A    between atoms: O3_21  and  C17_22 
ROOT
HETATM    1  C9  UNL     1      23.615   5.691  49.673  1.00  0.00     0.163 A 
HETATM    2  C10 UNL     1      23.631   6.645  50.818  1.00  0.00     0.236 A 
HETATM    3  O2  UNL     1      23.596   7.922  50.737  1.00  0.00    -0.272 OA
HETATM    4  N2  UNL     1      23.696   6.001  52.086  1.00  0.00    -0.326 N 
HETATM    5  C11 UNL     1      23.763   4.611  51.779  1.00  0.00     0.043 A 
HETATM    6  C12 UNL     1      23.858   3.584  52.698  1.00  0.00     0.042 A 
HETATM    7  C13 UNL     1      23.936   2.275  52.285  1.00  0.00    -0.023 A 
HETATM    8  C23 UNL     1      23.918   2.011  50.909  1.00  0.00     0.013 A 
HETATM    9  C24 UNL     1      23.822   3.061  50.015  1.00  0.00     0.011 A 
HETATM   10  C25 UNL     1      23.741   4.386  50.418  1.00  0.00    -0.012 A 
HETATM   11  H16 UNL     1      23.692   6.461  53.021  1.00  0.00     0.169 HD
ENDROOT
BRANCH   1  12
HETATM   12  C3  UNL     1      22.349   5.748  48.925  1.00  0.00     0.028 C 
HETATM   13  C4  UNL     1      21.055   5.591  49.147  1.00  0.00    -0.060 C 
HETATM   14  C5  UNL     1      20.418   5.262  50.423  1.00  0.00     0.045 C 
BRANCH  12  15
HETATM   15  N1  UNL     1      22.795   6.071  47.594  1.00  0.00    -0.369 N 
HETATM   16  H4  UNL     1      22.751   5.480  46.713  1.00  0.00     0.165 HD
BRANCH  15  17
HETATM   17  C2  UNL     1      23.404   7.283  47.181  1.00  0.00     0.078 C 
HETATM   18  C1  UNL     1      22.727   8.402  47.315  1.00  0.00     0.029 C 
ENDBRANCH  15  17
ENDBRANCH  12  15
BRANCH  13  19
HETATM   19  C6  UNL     1      20.124   5.749  48.021  1.00  0.00     0.038 C 
BRANCH  19  20
HETATM   20  C7  UNL     1      18.885   6.522  48.311  1.00  0.00     0.030 C 
BRANCH  20  21
HETATM   21  C8  UNL     1      19.076   8.019  48.364  1.00  0.00     0.164 C 
BRANCH  21  22
HETATM   22  O1  UNL     1      18.958   8.572  49.613  1.00  0.00    -0.401 OA
HETATM   23  H14 UNL     1      18.936   7.818  50.279  1.00  0.00     0.209 HD
ENDBRANCH  21  22
ENDBRANCH  20  21
ENDBRANCH  19  20
ENDBRANCH  13  19
ENDBRANCH   1  12
BRANCH   7  24
HETATM   24  C14 UNL     1      24.043   1.081  53.119  1.00  0.00    -0.017 A 
HETATM   25  C15 UNL     1      25.324   0.655  53.476  1.00  0.00     0.049 A 
HETATM   26  C16 UNL     1      25.595  -0.459  54.260  1.00  0.00     0.069 A 
HETATM   27  C19 UNL     1      24.489  -1.161  54.692  1.00  0.00     0.037 A 
HETATM   28  C20 UNL     1      23.201  -0.791  54.374  1.00  0.00     0.010 A 
HETATM   29  C21 UNL     1      22.989   0.324  53.592  1.00  0.00    -0.051 A 
HETATM   30  C22 UNL     1      21.617   0.756  53.231  1.00  0.00     0.049 C 
BRANCH  26  31
HETATM   31  O3  UNL     1      26.916  -0.773  54.540  1.00  0.00    -0.351 OA
BRANCH  31  32
HETATM   32  C17 UNL     1      27.875   0.210  54.789  1.00  0.00     0.171 C 
HETATM   33  C18 UNL     1      29.195  -0.015  54.112  1.00  0.00     0.034 C 
ENDBRANCH  31  32
ENDBRANCH  26  31
ENDBRANCH   7  24
TORSDOF 10
ENDMDL
MODEL 8
REMARK VINA RESULT:      -7.3      2.768      5.108
REMARK  10 active torsions:
REMARK  status: ('A' for Active; 'I' for Inactive)
REMARK    1  A    between atoms: C2_2  and  N1_3 
REMARK    2  A    between atoms: N1_3  and  C3_4 
REMARK    3  A    between atoms: C3_4  and  C9_11 
REMARK    4  A    between atoms: C4_5  and  C6_7 
REMARK    5  A    between atoms: C6_7  and  C7_8 
REMARK    6  A    between atoms: C7_8  and  C8_9 
REMARK    7  A    between atoms: C8_9  and  O1_10 
REMARK    8  A    between atoms: C13_17  and  C14_18 
REMARK    9  A    between atoms: C16_20  and  O3_21 
REMARK   10  A    between atoms: O3_21  and  C17_22 
ROOT
HETATM    1  C9  UNL     1      27.190   7.785  49.184  1.00  0.00     0.163 A 
HETATM    2  C10 UNL     1      26.354   8.707  50.004  1.00  0.00     0.236 A 
HETATM    3  O2  UNL     1      26.573   9.955  50.196  1.00  0.00    -0.272 OA
HETATM    4  N2  UNL     1      25.228   8.070  50.598  1.00  0.00    -0.326 N 
HETATM    5  C11 UNL     1      25.340   6.705  50.202  1.00  0.00     0.043 A 
HETATM    6  C12 UNL     1      24.476   5.688  50.555  1.00  0.00     0.042 A 
HETATM    7  C13 UNL     1      24.694   4.399  50.129  1.00  0.00    -0.023 A 
HETATM    8  C23 UNL     1      25.814   4.146  49.328  1.00  0.00     0.013 A 
HETATM    9  C24 UNL     1      26.660   5.185  48.991  1.00  0.00     0.011 A 
HETATM   10  C25 UNL     1      26.452   6.490  49.413  1.00  0.00    -0.012 A 
HETATM   11  H16 UNL     1      24.496   8.518  51.187  1.00  0.00     0.169 HD
ENDROOT
BRANCH   1  12
HETATM   12  C3  UNL     1      27.179   8.150  47.758  1.00  0.00     0.028 C 
HETATM   13  C4  UNL     1      26.314   8.243  46.762  1.00  0.00    -0.060 C 
HETATM   14  C5  UNL     1      24.879   7.961  46.818  1.00  0.00     0.045 C 
BRANCH  12  15
HETATM   15  N1  UNL     1      28.562   8.469  47.514  1.00  0.00    -0.369 N 
HETATM   16  H4  UNL     1      28.973   9.259  46.937  1.00  0.00     0.165 HD
BRANCH  15  17
HETATM   17  C2  UNL     1      29.688   7.765  48.011  1.00  0.00     0.078 C 
HETATM   18  C1  UNL     1      30.013   6.623  47.447  1.00  0.00     0.029 C 
ENDBRANCH  15  17
ENDBRANCH  12  15
BRANCH  13  19
HETATM   19  C6  UNL     1      26.804   8.665  45.443  1.00  0.00     0.038 C 
BRANCH  19  20
HETATM   20  C7  UNL     1      25.895   9.557  44.672  1.00  0.00     0.030 C 
BRANCH  20  21
HETATM   21  C8  UNL     1      25.511   9.036  43.308  1.00  0.00     0.164 C 
BRANCH  21  22
HETATM   22  O1  UNL     1      25.091   7.731  43.287  1.00  0.00    -0.401 OA
HETATM   23  H14 UNL     1      25.730   7.195  43.850  1.00  0.00     0.209 HD
ENDBRANCH  21  22
ENDBRANCH  20  21
ENDBRANCH  19  20
ENDBRANCH  13  19
ENDBRANCH   1  12
BRANCH   7  24
HETATM   24  C14 UNL     1      23.884   3.217  50.413  1.00  0.00    -0.017 A 
HETATM   25  C15 UNL     1      24.106   2.559  51.625  1.00  0.00     0.049 A 
HETATM   26  C16 UNL     1      23.424   1.423  52.042  1.00  0.00     0.069 A 
HETATM   27  C19 UNL     1      22.471   0.950  51.164  1.00  0.00     0.037 A 
HETATM   28  C20 UNL     1      22.206   1.554  49.955  1.00  0.00     0.010 A 
HETATM   29  C21 UNL     1      22.913   2.680  49.591  1.00  0.00    -0.051 A 
HETATM   30  C22 UNL     1      22.655   3.361  48.299  1.00  0.00     0.049 C 
BRANCH  26  31
HETATM   31  O3  UNL     1      23.741   0.866  53.271  1.00  0.00    -0.351 OA
BRANCH  31  32
HETATM   32  C17 UNL     1      23.577  -0.496  53.532  1.00  0.00     0.171 C 
HETATM   33  C18 UNL     1      22.419  -0.827  54.427  1.00  0.00     0.034 C 
ENDBRANCH  31  32
ENDBRANCH  26  31
ENDBRANCH   7  24
TORSDOF 10
ENDMDL
MODEL 9
REMARK VINA RESULT:      -7.1      2.554      5.120
REMARK  10 active torsions:
REMARK  status: ('A' for Active; 'I' for Inactive)
REMARK    1  A    between atoms: C2_2  and  N1_3 
REMARK    2  A    between atoms: N1_3  and  C3_4 
REMARK    3  A    between atoms: C3_4  and  C9_11 
REMARK    4  A    between atoms: C4_5  and  C6_7 
REMARK    5  A    between atoms: C6_7  and  C7_8 
REMARK    6  A    between atoms: C7_8  and  C8_9 
REMARK    7  A    between atoms: C8_9  and  O1_10 
REMARK    8  A    between atoms: C13_17  and  C14_18 
REMARK    9  A    between atoms: C16_20  and  O3_21 
REMARK   10  A    between atoms: O3_21  and  C17_22 
ROOT
HETATM    1  C9  UNL     1      24.020   5.528  48.472  1.00  0.00     0.163 A 
HETATM    2  C10 UNL     1      25.150   6.248  49.124  1.00  0.00     0.236 A 
HETATM    3  O2  UNL     1      25.679   7.344  48.722  1.00  0.00    -0.272 OA
HETATM    4  N2  UNL     1      25.636   5.596  50.292  1.00  0.00    -0.326 N 
HETATM    5  C11 UNL     1      24.848   4.412  50.395  1.00  0.00     0.043 A 
HETATM    6  C12 UNL     1      24.968   3.444  51.372  1.00  0.00     0.042 A 
HETATM    7  C13 UNL     1      24.163   2.329  51.360  1.00  0.00    -0.023 A 
HETATM    8  C23 UNL     1      23.219   2.203  50.333  1.00  0.00     0.013 A 
HETATM    9  C24 UNL     1      23.123   3.190  49.370  1.00  0.00     0.011 A 
HETATM   10  C25 UNL     1      23.928   4.320  49.370  1.00  0.00    -0.012 A 
HETATM   11  H16 UNL     1      26.398   5.926  50.920  1.00  0.00     0.169 HD
ENDROOT
BRANCH   1  12
HETATM   12  C3  UNL     1      22.772   6.307  48.513  1.00  0.00     0.028 C 
HETATM   13  C4  UNL     1      21.979   6.868  49.409  1.00  0.00    -0.060 C 
HETATM   14  C5  UNL     1      22.160   6.870  50.862  1.00  0.00     0.045 C 
BRANCH  12  15
HETATM   15  N1  UNL     1      22.430   6.408  47.117  1.00  0.00    -0.369 N 
HETATM   16  H4  UNL     1      22.374   7.273  46.504  1.00  0.00     0.165 HD
BRANCH  15  17
HETATM   17  C2  UNL     1      22.088   5.336  46.255  1.00  0.00     0.078 C 
HETATM   18  C1  UNL     1      20.997   4.649  46.511  1.00  0.00     0.029 C 
ENDBRANCH  15  17
ENDBRANCH  12  15
BRANCH  13  19
HETATM   19  C6  UNL     1      20.776   7.571  48.942  1.00  0.00     0.038 C 
BRANCH  19  20
HETATM   20  C7  UNL     1      20.650   8.991  49.370  1.00  0.00     0.030 C 
BRANCH  20  21
HETATM   21  C8  UNL     1      19.335   9.335  50.028  1.00  0.00     0.164 C 
BRANCH  21  22
HETATM   22  O1  UNL     1      18.242   9.262  49.203  1.00  0.00    -0.401 OA
HETATM   23  H14 UNL     1      17.456   9.644  49.703  1.00  0.00     0.209 HD
ENDBRANCH  21  22
ENDBRANCH  20  21
ENDBRANCH  19  20
ENDBRANCH  13  19
ENDBRANCH   1  12
BRANCH   7  24
HETATM   24  C14 UNL     1      24.163   1.219  52.310  1.00  0.00    -0.017 A 
HETATM   25  C15 UNL     1      22.975   0.958  52.996  1.00  0.00     0.049 A 
HETATM   26  C16 UNL     1      22.811  -0.057  53.930  1.00  0.00     0.069 A 
HETATM   27  C19 UNL     1      23.927  -0.833  54.162  1.00  0.00     0.037 A 
HETATM   28  C20 UNL     1      25.126  -0.626  53.518  1.00  0.00     0.010 A 
HETATM   29  C21 UNL     1      25.234   0.397  52.599  1.00  0.00    -0.051 A 
HETATM   30  C22 UNL     1      26.507   0.650  51.882  1.00  0.00     0.049 C 
BRANCH  26  31
HETATM   31  O3  UNL     1      21.576  -0.209  54.542  1.00  0.00    -0.351 OA
BRANCH  31  32
HETATM   32  C17 UNL     1      20.633  -1.134  54.088  1.00  0.00     0.171 C 
HETATM   33  C18 UNL     1      19.512  -0.543  53.285  1.00  0.00     0.034 C 
ENDBRANCH  31  32
ENDBRANCH  26  31
ENDBRANCH   7  24
TORSDOF 10
ENDMDL
