MODEL 1
REMARK VINA RESULT:      -8.1      0.000      0.000
REMARK  4 active torsions:
REMARK  status: ('A' for Active; 'I' for Inactive)
REMARK    1  A    between atoms: C6_7  and  C7_8 
REMARK    2  A    between atoms: C7_8  and  C8_9 
REMARK    3  A    between atoms: C8_9  and  C9_10 
REMARK    4  A    between atoms: C10_13  and  S1_14 
ROOT
HETATM    1  C9  UNL     1      23.888   1.413  52.502  1.00  0.00     0.041 A 
HETATM    2  N1  UNL     1      22.699   1.120  52.652  1.00  0.00    -0.289 N 
HETATM    3  N2  UNL     1      21.591   1.778  52.287  1.00  0.00    -0.316 N 
HETATM    4  C10 UNL     1      20.298   1.394  51.797  1.00  0.00     0.180 C 
HETATM    5  C11 UNL     1      19.691   0.324  52.582  1.00  0.00     0.010 C 
HETATM    6  C12 UNL     1      19.680  -0.715  53.440  1.00  0.00    -0.001 C 
HETATM    7  C13 UNL     1      20.611  -1.495  54.236  1.00  0.00    -0.004 C 
HETATM    8  C14 UNL     1      21.966  -1.381  54.369  1.00  0.00    -0.019 C 
HETATM    9  C15 UNL     1      23.326  -0.822  54.144  1.00  0.00     0.049 C 
HETATM   10  C16 UNL     1      23.809   0.219  53.410  1.00  0.00     0.163 A 
HETATM   11  H7  UNL     1      21.762   2.813  52.410  1.00  0.00     0.182 HD
ENDROOT
BRANCH   1  12
HETATM   12  C8  UNL     1      25.222   1.853  52.271  1.00  0.00     0.072 C 
BRANCH  12  13
HETATM   13  C7  UNL     1      26.485   2.131  52.255  1.00  0.00    -0.001 C 
BRANCH  13  14
HETATM   14  C6  UNL     1      27.367   1.083  52.731  1.00  0.00    -0.001 A 
HETATM   15  C1  UNL     1      28.500   1.460  53.415  1.00  0.00     0.126 A 
HETATM   16  F1  UNL     1      28.680   2.806  53.600  1.00  0.00    -0.205 F 
HETATM   17  C2  UNL     1      29.437   0.590  53.916  1.00  0.00     0.043 A 
HETATM   18  C3  UNL     1      29.267  -0.783  53.739  1.00  0.00     0.003 A 
HETATM   19  C4  UNL     1      28.157  -1.208  53.065  1.00  0.00     0.001 A 
HETATM   20  C5  UNL     1      27.277  -0.276  52.601  1.00  0.00     0.014 A 
ENDBRANCH  13  14
ENDBRANCH  12  13
ENDBRANCH   1  12
BRANCH   4  21
HETATM   21  S1  UNL     1      19.214   2.842  51.614  1.00  0.00    -0.152 SA
HETATM   22  H9  UNL     1      19.234   3.308  50.289  1.00  0.00     0.104 HD
ENDBRANCH   4  21
TORSDOF 4
ENDMDL
MODEL 2
REMARK VINA RESULT:      -7.7      2.906      4.677
REMARK  4 active torsions:
REMARK  status: ('A' for Active; 'I' for Inactive)
REMARK    1  A    between atoms: C6_7  and  C7_8 
REMARK    2  A    between atoms: C7_8  and  C8_9 
REMARK    3  A    between atoms: C8_9  and  C9_10 
REMARK    4  A    between atoms: C10_13  and  S1_14 
ROOT
HETATM    1  C9  UNL     1      24.490   1.430  51.819  1.00  0.00     0.041 A 
HETATM    2  N1  UNL     1      24.149   2.329  51.045  1.00  0.00    -0.289 N 
HETATM    3  N2  UNL     1      22.943   2.634  50.549  1.00  0.00    -0.316 N 
HETATM    4  C10 UNL     1      22.257   3.854  50.230  1.00  0.00     0.180 C 
HETATM    5  C11 UNL     1      23.076   4.774  49.448  1.00  0.00     0.010 C 
HETATM    6  C12 UNL     1      24.223   5.285  48.959  1.00  0.00    -0.001 C 
HETATM    7  C13 UNL     1      25.655   5.048  49.035  1.00  0.00    -0.004 C 
HETATM    8  C14 UNL     1      26.354   4.095  49.720  1.00  0.00    -0.019 C 
HETATM    9  C15 UNL     1      26.568   2.920  50.606  1.00  0.00     0.049 C 
HETATM   10  C16 UNL     1      25.731   2.081  51.279  1.00  0.00     0.163 A 
HETATM   11  H7  UNL     1      22.419   1.735  50.368  1.00  0.00     0.182 HD
ENDROOT
BRANCH   1  12
HETATM   12  C8  UNL     1      24.765   0.360  52.717  1.00  0.00     0.072 C 
BRANCH  12  13
HETATM   13  C7  UNL     1      25.239  -0.557  53.496  1.00  0.00    -0.001 C 
BRANCH  13  14
HETATM   14  C6  UNL     1      26.674  -0.526  53.705  1.00  0.00    -0.001 A 
HETATM   15  C1  UNL     1      27.445  -1.423  53.002  1.00  0.00     0.126 A 
HETATM   16  F1  UNL     1      26.777  -2.259  52.146  1.00  0.00    -0.205 F 
HETATM   17  C2  UNL     1      28.810  -1.526  53.100  1.00  0.00     0.043 A 
HETATM   18  C3  UNL     1      29.505  -0.680  53.964  1.00  0.00     0.003 A 
HETATM   19  C4  UNL     1      28.785   0.229  54.686  1.00  0.00     0.001 A 
HETATM   20  C5  UNL     1      27.431   0.264  54.527  1.00  0.00     0.014 A 
ENDBRANCH  13  14
ENDBRANCH  12  13
ENDBRANCH   1  12
BRANCH   4  21
HETATM   21  S1  UNL     1      20.644   3.512  49.462  1.00  0.00    -0.152 SA
HETATM   22  H9  UNL     1      20.476   4.291  48.305  1.00  0.00     0.104 HD
ENDBRANCH   4  21
TORSDOF 4
ENDMDL
MODEL 3
REMARK VINA RESULT:      -7.6      3.455      5.519
REMARK  4 active torsions:
REMARK  status: ('A' for Active; 'I' for Inactive)
REMARK    1  A    between atoms: C6_7  and  C7_8 
REMARK    2  A    between atoms: C7_8  and  C8_9 
REMARK    3  A    between atoms: C8_9  and  C9_10 
REMARK    4  A    between atoms: C10_13  and  S1_14 
ROOT
HETATM    1  C9  UNL     1      25.109   2.556  51.373  1.00  0.00     0.041 A 
HETATM    2  N1  UNL     1      24.893   3.666  50.880  1.00  0.00    -0.289 N 
HETATM    3  N2  UNL     1      23.813   4.455  50.962  1.00  0.00    -0.316 N 
HETATM    4  C10 UNL     1      23.597   5.871  51.049  1.00  0.00     0.180 C 
HETATM    5  C11 UNL     1      24.366   6.622  50.063  1.00  0.00     0.010 C 
HETATM    6  C12 UNL     1      25.358   6.823  49.173  1.00  0.00    -0.001 C 
HETATM    7  C13 UNL     1      26.502   6.117  48.621  1.00  0.00    -0.004 C 
HETATM    8  C14 UNL     1      26.967   4.859  48.878  1.00  0.00    -0.019 C 
HETATM    9  C15 UNL     1      27.009   3.511  49.506  1.00  0.00     0.049 C 
HETATM   10  C16 UNL     1      26.217   2.865  50.407  1.00  0.00     0.163 A 
HETATM   11  H7  UNL     1      22.952   3.844  50.956  1.00  0.00     0.182 HD
ENDROOT
BRANCH   1  12
HETATM   12  C8  UNL     1      25.247   1.281  51.993  1.00  0.00     0.072 C 
BRANCH  12  13
HETATM   13  C7  UNL     1      25.590   0.196  52.607  1.00  0.00    -0.001 C 
BRANCH  13  14
HETATM   14  C6  UNL     1      26.988   0.095  52.978  1.00  0.00    -0.001 A 
HETATM   15  C1  UNL     1      27.604  -1.127  52.835  1.00  0.00     0.126 A 
HETATM   16  F1  UNL     1      26.831  -2.142  52.334  1.00  0.00    -0.205 F 
HETATM   17  C2  UNL     1      28.913  -1.385  53.154  1.00  0.00     0.043 A 
HETATM   18  C3  UNL     1      29.714  -0.362  53.662  1.00  0.00     0.003 A 
HETATM   19  C4  UNL     1      29.149   0.872  53.822  1.00  0.00     0.001 A 
HETATM   20  C5  UNL     1      27.840   1.041  53.480  1.00  0.00     0.014 A 
ENDBRANCH  13  14
ENDBRANCH  12  13
ENDBRANCH   1  12
BRANCH   4  21
HETATM   21  S1  UNL     1      21.822   6.262  51.011  1.00  0.00    -0.152 SA
HETATM   22  H9  UNL     1      21.289   6.007  49.736  1.00  0.00     0.104 HD
ENDBRANCH   4  21
TORSDOF 4
ENDMDL
MODEL 4
REMARK VINA RESULT:      -7.6      4.709      6.297
REMARK  4 active torsions:
REMARK  status: ('A' for Active; 'I' for Inactive)
REMARK    1  A    between atoms: C6_7  and  C7_8 
REMARK    2  A    between atoms: C7_8  and  C8_9 
REMARK    3  A    between atoms: C8_9  and  C9_10 
REMARK    4  A    between atoms: C10_13  and  S1_14 
ROOT
HETATM    1  C9  UNL     1      25.604   2.707  51.073  1.00  0.00     0.041 A 
HETATM    2  N1  UNL     1      25.845   1.882  51.958  1.00  0.00    -0.289 N 
HETATM    3  N2  UNL     1      27.011   1.502  52.496  1.00  0.00    -0.316 N 
HETATM    4  C10 UNL     1      27.448   1.131  53.812  1.00  0.00     0.180 C 
HETATM    5  C11 UNL     1      26.566   0.158  54.446  1.00  0.00     0.010 C 
HETATM    6  C12 UNL     1      25.416  -0.520  54.631  1.00  0.00    -0.001 C 
HETATM    7  C13 UNL     1      24.076  -0.589  54.072  1.00  0.00    -0.004 C 
HETATM    8  C14 UNL     1      23.515   0.111  53.041  1.00  0.00    -0.019 C 
HETATM    9  C15 UNL     1      23.443   1.093  51.927  1.00  0.00     0.049 C 
HETATM   10  C16 UNL     1      24.339   1.952  51.367  1.00  0.00     0.163 A 
HETATM   11  H7  UNL     1      27.742   1.489  51.733  1.00  0.00     0.182 HD
ENDROOT
BRANCH   1  12
HETATM   12  C8  UNL     1      25.449   3.682  50.046  1.00  0.00     0.072 C 
BRANCH  12  13
HETATM   13  C7  UNL     1      25.302   4.721  49.290  1.00  0.00    -0.001 C 
BRANCH  13  14
HETATM   14  C6  UNL     1      26.528   5.324  48.803  1.00  0.00    -0.001 A 
HETATM   15  C1  UNL     1      26.472   6.627  48.364  1.00  0.00     0.126 A 
HETATM   16  F1  UNL     1      25.251   7.244  48.446  1.00  0.00    -0.205 F 
HETATM   17  C2  UNL     1      27.538   7.330  47.863  1.00  0.00     0.043 A 
HETATM   18  C3  UNL     1      28.789   6.717  47.777  1.00  0.00     0.003 A 
HETATM   19  C4  UNL     1      28.897   5.424  48.201  1.00  0.00     0.001 A 
HETATM   20  C5  UNL     1      27.786   4.799  48.685  1.00  0.00     0.014 A 
ENDBRANCH  13  14
ENDBRANCH  12  13
ENDBRANCH   1  12
BRANCH   4  21
HETATM   21  S1  UNL     1      29.189   0.605  53.795  1.00  0.00    -0.152 SA
HETATM   22  H9  UNL     1      29.291  -0.767  54.079  1.00  0.00     0.104 HD
ENDBRANCH   4  21
TORSDOF 4
ENDMDL
MODEL 5
REMARK VINA RESULT:      -7.3      3.613      6.610
REMARK  4 active torsions:
REMARK  status: ('A' for Active; 'I' for Inactive)
REMARK    1  A    between atoms: C6_7  and  C7_8 
REMARK    2  A    between atoms: C7_8  and  C8_9 
REMARK    3  A    between atoms: C8_9  and  C9_10 
REMARK    4  A    between atoms: C10_13  and  S1_14 
ROOT
HETATM    1  C9  UNL     1      24.635   3.008  51.328  1.00  0.00     0.041 A 
HETATM    2  N1  UNL     1      24.637   4.119  50.793  1.00  0.00    -0.289 N 
HETATM    3  N2  UNL     1      23.707   5.083  50.794  1.00  0.00    -0.316 N 
HETATM    4  C10 UNL     1      23.734   6.518  50.829  1.00  0.00     0.180 C 
HETATM    5  C11 UNL     1      24.666   7.089  49.863  1.00  0.00     0.010 C 
HETATM    6  C12 UNL     1      25.719   7.085  49.022  1.00  0.00    -0.001 C 
HETATM    7  C13 UNL     1      26.749   6.174  48.553  1.00  0.00    -0.004 C 
HETATM    8  C14 UNL     1      26.978   4.865  48.870  1.00  0.00    -0.019 C 
HETATM    9  C15 UNL     1      26.757   3.555  49.537  1.00  0.00     0.049 C 
HETATM   10  C16 UNL     1      25.825   3.088  50.414  1.00  0.00     0.163 A 
HETATM   11  H7  UNL     1      22.754   4.628  50.760  1.00  0.00     0.182 HD
ENDROOT
BRANCH   1  12
HETATM   12  C8  UNL     1      24.522   1.753  51.990  1.00  0.00     0.072 C 
BRANCH  12  13
HETATM   13  C7  UNL     1      24.645   0.584  52.533  1.00  0.00    -0.001 C 
BRANCH  13  14
HETATM   14  C6  UNL     1      23.443   0.038  53.132  1.00  0.00    -0.001 A 
HETATM   15  C1  UNL     1      23.580  -0.713  54.277  1.00  0.00     0.126 A 
HETATM   16  F1  UNL     1      24.855  -0.859  54.759  1.00  0.00    -0.205 F 
HETATM   17  C2  UNL     1      22.544  -1.306  54.952  1.00  0.00     0.043 A 
HETATM   18  C3  UNL     1      21.240  -1.164  54.477  1.00  0.00     0.003 A 
HETATM   19  C4  UNL     1      21.050  -0.427  53.342  1.00  0.00     0.001 A 
HETATM   20  C5  UNL     1      22.136   0.128  52.734  1.00  0.00     0.014 A 
ENDBRANCH  13  14
ENDBRANCH  12  13
ENDBRANCH   1  12
BRANCH   4  21
HETATM   21  S1  UNL     1      22.056   7.204  50.685  1.00  0.00    -0.152 SA
HETATM   22  H9  UNL     1      21.955   8.025  49.550  1.00  0.00     0.104 HD
ENDBRANCH   4  21
TORSDOF 4
ENDMDL
MODEL 6
REMARK VINA RESULT:      -7.3      4.243      5.756
REMARK  4 active torsions:
REMARK  status: ('A' for Active; 'I' for Inactive)
REMARK    1  A    between atoms: C6_7  and  C7_8 
REMARK    2  A    between atoms: C7_8  and  C8_9 
REMARK    3  A    between atoms: C8_9  and  C9_10 
REMARK    4  A    between atoms: C10_13  and  S1_14 
ROOT
HETATM    1  C9  UNL     1      24.858   3.313  50.498  1.00  0.00     0.041 A 
HETATM    2  N1  UNL     1      24.490   2.425  51.271  1.00  0.00    -0.289 N 
HETATM    3  N2  UNL     1      23.282   2.176  51.795  1.00  0.00    -0.316 N 
HETATM    4  C10 UNL     1      22.542   0.990  52.118  1.00  0.00     0.180 C 
HETATM    5  C11 UNL     1      23.331   0.019  52.869  1.00  0.00     0.010 C 
HETATM    6  C12 UNL     1      24.461  -0.556  53.324  1.00  0.00    -0.001 C 
HETATM    7  C13 UNL     1      25.901  -0.393  53.215  1.00  0.00    -0.004 C 
HETATM    8  C14 UNL     1      26.632   0.531  52.522  1.00  0.00    -0.019 C 
HETATM    9  C15 UNL     1      26.885   1.704  51.643  1.00  0.00     0.049 C 
HETATM   10  C16 UNL     1      26.077   2.593  51.000  1.00  0.00     0.163 A 
HETATM   11  H7  UNL     1      22.810   3.099  51.998  1.00  0.00     0.182 HD
ENDROOT
BRANCH   1  12
HETATM   12  C8  UNL     1      25.166   4.378  49.605  1.00  0.00     0.072 C 
BRANCH  12  13
HETATM   13  C7  UNL     1      25.340   5.482  48.954  1.00  0.00    -0.001 C 
BRANCH  13  14
HETATM   14  C6  UNL     1      26.706   5.775  48.564  1.00  0.00    -0.001 A 
HETATM   15  C1  UNL     1      26.968   7.014  48.024  1.00  0.00     0.126 A 
HETATM   16  F1  UNL     1      25.903   7.870  47.922  1.00  0.00    -0.205 F 
HETATM   17  C2  UNL     1      28.202   7.435  47.596  1.00  0.00     0.043 A 
HETATM   18  C3  UNL     1      29.297   6.577  47.697  1.00  0.00     0.003 A 
HETATM   19  C4  UNL     1      29.089   5.335  48.226  1.00  0.00     0.001 A 
HETATM   20  C5  UNL     1      27.830   4.997  48.627  1.00  0.00     0.014 A 
ENDBRANCH  13  14
ENDBRANCH  12  13
ENDBRANCH   1  12
BRANCH   4  21
HETATM   21  S1  UNL     1      20.969   1.405  52.930  1.00  0.00    -0.152 SA
HETATM   22  H9  UNL     1      20.160   2.171  52.073  1.00  0.00     0.104 HD
ENDBRANCH   4  21
TORSDOF 4
ENDMDL
MODEL 7
REMARK VINA RESULT:      -7.3      2.584      3.632
REMARK  4 active torsions:
REMARK  status: ('A' for Active; 'I' for Inactive)
REMARK    1  A    between atoms: C6_7  and  C7_8 
REMARK    2  A    between atoms: C7_8  and  C8_9 
REMARK    3  A    between atoms: C8_9  and  C9_10 
REMARK    4  A    between atoms: C10_13  and  S1_14 
ROOT
HETATM    1  C9  UNL     1      23.707   1.475  52.831  1.00  0.00     0.041 A 
HETATM    2  N1  UNL     1      23.066   2.444  52.416  1.00  0.00    -0.289 N 
HETATM    3  N2  UNL     1      23.476   3.672  52.071  1.00  0.00    -0.316 N 
HETATM    4  C10 UNL     1      23.104   4.618  51.058  1.00  0.00     0.180 C 
HETATM    5  C11 UNL     1      21.661   4.817  50.974  1.00  0.00     0.010 C 
HETATM    6  C12 UNL     1      20.365   4.501  51.162  1.00  0.00    -0.001 C 
HETATM    7  C13 UNL     1      19.564   3.434  51.739  1.00  0.00    -0.004 C 
HETATM    8  C14 UNL     1      19.951   2.276  52.352  1.00  0.00    -0.019 C 
HETATM    9  C15 UNL     1      20.887   1.254  52.892  1.00  0.00     0.049 C 
HETATM   10  C16 UNL     1      22.244   1.161  52.963  1.00  0.00     0.163 A 
HETATM   11  H7  UNL     1      24.251   3.962  52.728  1.00  0.00     0.182 HD
ENDROOT
BRANCH   1  12
HETATM   12  C8  UNL     1      24.549   0.427  53.301  1.00  0.00     0.072 C 
BRANCH  12  13
HETATM   13  C7  UNL     1      25.201  -0.658  53.569  1.00  0.00    -0.001 C 
BRANCH  13  14
HETATM   14  C6  UNL     1      26.630  -0.504  53.757  1.00  0.00    -0.001 A 
HETATM   15  C1  UNL     1      27.465  -1.343  53.055  1.00  0.00     0.126 A 
HETATM   16  F1  UNL     1      26.858  -2.244  52.220  1.00  0.00    -0.205 F 
HETATM   17  C2  UNL     1      28.834  -1.331  53.135  1.00  0.00     0.043 A 
HETATM   18  C3  UNL     1      29.468  -0.417  53.978  1.00  0.00     0.003 A 
HETATM   19  C4  UNL     1      28.683   0.439  54.697  1.00  0.00     0.001 A 
HETATM   20  C5  UNL     1      27.329   0.359  54.558  1.00  0.00     0.014 A 
ENDBRANCH  13  14
ENDBRANCH  12  13
ENDBRANCH   1  12
BRANCH   4  21
HETATM   21  S1  UNL     1      24.024   6.174  51.251  1.00  0.00    -0.152 SA
HETATM   22  H9  UNL     1      23.550   6.891  52.363  1.00  0.00     0.104 HD
ENDBRANCH   4  21
TORSDOF 4
ENDMDL
MODEL 8
REMARK VINA RESULT:      -7.2      4.691      6.577
REMARK  4 active torsions:
REMARK  status: ('A' for Active; 'I' for Inactive)
REMARK    1  A    between atoms: C6_7  and  C7_8 
REMARK    2  A    between atoms: C7_8  and  C8_9 
REMARK    3  A    between atoms: C8_9  and  C9_10 
REMARK    4  A    between atoms: C10_13  and  S1_14 
ROOT
HETATM    1  C9  UNL     1      26.426   2.488  50.878  1.00  0.00     0.041 A 
HETATM    2  N1  UNL     1      26.397   1.648  51.781  1.00  0.00    -0.289 N 
HETATM    3  N2  UNL     1      27.395   0.990  52.387  1.00  0.00    -0.316 N 
HETATM    4  C10 UNL     1      27.651   0.547  53.727  1.00  0.00     0.180 C 
HETATM    5  C11 UNL     1      26.514  -0.151  54.318  1.00  0.00     0.010 C 
HETATM    6  C12 UNL     1      25.220  -0.504  54.443  1.00  0.00    -0.001 C 
HETATM    7  C13 UNL     1      23.939  -0.236  53.810  1.00  0.00    -0.004 C 
HETATM    8  C14 UNL     1      23.634   0.563  52.744  1.00  0.00    -0.019 C 
HETATM    9  C15 UNL     1      23.878   1.506  51.621  1.00  0.00     0.049 C 
HETATM   10  C16 UNL     1      24.995   2.092  51.106  1.00  0.00     0.163 A 
HETATM   11  H7  UNL     1      28.136   0.772  51.666  1.00  0.00     0.182 HD
ENDROOT
BRANCH   1  12
HETATM   12  C8  UNL     1      26.583   3.446  49.837  1.00  0.00     0.072 C 
BRANCH  12  13
HETATM   13  C7  UNL     1      26.901   4.400  49.024  1.00  0.00    -0.001 C 
BRANCH  13  14
HETATM   14  C6  UNL     1      26.341   5.702  49.328  1.00  0.00    -0.001 A 
HETATM   15  C1  UNL     1      26.872   6.797  48.683  1.00  0.00     0.126 A 
HETATM   16  F1  UNL     1      27.880   6.545  47.790  1.00  0.00    -0.205 F 
HETATM   17  C2  UNL     1      26.460   8.092  48.873  1.00  0.00     0.043 A 
HETATM   18  C3  UNL     1      25.433   8.364  49.777  1.00  0.00     0.003 A 
HETATM   19  C4  UNL     1      24.873   7.311  50.443  1.00  0.00     0.001 A 
HETATM   20  C5  UNL     1      25.342   6.055  50.194  1.00  0.00     0.014 A 
ENDBRANCH  13  14
ENDBRANCH  12  13
ENDBRANCH   1  12
BRANCH   4  21
HETATM   21  S1  UNL     1      29.194  -0.412  53.813  1.00  0.00    -0.152 SA
HETATM   22  H9  UNL     1      29.559  -0.871  52.536  1.00  0.00     0.104 HD
ENDBRANCH   4  21
TORSDOF 4
ENDMDL
MODEL 9
REMARK VINA RESULT:      -7.2      5.161      7.233
REMARK  4 active torsions:
REMARK  status: ('A' for Active; 'I' for Inactive)
REMARK    1  A    between atoms: C6_7  and  C7_8 
REMARK    2  A    between atoms: C7_8  and  C8_9 
REMARK    3  A    between atoms: C8_9  and  C9_10 
REMARK    4  A    between atoms: C10_13  and  S1_14 
ROOT
HETATM    1  C9  UNL     1      26.259   4.066  50.013  1.00  0.00     0.041 A 
HETATM    2  N1  UNL     1      26.184   5.125  49.385  1.00  0.00    -0.289 N 
HETATM    3  N2  UNL     1      27.071   6.119  49.251  1.00  0.00    -0.316 N 
HETATM    4  C10 UNL     1      27.451   7.002  48.185  1.00  0.00     0.180 C 
HETATM    5  C11 UNL     1      26.304   7.618  47.526  1.00  0.00     0.010 C 
HETATM    6  C12 UNL     1      25.010   7.735  47.169  1.00  0.00    -0.001 C 
HETATM    7  C13 UNL     1      23.748   7.040  47.358  1.00  0.00    -0.004 C 
HETATM    8  C14 UNL     1      23.467   5.903  48.062  1.00  0.00    -0.019 C 
HETATM    9  C15 UNL     1      23.731   4.720  48.923  1.00  0.00     0.049 C 
HETATM   10  C16 UNL     1      24.844   4.229  49.536  1.00  0.00     0.163 A 
HETATM   11  H7  UNL     1      27.580   6.238  50.169  1.00  0.00     0.182 HD
ENDROOT
BRANCH   1  12
HETATM   12  C8  UNL     1      26.461   2.877  50.770  1.00  0.00     0.072 C 
BRANCH  12  13
HETATM   13  C7  UNL     1      26.657   1.691  51.249  1.00  0.00    -0.001 C 
BRANCH  13  14
HETATM   14  C6  UNL     1      25.549   1.119  51.988  1.00  0.00    -0.001 A 
HETATM   15  C1  UNL     1      25.796   0.001  52.753  1.00  0.00     0.126 A 
HETATM   16  F1  UNL     1      27.087  -0.460  52.756  1.00  0.00    -0.205 F 
HETATM   17  C2  UNL     1      24.853  -0.662  53.496  1.00  0.00     0.043 A 
HETATM   18  C3  UNL     1      23.536  -0.204  53.507  1.00  0.00     0.003 A 
HETATM   19  C4  UNL     1      23.239   0.903  52.764  1.00  0.00     0.001 A 
HETATM   20  C5  UNL     1      24.237   1.502  52.053  1.00  0.00     0.014 A 
ENDBRANCH  13  14
ENDBRANCH  12  13
ENDBRANCH   1  12
BRANCH   4  21
HETATM   21  S1  UNL     1      28.678   8.218  48.754  1.00  0.00    -0.152 SA
HETATM   22  H9  UNL     1      29.906   8.020  48.101  1.00  0.00     0.104 HD
ENDBRANCH   4  21
TORSDOF 4
ENDMDL
