MODEL 1
REMARK VINA RESULT:      -8.4      0.000      0.000
REMARK  3 active torsions:
REMARK  status: ('A' for Active; 'I' for Inactive)
REMARK    1  A    between atoms: C1_2  and  O1_3 
REMARK    2  A    between atoms: O1_3  and  N1_4 
REMARK    3  A    between atoms: N1_4  and  C2_5 
ROOT
HETATM    1 CL1  UNL     1      21.683   2.764  52.082  1.00  0.00    -0.052 Cl
HETATM    2  C1  UNL     1      23.322   3.323  52.315  1.00  0.00     0.192 C 
HETATM    3  C8  UNL     1      24.189   2.409  52.784  1.00  0.00     0.078 C 
HETATM    4  C9  UNL     1      23.639   1.056  53.040  1.00  0.00     0.236 C 
HETATM    5  O2  UNL     1      24.569   0.076  52.614  1.00  0.00    -0.345 OA
HETATM    6  C10 UNL     1      25.911  -0.066  52.944  1.00  0.00     0.077 A 
HETATM    7  C11 UNL     1      26.334  -1.362  52.639  1.00  0.00     0.039 A 
HETATM    8  C12 UNL     1      27.642  -1.727  52.888  1.00  0.00     0.026 A 
HETATM    9  C13 UNL     1      28.545  -0.820  53.438  1.00  0.00     0.034 A 
HETATM   10 CL2  UNL     1      30.220  -1.226  53.776  1.00  0.00    -0.084 Cl
HETATM   11  C14 UNL     1      28.109   0.470  53.738  1.00  0.00     0.035 A 
HETATM   12  C15 UNL     1      26.789   0.854  53.493  1.00  0.00    -0.006 A 
HETATM   13  C16 UNL     1      26.532   2.269  53.883  1.00  0.00     0.161 C 
HETATM   14  N2  UNL     1      25.545   2.833  52.988  1.00  0.00    -0.384 N 
HETATM   15  H13 UNL     1      25.819   3.668  52.386  1.00  0.00     0.159 HD
ENDROOT
BRANCH   2  16
HETATM   16  O1  UNL     1      23.814   4.595  52.068  1.00  0.00    -0.223 OA
BRANCH  16  17
HETATM   17  N1  UNL     1      24.119   5.097  50.847  1.00  0.00    -0.260 N 
HETATM   18  H1  UNL     1      23.176   5.400  50.534  1.00  0.00     0.195 HD
BRANCH  17  19
HETATM   19  C2  UNL     1      25.284   5.254  50.063  1.00  0.00     0.056 A 
HETATM   20  C3  UNL     1      25.990   4.137  49.718  1.00  0.00     0.031 A 
HETATM   21  C4  UNL     1      27.121   4.349  48.950  1.00  0.00     0.004 A 
HETATM   22  C5  UNL     1      27.546   5.601  48.535  1.00  0.00     0.019 A 
HETATM   23  C6  UNL     1      26.794   6.701  48.913  1.00  0.00     0.013 A 
HETATM   24 BR1  UNL     1      27.429   8.379  48.314  1.00  0.00    -0.051 Br
HETATM   25  C7  UNL     1      25.651   6.537  49.683  1.00  0.00     0.050 A 
ENDBRANCH  17  19
ENDBRANCH  16  17
ENDBRANCH   2  16
TORSDOF 3
ENDMDL
MODEL 2
REMARK VINA RESULT:      -7.9      2.559      4.600
REMARK  3 active torsions:
REMARK  status: ('A' for Active; 'I' for Inactive)
REMARK    1  A    between atoms: C1_2  and  O1_3 
REMARK    2  A    between atoms: O1_3  and  N1_4 
REMARK    3  A    between atoms: N1_4  and  C2_5 
ROOT
HETATM    1 CL1  UNL     1      27.099   2.421  51.853  1.00  0.00    -0.052 Cl
HETATM    2  C1  UNL     1      25.479   2.780  51.303  1.00  0.00     0.192 C 
HETATM    3  C8  UNL     1      24.548   1.851  51.586  1.00  0.00     0.078 C 
HETATM    4  C9  UNL     1      25.020   0.654  52.322  1.00  0.00     0.236 C 
HETATM    5  O2  UNL     1      24.065   0.291  53.302  1.00  0.00    -0.345 OA
HETATM    6  C10 UNL     1      22.704   0.052  53.161  1.00  0.00     0.077 A 
HETATM    7  C11 UNL     1      22.235  -0.658  54.268  1.00  0.00     0.039 A 
HETATM    8  C12 UNL     1      20.900  -1.005  54.337  1.00  0.00     0.026 A 
HETATM    9  C13 UNL     1      20.018  -0.659  53.317  1.00  0.00     0.034 A 
HETATM   10 CL2  UNL     1      18.310  -1.073  53.349  1.00  0.00    -0.084 Cl
HETATM   11  C14 UNL     1      20.500   0.049  52.217  1.00  0.00     0.035 A 
HETATM   12  C15 UNL     1      21.846   0.408  52.133  1.00  0.00    -0.006 A 
HETATM   13  C16 UNL     1      22.153   1.157  50.881  1.00  0.00     0.161 C 
HETATM   14  N2  UNL     1      23.206   2.112  51.149  1.00  0.00    -0.384 N 
HETATM   15  H13 UNL     1      23.000   3.149  51.019  1.00  0.00     0.159 HD
ENDROOT
BRANCH   2  16
HETATM   16  O1  UNL     1      25.060   3.908  50.616  1.00  0.00    -0.223 OA
BRANCH  16  17
HETATM   17  N1  UNL     1      25.551   4.332  49.426  1.00  0.00    -0.260 N 
HETATM   18  H1  UNL     1      24.973   3.762  48.778  1.00  0.00     0.195 HD
BRANCH  17  19
HETATM   19  C2  UNL     1      26.535   5.246  48.988  1.00  0.00     0.056 A 
HETATM   20  C3  UNL     1      27.763   4.762  48.641  1.00  0.00     0.031 A 
HETATM   21  C4  UNL     1      28.688   5.701  48.219  1.00  0.00     0.004 A 
HETATM   22  C5  UNL     1      28.423   7.059  48.140  1.00  0.00     0.019 A 
HETATM   23  C6  UNL     1      27.161   7.498  48.504  1.00  0.00     0.013 A 
HETATM   24 BR1  UNL     1      26.866   9.362  48.372  1.00  0.00    -0.051 Br
HETATM   25  C7  UNL     1      26.201   6.592  48.933  1.00  0.00     0.050 A 
ENDBRANCH  17  19
ENDBRANCH  16  17
ENDBRANCH   2  16
TORSDOF 3
ENDMDL
MODEL 3
REMARK VINA RESULT:      -7.9      4.361      7.476
REMARK  3 active torsions:
REMARK  status: ('A' for Active; 'I' for Inactive)
REMARK    1  A    between atoms: C1_2  and  O1_3 
REMARK    2  A    between atoms: O1_3  and  N1_4 
REMARK    3  A    between atoms: N1_4  and  C2_5 
ROOT
HETATM    1 CL1  UNL     1      21.870   4.038  52.120  1.00  0.00    -0.052 Cl
HETATM    2  C1  UNL     1      23.462   3.339  51.938  1.00  0.00     0.192 C 
HETATM    3  C8  UNL     1      24.223   3.868  50.963  1.00  0.00     0.078 C 
HETATM    4  C9  UNL     1      23.611   4.967  50.178  1.00  0.00     0.236 C 
HETATM    5  O2  UNL     1      24.577   5.974  49.937  1.00  0.00    -0.345 OA
HETATM    6  C10 UNL     1      25.844   5.863  49.381  1.00  0.00     0.077 A 
HETATM    7  C11 UNL     1      26.283   7.121  48.960  1.00  0.00     0.039 A 
HETATM    8  C12 UNL     1      27.527   7.245  48.373  1.00  0.00     0.026 A 
HETATM    9  C13 UNL     1      28.348   6.134  48.194  1.00  0.00     0.034 A 
HETATM   10 CL2  UNL     1      29.938   6.231  47.454  1.00  0.00    -0.084 Cl
HETATM   11  C14 UNL     1      27.896   4.885  48.618  1.00  0.00     0.035 A 
HETATM   12  C15 UNL     1      26.642   4.743  49.213  1.00  0.00    -0.006 A 
HETATM   13  C16 UNL     1      26.354   3.330  49.591  1.00  0.00     0.161 C 
HETATM   14  N2  UNL     1      25.536   3.319  50.785  1.00  0.00    -0.384 N 
HETATM   15  H13 UNL     1      25.921   2.855  51.663  1.00  0.00     0.159 HD
ENDROOT
BRANCH   2  16
HETATM   16  O1  UNL     1      24.013   2.310  52.685  1.00  0.00    -0.223 OA
BRANCH  16  17
HETATM   17  N1  UNL     1      23.674   1.002  52.593  1.00  0.00    -0.260 N 
HETATM   18  H1  UNL     1      24.342   0.692  51.860  1.00  0.00     0.195 HD
BRANCH  17  19
HETATM   19  C2  UNL     1      22.740   0.138  53.206  1.00  0.00     0.056 A 
HETATM   20  C3  UNL     1      23.181  -0.707  54.185  1.00  0.00     0.031 A 
HETATM   21  C4  UNL     1      22.223  -1.530  54.751  1.00  0.00     0.004 A 
HETATM   22  C5  UNL     1      20.889  -1.528  54.376  1.00  0.00     0.019 A 
HETATM   23  C6  UNL     1      20.494  -0.653  53.379  1.00  0.00     0.013 A 
HETATM   24 BR1  UNL     1      18.661  -0.702  52.916  1.00  0.00    -0.051 Br
HETATM   25  C7  UNL     1      21.420   0.192  52.783  1.00  0.00     0.050 A 
ENDBRANCH  17  19
ENDBRANCH  16  17
ENDBRANCH   2  16
TORSDOF 3
ENDMDL
MODEL 4
REMARK VINA RESULT:      -7.9      1.949      2.503
REMARK  3 active torsions:
REMARK  status: ('A' for Active; 'I' for Inactive)
REMARK    1  A    between atoms: C1_2  and  O1_3 
REMARK    2  A    between atoms: O1_3  and  N1_4 
REMARK    3  A    between atoms: N1_4  and  C2_5 
ROOT
HETATM    1 CL1  UNL     1      22.717   5.900  51.280  1.00  0.00    -0.052 Cl
HETATM    2  C1  UNL     1      23.952   4.976  50.456  1.00  0.00     0.192 C 
HETATM    3  C8  UNL     1      24.481   3.957  51.156  1.00  0.00     0.078 C 
HETATM    4  C9  UNL     1      23.948   3.756  52.525  1.00  0.00     0.236 C 
HETATM    5  O2  UNL     1      23.790   2.371  52.776  1.00  0.00    -0.345 OA
HETATM    6  C10 UNL     1      24.713   1.342  52.648  1.00  0.00     0.077 A 
HETATM    7  C11 UNL     1      24.277   0.228  53.369  1.00  0.00     0.039 A 
HETATM    8  C12 UNL     1      25.048  -0.918  53.381  1.00  0.00     0.026 A 
HETATM    9  C13 UNL     1      26.253  -0.977  52.686  1.00  0.00     0.034 A 
HETATM   10 CL2  UNL     1      27.274  -2.407  52.664  1.00  0.00    -0.084 Cl
HETATM   11  C14 UNL     1      26.676   0.143  51.971  1.00  0.00     0.035 A 
HETATM   12  C15 UNL     1      25.909   1.308  51.948  1.00  0.00    -0.006 A 
HETATM   13  C16 UNL     1      26.539   2.382  51.128  1.00  0.00     0.161 C 
HETATM   14  N2  UNL     1      25.498   3.176  50.512  1.00  0.00    -0.384 N 
HETATM   15  H13 UNL     1      25.445   3.211  49.449  1.00  0.00     0.159 HD
ENDROOT
BRANCH   2  16
HETATM   16  O1  UNL     1      24.434   5.182  49.174  1.00  0.00    -0.223 OA
BRANCH  16  17
HETATM   17  N1  UNL     1      25.278   6.175  48.801  1.00  0.00    -0.260 N 
HETATM   18  H1  UNL     1      24.602   6.956  48.692  1.00  0.00     0.195 HD
BRANCH  17  19
HETATM   19  C2  UNL     1      26.665   6.311  48.573  1.00  0.00     0.056 A 
HETATM   20  C3  UNL     1      27.437   5.185  48.568  1.00  0.00     0.031 A 
HETATM   21  C4  UNL     1      28.788   5.377  48.340  1.00  0.00     0.004 A 
HETATM   22  C5  UNL     1      29.362   6.619  48.125  1.00  0.00     0.019 A 
HETATM   23  C6  UNL     1      28.536   7.730  48.140  1.00  0.00     0.013 A 
HETATM   24 BR1  UNL     1      29.383   9.394  47.840  1.00  0.00    -0.051 Br
HETATM   25  C7  UNL     1      27.174   7.585  48.365  1.00  0.00     0.050 A 
ENDBRANCH  17  19
ENDBRANCH  16  17
ENDBRANCH   2  16
TORSDOF 3
ENDMDL
MODEL 5
REMARK VINA RESULT:      -7.9      3.064      4.278
REMARK  3 active torsions:
REMARK  status: ('A' for Active; 'I' for Inactive)
REMARK    1  A    between atoms: C1_2  and  O1_3 
REMARK    2  A    between atoms: O1_3  and  N1_4 
REMARK    3  A    between atoms: N1_4  and  C2_5 
ROOT
HETATM    1 CL1  UNL     1      27.560   5.375  48.552  1.00  0.00    -0.052 Cl
HETATM    2  C1  UNL     1      26.295   5.395  49.758  1.00  0.00     0.192 C 
HETATM    3  C8  UNL     1      25.899   4.191  50.208  1.00  0.00     0.078 C 
HETATM    4  C9  UNL     1      26.586   3.015  49.622  1.00  0.00     0.236 C 
HETATM    5  O2  UNL     1      26.844   2.061  50.636  1.00  0.00    -0.345 OA
HETATM    6  C10 UNL     1      25.969   1.486  51.548  1.00  0.00     0.077 A 
HETATM    7  C11 UNL     1      26.539   0.328  52.080  1.00  0.00     0.039 A 
HETATM    8  C12 UNL     1      25.836  -0.409  53.014  1.00  0.00     0.026 A 
HETATM    9  C13 UNL     1      24.568  -0.012  53.430  1.00  0.00     0.034 A 
HETATM   10 CL2  UNL     1      23.628  -0.908  54.614  1.00  0.00    -0.084 Cl
HETATM   11  C14 UNL     1      24.011   1.147  52.890  1.00  0.00     0.035 A 
HETATM   12  C15 UNL     1      24.708   1.902  51.946  1.00  0.00    -0.006 A 
HETATM   13  C16 UNL     1      23.937   3.097  51.500  1.00  0.00     0.161 C 
HETATM   14  N2  UNL     1      24.862   4.169  51.199  1.00  0.00    -0.384 N 
HETATM   15  H13 UNL     1      24.798   5.071  51.761  1.00  0.00     0.159 HD
ENDROOT
BRANCH   2  16
HETATM   16  O1  UNL     1      25.667   6.509  50.292  1.00  0.00    -0.223 OA
BRANCH  16  17
HETATM   17  N1  UNL     1      26.272   7.683  50.596  1.00  0.00    -0.260 N 
HETATM   18  H1  UNL     1      26.378   7.572  51.624  1.00  0.00     0.195 HD
BRANCH  17  19
HETATM   19  C2  UNL     1      26.706   8.827  49.891  1.00  0.00     0.056 A 
HETATM   20  C3  UNL     1      25.764   9.631  49.314  1.00  0.00     0.031 A 
HETATM   21  C4  UNL     1      26.245  10.737  48.637  1.00  0.00     0.004 A 
HETATM   22  C5  UNL     1      27.592  11.046  48.527  1.00  0.00     0.019 A 
HETATM   23  C6  UNL     1      28.505  10.199  49.130  1.00  0.00     0.013 A 
HETATM   24 BR1  UNL     1      30.325  10.678  48.942  1.00  0.00    -0.051 Br
HETATM   25  C7  UNL     1      28.069   9.076  49.821  1.00  0.00     0.050 A 
ENDBRANCH  17  19
ENDBRANCH  16  17
ENDBRANCH   2  16
TORSDOF 3
ENDMDL
MODEL 6
REMARK VINA RESULT:      -7.8      3.439      6.910
REMARK  3 active torsions:
REMARK  status: ('A' for Active; 'I' for Inactive)
REMARK    1  A    between atoms: C1_2  and  O1_3 
REMARK    2  A    between atoms: O1_3  and  N1_4 
REMARK    3  A    between atoms: N1_4  and  C2_5 
ROOT
HETATM    1 CL1  UNL     1      21.834   5.908  51.044  1.00  0.00    -0.052 Cl
HETATM    2  C1  UNL     1      23.346   5.077  51.327  1.00  0.00     0.192 C 
HETATM    3  C8  UNL     1      24.287   5.242  50.381  1.00  0.00     0.078 C 
HETATM    4  C9  UNL     1      23.916   6.102  49.231  1.00  0.00     0.236 C 
HETATM    5  O2  UNL     1      25.014   6.925  48.879  1.00  0.00    -0.345 OA
HETATM    6  C10 UNL     1      26.325   6.568  48.590  1.00  0.00     0.077 A 
HETATM    7  C11 UNL     1      26.958   7.613  47.913  1.00  0.00     0.039 A 
HETATM    8  C12 UNL     1      28.276   7.472  47.525  1.00  0.00     0.026 A 
HETATM    9  C13 UNL     1      28.981   6.303  47.799  1.00  0.00     0.034 A 
HETATM   10 CL2  UNL     1      30.658   6.068  47.331  1.00  0.00    -0.084 Cl
HETATM   11  C14 UNL     1      28.337   5.268  48.476  1.00  0.00     0.035 A 
HETATM   12  C15 UNL     1      27.005   5.395  48.874  1.00  0.00    -0.006 A 
HETATM   13  C16 UNL     1      26.510   4.178  49.580  1.00  0.00     0.161 C 
HETATM   14  N2  UNL     1      25.542   4.575  50.579  1.00  0.00    -0.384 N 
HETATM   15  H13 UNL     1      25.749   4.363  51.602  1.00  0.00     0.159 HD
ENDROOT
BRANCH   2  16
HETATM   16  O1  UNL     1      23.670   4.277  52.411  1.00  0.00    -0.223 OA
BRANCH  16  17
HETATM   17  N1  UNL     1      23.151   3.052  52.667  1.00  0.00    -0.260 N 
HETATM   18  H1  UNL     1      22.137   3.272  52.629  1.00  0.00     0.195 HD
BRANCH  17  19
HETATM   19  C2  UNL     1      23.655   1.759  52.932  1.00  0.00     0.056 A 
HETATM   20  C3  UNL     1      22.781   0.792  53.339  1.00  0.00     0.031 A 
HETATM   21  C4  UNL     1      23.328  -0.456  53.583  1.00  0.00     0.004 A 
HETATM   22  C5  UNL     1      24.675  -0.747  53.435  1.00  0.00     0.019 A 
HETATM   23  C6  UNL     1      25.519   0.269  53.020  1.00  0.00     0.013 A 
HETATM   24 BR1  UNL     1      27.343  -0.195  52.839  1.00  0.00    -0.051 Br
HETATM   25  C7  UNL     1      25.014   1.537  52.763  1.00  0.00     0.050 A 
ENDBRANCH  17  19
ENDBRANCH  16  17
ENDBRANCH   2  16
TORSDOF 3
ENDMDL
MODEL 7
REMARK VINA RESULT:      -7.7      4.256      7.993
REMARK  3 active torsions:
REMARK  status: ('A' for Active; 'I' for Inactive)
REMARK    1  A    between atoms: C1_2  and  O1_3 
REMARK    2  A    between atoms: O1_3  and  N1_4 
REMARK    3  A    between atoms: N1_4  and  C2_5 
ROOT
HETATM    1 CL1  UNL     1      24.142   4.036  49.491  1.00  0.00    -0.052 Cl
HETATM    2  C1  UNL     1      25.890   4.054  49.498  1.00  0.00     0.192 C 
HETATM    3  C8  UNL     1      26.462   5.196  49.078  1.00  0.00     0.078 C 
HETATM    4  C9  UNL     1      25.537   6.280  48.668  1.00  0.00     0.236 C 
HETATM    5  O2  UNL     1      26.025   7.524  49.137  1.00  0.00    -0.345 OA
HETATM    6  C10 UNL     1      27.276   8.102  48.965  1.00  0.00     0.077 A 
HETATM    7  C11 UNL     1      27.202   9.471  49.232  1.00  0.00     0.039 A 
HETATM    8  C12 UNL     1      28.338  10.248  49.121  1.00  0.00     0.026 A 
HETATM    9  C13 UNL     1      29.555   9.685  48.746  1.00  0.00     0.034 A 
HETATM   10 CL2  UNL     1      31.033  10.622  48.589  1.00  0.00    -0.084 Cl
HETATM   11  C14 UNL     1      29.615   8.317  48.482  1.00  0.00     0.035 A 
HETATM   12  C15 UNL     1      28.475   7.518  48.590  1.00  0.00    -0.006 A 
HETATM   13  C16 UNL     1      28.755   6.090  48.266  1.00  0.00     0.161 C 
HETATM   14  N2  UNL     1      27.896   5.248  49.070  1.00  0.00    -0.384 N 
HETATM   15  H13 UNL     1      28.346   4.567  49.755  1.00  0.00     0.159 HD
ENDROOT
BRANCH   2  16
HETATM   16  O1  UNL     1      26.735   3.027  49.887  1.00  0.00    -0.223 OA
BRANCH  16  17
HETATM   17  N1  UNL     1      26.812   2.501  51.134  1.00  0.00    -0.260 N 
HETATM   18  H1  UNL     1      27.551   3.107  51.541  1.00  0.00     0.195 HD
BRANCH  17  19
HETATM   19  C2  UNL     1      26.179   1.461  51.849  1.00  0.00     0.056 A 
HETATM   20  C3  UNL     1      26.929   0.385  52.230  1.00  0.00     0.031 A 
HETATM   21  C4  UNL     1      26.258  -0.604  52.928  1.00  0.00     0.004 A 
HETATM   22  C5  UNL     1      24.910  -0.544  53.243  1.00  0.00     0.019 A 
HETATM   23  C6  UNL     1      24.195   0.569  52.834  1.00  0.00     0.013 A 
HETATM   24 BR1  UNL     1      22.361   0.587  53.295  1.00  0.00    -0.051 Br
HETATM   25  C7  UNL     1      24.826   1.586  52.131  1.00  0.00     0.050 A 
ENDBRANCH  17  19
ENDBRANCH  16  17
ENDBRANCH   2  16
TORSDOF 3
ENDMDL
MODEL 8
REMARK VINA RESULT:      -7.7      3.147      6.547
REMARK  3 active torsions:
REMARK  status: ('A' for Active; 'I' for Inactive)
REMARK    1  A    between atoms: C1_2  and  O1_3 
REMARK    2  A    between atoms: O1_3  and  N1_4 
REMARK    3  A    between atoms: N1_4  and  C2_5 
ROOT
HETATM    1 CL1  UNL     1      21.444   3.169  51.713  1.00  0.00    -0.052 Cl
HETATM    2  C1  UNL     1      23.172   3.093  51.969  1.00  0.00     0.192 C 
HETATM    3  C8  UNL     1      23.931   3.586  50.975  1.00  0.00     0.078 C 
HETATM    4  C9  UNL     1      23.203   4.125  49.801  1.00  0.00     0.236 C 
HETATM    5  O2  UNL     1      23.829   5.315  49.358  1.00  0.00    -0.345 OA
HETATM    6  C10 UNL     1      25.159   5.541  49.029  1.00  0.00     0.077 A 
HETATM    7  C11 UNL     1      25.263   6.710  48.272  1.00  0.00     0.039 A 
HETATM    8  C12 UNL     1      26.504   7.128  47.832  1.00  0.00     0.026 A 
HETATM    9  C13 UNL     1      27.651   6.399  48.134  1.00  0.00     0.034 A 
HETATM   10 CL2  UNL     1      29.256   6.880  47.604  1.00  0.00    -0.084 Cl
HETATM   11  C14 UNL     1      27.533   5.234  48.891  1.00  0.00     0.035 A 
HETATM   12  C15 UNL     1      26.286   4.799  49.342  1.00  0.00    -0.006 A 
HETATM   13  C16 UNL     1      26.380   3.537  50.130  1.00  0.00     0.161 C 
HETATM   14  N2  UNL     1      25.354   3.541  51.151  1.00  0.00    -0.384 N 
HETATM   15  H13 UNL     1      25.651   3.507  52.173  1.00  0.00     0.159 HD
ENDROOT
BRANCH   2  16
HETATM   16  O1  UNL     1      23.831   2.585  53.078  1.00  0.00    -0.223 OA
BRANCH  16  17
HETATM   17  N1  UNL     1      24.202   1.293  53.248  1.00  0.00    -0.260 N 
HETATM   18  H1  UNL     1      23.278   0.863  53.450  1.00  0.00     0.195 HD
BRANCH  17  19
HETATM   19  C2  UNL     1      25.407   0.557  53.208  1.00  0.00     0.056 A 
HETATM   20  C3  UNL     1      25.374  -0.719  52.724  1.00  0.00     0.031 A 
HETATM   21  C4  UNL     1      26.582  -1.393  52.708  1.00  0.00     0.004 A 
HETATM   22  C5  UNL     1      27.776  -0.842  53.145  1.00  0.00     0.019 A 
HETATM   23  C6  UNL     1      27.756   0.456  53.626  1.00  0.00     0.013 A 
HETATM   24 BR1  UNL     1      29.418   1.147  54.208  1.00  0.00    -0.051 Br
HETATM   25  C7  UNL     1      26.566   1.171  53.662  1.00  0.00     0.050 A 
ENDBRANCH  17  19
ENDBRANCH  16  17
ENDBRANCH   2  16
TORSDOF 3
ENDMDL
MODEL 9
REMARK VINA RESULT:      -7.7      4.659      8.024
REMARK  3 active torsions:
REMARK  status: ('A' for Active; 'I' for Inactive)
REMARK    1  A    between atoms: C1_2  and  O1_3 
REMARK    2  A    between atoms: O1_3  and  N1_4 
REMARK    3  A    between atoms: N1_4  and  C2_5 
ROOT
HETATM    1 CL1  UNL     1      24.759   6.153  48.737  1.00  0.00    -0.052 Cl
HETATM    2  C1  UNL     1      26.254   5.275  48.968  1.00  0.00     0.192 C 
HETATM    3  C8  UNL     1      27.372   5.917  48.585  1.00  0.00     0.078 C 
HETATM    4  C9  UNL     1      27.186   7.275  48.021  1.00  0.00     0.236 C 
HETATM    5  O2  UNL     1      28.203   8.134  48.505  1.00  0.00    -0.345 OA
HETATM    6  C10 UNL     1      29.582   7.971  48.475  1.00  0.00     0.077 A 
HETATM    7  C11 UNL     1      30.205   9.204  48.681  1.00  0.00     0.039 A 
HETATM    8  C12 UNL     1      31.584   9.275  48.690  1.00  0.00     0.026 A 
HETATM    9  C13 UNL     1      32.361   8.136  48.495  1.00  0.00     0.034 A 
HETATM   10 CL2  UNL     1      34.117   8.165  48.497  1.00  0.00    -0.084 Cl
HETATM   11  C14 UNL     1      31.725   6.912  48.290  1.00  0.00     0.035 A 
HETATM   12  C15 UNL     1      30.332   6.823  48.278  1.00  0.00    -0.006 A 
HETATM   13  C16 UNL     1      29.859   5.429  48.044  1.00  0.00     0.161 C 
HETATM   14  N2  UNL     1      28.617   5.227  48.760  1.00  0.00    -0.384 N 
HETATM   15  H13 UNL     1      28.583   4.482  49.521  1.00  0.00     0.159 HD
ENDROOT
BRANCH   2  16
HETATM   16  O1  UNL     1      26.402   4.004  49.499  1.00  0.00    -0.223 OA
BRANCH  16  17
HETATM   17  N1  UNL     1      26.306   3.683  50.812  1.00  0.00    -0.260 N 
HETATM   18  H1  UNL     1      26.788   4.501  51.235  1.00  0.00     0.195 HD
BRANCH  17  19
HETATM   19  C2  UNL     1      25.765   2.624  51.573  1.00  0.00     0.056 A 
HETATM   20  C3  UNL     1      24.563   2.816  52.192  1.00  0.00     0.031 A 
HETATM   21  C4  UNL     1      24.080   1.745  52.923  1.00  0.00     0.004 A 
HETATM   22  C5  UNL     1      24.744   0.535  53.045  1.00  0.00     0.019 A 
HETATM   23  C6  UNL     1      25.960   0.392  52.398  1.00  0.00     0.013 A 
HETATM   24 BR1  UNL     1      26.813  -1.283  52.606  1.00  0.00    -0.051 Br
HETATM   25  C7  UNL     1      26.483   1.439  51.653  1.00  0.00     0.050 A 
ENDBRANCH  17  19
ENDBRANCH  16  17
ENDBRANCH   2  16
TORSDOF 3
ENDMDL
