MODEL 1
REMARK VINA RESULT:      -7.6      0.000      0.000
REMARK  5 active torsions:
REMARK  status: ('A' for Active; 'I' for Inactive)
REMARK    1  A    between atoms: C2_2  and  C3_3 
REMARK    2  A    between atoms: C5_7  and  N3_8 
REMARK    3  A    between atoms: N3_8  and  C6_9 
REMARK    4  A    between atoms: C15_20  and  C16_21 
REMARK    5  A    between atoms: C16_21  and  O2_22 
ROOT
HETATM    1  C3  UNL     1      27.328  -0.197  53.189  1.00  0.00     0.046 C 
HETATM    2  N1  UNL     1      27.611   0.766  52.352  1.00  0.00    -0.236 NA
HETATM    3  C4  UNL     1      26.768   1.805  51.960  1.00  0.00     0.301 C 
HETATM    4  N2  UNL     1      25.839   2.235  51.376  1.00  0.00    -0.381 NA
HETATM    5  C5  UNL     1      24.790   2.652  50.701  1.00  0.00     0.180 C 
HETATM    6  C12 UNL     1      23.648   2.221  51.204  1.00  0.00     0.066 C 
HETATM    7  C13 UNL     1      23.226   1.401  52.313  1.00  0.00     0.029 C 
HETATM    8  C14 UNL     1      23.867   0.746  53.282  1.00  0.00     0.136 C 
HETATM    9  O1  UNL     1      25.236   0.801  53.318  1.00  0.00    -0.350 OA
HETATM   10  C15 UNL     1      25.988  -0.264  53.832  1.00  0.00     0.199 C 
ENDROOT
BRANCH   5  11
HETATM   11  N3  UNL     1      24.994   3.459  49.588  1.00  0.00    -0.331 N 
HETATM   12  H7  UNL     1      24.337   2.969  48.957  1.00  0.00     0.168 HD
BRANCH  11  13
HETATM   13  C6  UNL     1      25.783   4.594  49.257  1.00  0.00     0.036 A 
HETATM   14  C7  UNL     1      25.192   5.838  49.322  1.00  0.00     0.029 A 
HETATM   15  C8  UNL     1      26.033   6.902  48.983  1.00  0.00     0.004 A 
HETATM   16  C9  UNL     1      27.350   6.701  48.615  1.00  0.00     0.024 A 
HETATM   17  C10 UNL     1      27.879   5.407  48.573  1.00  0.00     0.036 A 
HETATM   18 CL1  UNL     1      29.556   5.203  48.101  1.00  0.00    -0.084 Cl
HETATM   19  C11 UNL     1      27.083   4.314  48.901  1.00  0.00     0.053 A 
ENDBRANCH  11  13
ENDBRANCH   5  11
BRANCH   1  20
HETATM   20  C2  UNL     1      28.482  -1.123  53.357  1.00  0.00     0.053 C 
HETATM   21  C1  UNL     1      29.698  -0.340  53.774  1.00  0.00     0.011 C 
ENDBRANCH   1  20
BRANCH  10  22
HETATM   22  C16 UNL     1      26.015  -0.197  55.324  1.00  0.00     0.202 C 
BRANCH  22  23
HETATM   23  O2  UNL     1      25.221  -1.230  55.867  1.00  0.00    -0.398 OA
HETATM   24  H18 UNL     1      25.355  -2.088  55.413  1.00  0.00     0.209 HD
ENDBRANCH  22  23
ENDBRANCH  10  22
TORSDOF 5
ENDMDL
MODEL 2
REMARK VINA RESULT:      -7.5      3.247      6.797
REMARK  5 active torsions:
REMARK  status: ('A' for Active; 'I' for Inactive)
REMARK    1  A    between atoms: C2_2  and  C3_3 
REMARK    2  A    between atoms: C5_7  and  N3_8 
REMARK    3  A    between atoms: N3_8  and  C6_9 
REMARK    4  A    between atoms: C15_20  and  C16_21 
REMARK    5  A    between atoms: C16_21  and  O2_22 
ROOT
HETATM    1  C3  UNL     1      26.716   5.535  48.984  1.00  0.00     0.046 C 
HETATM    2  N1  UNL     1      27.085   4.301  49.210  1.00  0.00    -0.236 NA
HETATM    3  C4  UNL     1      26.346   3.317  49.865  1.00  0.00     0.301 C 
HETATM    4  N2  UNL     1      25.870   2.833  50.828  1.00  0.00    -0.381 NA
HETATM    5  C5  UNL     1      25.366   2.343  51.940  1.00  0.00     0.180 C 
HETATM    6  C12 UNL     1      24.388   3.081  52.432  1.00  0.00     0.066 C 
HETATM    7  C13 UNL     1      23.707   4.303  52.078  1.00  0.00     0.029 C 
HETATM    8  C14 UNL     1      23.823   5.176  51.077  1.00  0.00     0.136 C 
HETATM    9  O1  UNL     1      24.776   4.951  50.117  1.00  0.00    -0.350 OA
HETATM   10  C15 UNL     1      25.385   6.017  49.442  1.00  0.00     0.199 C 
ENDROOT
BRANCH   5  11
HETATM   11  N3  UNL     1      25.895   1.162  52.446  1.00  0.00    -0.331 N 
HETATM   12  H7  UNL     1      25.026   0.606  52.399  1.00  0.00     0.168 HD
BRANCH  11  13
HETATM   13  C6  UNL     1      27.158   0.704  52.911  1.00  0.00     0.036 A 
HETATM   14  C7  UNL     1      28.044   1.635  53.411  1.00  0.00     0.029 A 
HETATM   15  C8  UNL     1      29.261   1.105  53.848  1.00  0.00     0.004 A 
HETATM   16  C9  UNL     1      29.536  -0.247  53.777  1.00  0.00     0.024 A 
HETATM   17  C10 UNL     1      28.584  -1.131  53.257  1.00  0.00     0.036 A 
HETATM   18 CL1  UNL     1      28.978  -2.839  53.189  1.00  0.00    -0.084 Cl
HETATM   19  C11 UNL     1      27.357  -0.654  52.808  1.00  0.00     0.053 A 
ENDBRANCH  11  13
ENDBRANCH   5  11
BRANCH   1  20
HETATM   20  C2  UNL     1      27.774   6.290  48.258  1.00  0.00     0.053 C 
HETATM   21  C1  UNL     1      29.022   5.453  48.174  1.00  0.00     0.011 C 
ENDBRANCH   1  20
BRANCH  10  22
HETATM   22  C16 UNL     1      24.494   6.504  48.346  1.00  0.00     0.202 C 
BRANCH  22  23
HETATM   23  O2  UNL     1      24.168   7.861  48.557  1.00  0.00    -0.398 OA
HETATM   24  H18 UNL     1      24.215   8.119  49.501  1.00  0.00     0.209 HD
ENDBRANCH  22  23
ENDBRANCH  10  22
TORSDOF 5
ENDMDL
MODEL 3
REMARK VINA RESULT:      -7.3      4.406      7.083
REMARK  5 active torsions:
REMARK  status: ('A' for Active; 'I' for Inactive)
REMARK    1  A    between atoms: C2_2  and  C3_3 
REMARK    2  A    between atoms: C5_7  and  N3_8 
REMARK    3  A    between atoms: N3_8  and  C6_9 
REMARK    4  A    between atoms: C15_20  and  C16_21 
REMARK    5  A    between atoms: C16_21  and  O2_22 
ROOT
HETATM    1  C3  UNL     1      25.928   2.570  51.232  1.00  0.00     0.046 C 
HETATM    2  N1  UNL     1      24.681   2.875  51.482  1.00  0.00    -0.236 NA
HETATM    3  C4  UNL     1      23.877   2.341  52.487  1.00  0.00     0.301 C 
HETATM    4  N2  UNL     1      23.247   1.470  52.972  1.00  0.00    -0.381 NA
HETATM    5  C5  UNL     1      22.560   0.460  53.460  1.00  0.00     0.180 C 
HETATM    6  C12 UNL     1      23.325  -0.541  53.856  1.00  0.00     0.066 C 
HETATM    7  C13 UNL     1      24.737  -0.836  53.902  1.00  0.00     0.029 C 
HETATM    8  C14 UNL     1      25.837  -0.175  53.542  1.00  0.00     0.136 C 
HETATM    9  O1  UNL     1      25.704   1.074  52.994  1.00  0.00    -0.350 OA
HETATM   10  C15 UNL     1      26.633   1.556  52.063  1.00  0.00     0.199 C 
ENDROOT
BRANCH   5  11
HETATM   11  N3  UNL     1      21.175   0.556  53.499  1.00  0.00    -0.331 N 
HETATM   12  H7  UNL     1      21.100   0.877  54.478  1.00  0.00     0.168 HD
BRANCH  11  13
HETATM   13  C6  UNL     1      20.091   0.334  52.605  1.00  0.00     0.036 A 
HETATM   14  C7  UNL     1      20.127   0.951  51.374  1.00  0.00     0.029 A 
HETATM   15  C8  UNL     1      19.027   0.682  50.554  1.00  0.00     0.004 A 
HETATM   16  C9  UNL     1      17.996  -0.142  50.964  1.00  0.00     0.024 A 
HETATM   17  C10 UNL     1      18.032  -0.734  52.231  1.00  0.00     0.036 A 
HETATM   18 CL1  UNL     1      16.701  -1.773  52.707  1.00  0.00    -0.084 Cl
HETATM   19  C11 UNL     1      19.104  -0.497  53.085  1.00  0.00     0.053 A 
ENDBRANCH  11  13
ENDBRANCH   5  11
BRANCH   1  20
HETATM   20  C2  UNL     1      26.453   3.348  50.077  1.00  0.00     0.053 C 
HETATM   21  C1  UNL     1      25.526   4.495  49.779  1.00  0.00     0.011 C 
ENDBRANCH   1  20
BRANCH  10  22
HETATM   22  C16 UNL     1      27.844   2.072  52.770  1.00  0.00     0.202 C 
BRANCH  22  23
HETATM   23  O2  UNL     1      27.459   2.857  53.877  1.00  0.00    -0.398 OA
HETATM   24  H18 UNL     1      27.538   2.376  54.727  1.00  0.00     0.209 HD
ENDBRANCH  22  23
ENDBRANCH  10  22
TORSDOF 5
ENDMDL
MODEL 4
REMARK VINA RESULT:      -7.2      4.170      7.119
REMARK  5 active torsions:
REMARK  status: ('A' for Active; 'I' for Inactive)
REMARK    1  A    between atoms: C2_2  and  C3_3 
REMARK    2  A    between atoms: C5_7  and  N3_8 
REMARK    3  A    between atoms: N3_8  and  C6_9 
REMARK    4  A    between atoms: C15_20  and  C16_21 
REMARK    5  A    between atoms: C16_21  and  O2_22 
ROOT
HETATM    1  C3  UNL     1      19.178   0.029  52.412  1.00  0.00     0.046 C 
HETATM    2  N1  UNL     1      20.034  -0.184  53.377  1.00  0.00    -0.236 NA
HETATM    3  C4  UNL     1      21.283   0.416  53.532  1.00  0.00     0.301 C 
HETATM    4  N2  UNL     1      22.411   0.578  53.230  1.00  0.00    -0.381 NA
HETATM    5  C5  UNL     1      23.661   0.713  52.844  1.00  0.00     0.180 C 
HETATM    6  C12 UNL     1      23.777   1.303  51.669  1.00  0.00     0.066 C 
HETATM    7  C13 UNL     1      22.892   1.851  50.670  1.00  0.00     0.029 C 
HETATM    8  C14 UNL     1      21.567   1.967  50.565  1.00  0.00     0.136 C 
HETATM    9  O1  UNL     1      20.783   1.486  51.581  1.00  0.00    -0.350 OA
HETATM   10  C15 UNL     1      19.494   0.998  51.328  1.00  0.00     0.199 C 
ENDROOT
BRANCH   5  11
HETATM   11  N3  UNL     1      24.667   0.240  53.677  1.00  0.00    -0.331 N 
HETATM   12  H7  UNL     1      24.079   0.100  54.516  1.00  0.00     0.168 HD
BRANCH  11  13
HETATM   13  C6  UNL     1      26.061  -0.022  53.579  1.00  0.00     0.036 A 
HETATM   14  C7  UNL     1      26.460  -1.218  53.021  1.00  0.00     0.029 A 
HETATM   15  C8  UNL     1      27.845  -1.399  52.960  1.00  0.00     0.004 A 
HETATM   16  C9  UNL     1      28.727  -0.443  53.425  1.00  0.00     0.024 A 
HETATM   17  C10 UNL     1      28.245   0.748  53.979  1.00  0.00     0.036 A 
HETATM   18 CL1  UNL     1      29.404   1.932  54.556  1.00  0.00    -0.084 Cl
HETATM   19  C11 UNL     1      26.876   0.976  54.063  1.00  0.00     0.053 A 
ENDBRANCH  11  13
ENDBRANCH   5  11
BRANCH   1  20
HETATM   20  C2  UNL     1      17.953  -0.798  52.585  1.00  0.00     0.053 C 
HETATM   21  C1  UNL     1      18.240  -1.932  53.532  1.00  0.00     0.011 C 
ENDBRANCH   1  20
BRANCH  10  22
HETATM   22  C16 UNL     1      18.531   2.135  51.214  1.00  0.00     0.202 C 
BRANCH  22  23
HETATM   23  O2  UNL     1      18.832   3.120  52.178  1.00  0.00    -0.398 OA
HETATM   24  H18 UNL     1      18.655   2.820  53.094  1.00  0.00     0.209 HD
ENDBRANCH  22  23
ENDBRANCH  10  22
TORSDOF 5
ENDMDL
MODEL 5
REMARK VINA RESULT:      -7.1      2.239      2.905
REMARK  5 active torsions:
REMARK  status: ('A' for Active; 'I' for Inactive)
REMARK    1  A    between atoms: C2_2  and  C3_3 
REMARK    2  A    between atoms: C5_7  and  N3_8 
REMARK    3  A    between atoms: N3_8  and  C6_9 
REMARK    4  A    between atoms: C15_20  and  C16_21 
REMARK    5  A    between atoms: C16_21  and  O2_22 
ROOT
HETATM    1  C3  UNL     1      24.414  -0.221  53.674  1.00  0.00     0.046 C 
HETATM    2  N1  UNL     1      24.861   0.821  53.023  1.00  0.00    -0.236 NA
HETATM    3  C4  UNL     1      24.125   1.664  52.193  1.00  0.00     0.301 C 
HETATM    4  N2  UNL     1      23.544   1.905  51.196  1.00  0.00    -0.381 NA
HETATM    5  C5  UNL     1      22.910   2.111  50.061  1.00  0.00     0.180 C 
HETATM    6  C12 UNL     1      21.794   1.413  49.960  1.00  0.00     0.066 C 
HETATM    7  C13 UNL     1      21.063   0.467  50.768  1.00  0.00     0.029 C 
HETATM    8  C14 UNL     1      21.259  -0.075  51.971  1.00  0.00     0.136 C 
HETATM    9  O1  UNL     1      22.378   0.281  52.677  1.00  0.00    -0.350 OA
HETATM   10  C15 UNL     1      22.983  -0.614  53.570  1.00  0.00     0.199 C 
ENDROOT
BRANCH   5  11
HETATM   11  N3  UNL     1      23.462   2.995  49.143  1.00  0.00    -0.331 N 
HETATM   12  H7  UNL     1      22.793   2.812  48.377  1.00  0.00     0.168 HD
BRANCH  11  13
HETATM   13  C6  UNL     1      24.553   3.906  49.103  1.00  0.00     0.036 A 
HETATM   14  C7  UNL     1      25.820   3.413  49.328  1.00  0.00     0.029 A 
HETATM   15  C8  UNL     1      26.837   4.370  49.271  1.00  0.00     0.004 A 
HETATM   16  C9  UNL     1      26.573   5.700  49.006  1.00  0.00     0.024 A 
HETATM   17  C10 UNL     1      25.257   6.125  48.786  1.00  0.00     0.036 A 
HETATM   18 CL1  UNL     1      24.971   7.824  48.453  1.00  0.00    -0.084 Cl
HETATM   19  C11 UNL     1      24.210   5.212  48.834  1.00  0.00     0.053 A 
ENDBRANCH  11  13
ENDBRANCH   5  11
BRANCH   1  20
HETATM   20  C2  UNL     1      25.498  -0.874  54.458  1.00  0.00     0.053 C 
HETATM   21  C1  UNL     1      26.450   0.174  54.971  1.00  0.00     0.011 C 
ENDBRANCH   1  20
BRANCH  10  22
HETATM   22  C16 UNL     1      22.246  -0.616  54.870  1.00  0.00     0.202 C 
BRANCH  22  23
HETATM   23  O2  UNL     1      22.182  -1.927  55.386  1.00  0.00    -0.398 OA
HETATM   24  H18 UNL     1      22.044  -1.946  56.356  1.00  0.00     0.209 HD
ENDBRANCH  22  23
ENDBRANCH  10  22
TORSDOF 5
ENDMDL
MODEL 6
REMARK VINA RESULT:      -7.1      5.134      7.674
REMARK  5 active torsions:
REMARK  status: ('A' for Active; 'I' for Inactive)
REMARK    1  A    between atoms: C2_2  and  C3_3 
REMARK    2  A    between atoms: C5_7  and  N3_8 
REMARK    3  A    between atoms: N3_8  and  C6_9 
REMARK    4  A    between atoms: C15_20  and  C16_21 
REMARK    5  A    between atoms: C16_21  and  O2_22 
ROOT
HETATM    1  C3  UNL     1      26.247   0.490  53.919  1.00  0.00     0.046 C 
HETATM    2  N1  UNL     1      25.338  -0.426  54.126  1.00  0.00    -0.236 NA
HETATM    3  C4  UNL     1      24.073  -0.493  53.544  1.00  0.00     0.301 C 
HETATM    4  N2  UNL     1      22.963  -0.122  53.408  1.00  0.00    -0.381 NA
HETATM    5  C5  UNL     1      21.736   0.340  53.303  1.00  0.00     0.180 C 
HETATM    6  C12 UNL     1      21.680   1.534  52.741  1.00  0.00     0.066 C 
HETATM    7  C13 UNL     1      22.615   2.490  52.199  1.00  0.00     0.029 C 
HETATM    8  C14 UNL     1      23.941   2.519  52.063  1.00  0.00     0.136 C 
HETATM    9  O1  UNL     1      24.671   1.448  52.508  1.00  0.00    -0.350 OA
HETATM   10  C15 UNL     1      25.980   1.613  52.980  1.00  0.00     0.199 C 
ENDROOT
BRANCH   5  11
HETATM   11  N3  UNL     1      20.689  -0.442  53.775  1.00  0.00    -0.331 N 
HETATM   12  H7  UNL     1      21.136  -0.726  54.663  1.00  0.00     0.168 HD
BRANCH  11  13
HETATM   13  C6  UNL     1      19.394  -0.824  53.330  1.00  0.00     0.036 A 
HETATM   14  C7  UNL     1      18.717   0.031  52.488  1.00  0.00     0.029 A 
HETATM   15  C8  UNL     1      17.452  -0.416  52.096  1.00  0.00     0.004 A 
HETATM   16  C9  UNL     1      16.940  -1.625  52.528  1.00  0.00     0.024 A 
HETATM   17  C10 UNL     1      17.689  -2.440  53.383  1.00  0.00     0.036 A 
HETATM   18 CL1  UNL     1      16.997  -3.966  53.904  1.00  0.00    -0.084 Cl
HETATM   19  C11 UNL     1      18.953  -2.039  53.803  1.00  0.00     0.053 A 
ENDBRANCH  11  13
ENDBRANCH   5  11
BRANCH   1  20
HETATM   20  C2  UNL     1      27.473   0.226  54.721  1.00  0.00     0.053 C 
HETATM   21  C1  UNL     1      28.445  -0.581  53.903  1.00  0.00     0.011 C 
ENDBRANCH   1  20
BRANCH  10  22
HETATM   22  C16 UNL     1      26.931   1.695  51.829  1.00  0.00     0.202 C 
BRANCH  22  23
HETATM   23  O2  UNL     1      27.562   2.957  51.814  1.00  0.00    -0.398 OA
HETATM   24  H18 UNL     1      27.656   3.343  52.710  1.00  0.00     0.209 HD
ENDBRANCH  22  23
ENDBRANCH  10  22
TORSDOF 5
ENDMDL
MODEL 7
REMARK VINA RESULT:      -6.8      3.670      7.190
REMARK  5 active torsions:
REMARK  status: ('A' for Active; 'I' for Inactive)
REMARK    1  A    between atoms: C2_2  and  C3_3 
REMARK    2  A    between atoms: C5_7  and  N3_8 
REMARK    3  A    between atoms: N3_8  and  C6_9 
REMARK    4  A    between atoms: C15_20  and  C16_21 
REMARK    5  A    between atoms: C16_21  and  O2_22 
ROOT
HETATM    1  C3  UNL     1      27.091   6.182  48.851  1.00  0.00     0.046 C 
HETATM    2  N1  UNL     1      26.911   4.888  48.812  1.00  0.00    -0.236 NA
HETATM    3  C4  UNL     1      25.806   4.185  49.290  1.00  0.00     0.301 C 
HETATM    4  N2  UNL     1      25.132   3.759  50.159  1.00  0.00    -0.381 NA
HETATM    5  C5  UNL     1      24.425   3.310  51.173  1.00  0.00     0.180 C 
HETATM    6  C12 UNL     1      23.817   4.271  51.843  1.00  0.00     0.066 C 
HETATM    7  C13 UNL     1      23.713   5.708  51.768  1.00  0.00     0.029 C 
HETATM    8  C14 UNL     1      24.220   6.636  50.955  1.00  0.00     0.136 C 
HETATM    9  O1  UNL     1      25.036   6.235  49.929  1.00  0.00    -0.350 OA
HETATM   10  C15 UNL     1      26.057   7.067  49.453  1.00  0.00     0.199 C 
ENDROOT
BRANCH   5  11
HETATM   11  N3  UNL     1      24.401   1.941  51.412  1.00  0.00    -0.331 N 
HETATM   12  H7  UNL     1      23.577   1.727  50.825  1.00  0.00     0.168 HD
BRANCH  11  13
HETATM   13  C6  UNL     1      25.160   1.003  52.164  1.00  0.00     0.036 A 
HETATM   14  C7  UNL     1      26.445   0.726  51.750  1.00  0.00     0.029 A 
HETATM   15  C8  UNL     1      27.124  -0.205  52.541  1.00  0.00     0.004 A 
HETATM   16  C9  UNL     1      26.537  -0.788  53.648  1.00  0.00     0.024 A 
HETATM   17  C10 UNL     1      25.226  -0.454  54.006  1.00  0.00     0.036 A 
HETATM   18 CL1  UNL     1      24.524  -1.220  55.419  1.00  0.00    -0.084 Cl
HETATM   19  C11 UNL     1      24.507   0.466  53.250  1.00  0.00     0.053 A 
ENDBRANCH  11  13
ENDBRANCH   5  11
BRANCH   1  20
HETATM   20  C2  UNL     1      28.396   6.563  48.243  1.00  0.00     0.053 C 
HETATM   21  C1  UNL     1      29.286   5.353  48.162  1.00  0.00     0.011 C 
ENDBRANCH   1  20
BRANCH  10  22
HETATM   22  C16 UNL     1      25.492   8.084  48.514  1.00  0.00     0.202 C 
BRANCH  22  23
HETATM   23  O2  UNL     1      24.952   7.443  47.378  1.00  0.00    -0.398 OA
HETATM   24  H18 UNL     1      24.485   6.611  47.600  1.00  0.00     0.209 HD
ENDBRANCH  22  23
ENDBRANCH  10  22
TORSDOF 5
ENDMDL
MODEL 8
REMARK VINA RESULT:      -6.8      1.869      2.292
REMARK  5 active torsions:
REMARK  status: ('A' for Active; 'I' for Inactive)
REMARK    1  A    between atoms: C2_2  and  C3_3 
REMARK    2  A    between atoms: C5_7  and  N3_8 
REMARK    3  A    between atoms: N3_8  and  C6_9 
REMARK    4  A    between atoms: C15_20  and  C16_21 
REMARK    5  A    between atoms: C16_21  and  O2_22 
ROOT
HETATM    1  C3  UNL     1      27.376  -0.308  53.086  1.00  0.00     0.046 C 
HETATM    2  N1  UNL     1      27.949   0.813  52.730  1.00  0.00    -0.236 NA
HETATM    3  C4  UNL     1      27.312   1.993  52.352  1.00  0.00     0.301 C 
HETATM    4  N2  UNL     1      26.683   2.648  51.600  1.00  0.00    -0.381 NA
HETATM    5  C5  UNL     1      25.981   3.326  50.718  1.00  0.00     0.180 C 
HETATM    6  C12 UNL     1      24.742   2.886  50.598  1.00  0.00     0.066 C 
HETATM    7  C13 UNL     1      23.930   1.845  51.179  1.00  0.00     0.029 C 
HETATM    8  C14 UNL     1      24.145   0.899  52.094  1.00  0.00     0.136 C 
HETATM    9  O1  UNL     1      25.386   0.813  52.670  1.00  0.00    -0.350 OA
HETATM   10  C15 UNL     1      25.892  -0.416  53.113  1.00  0.00     0.199 C 
ENDROOT
BRANCH   5  11
HETATM   11  N3  UNL     1      26.594   4.376  50.046  1.00  0.00    -0.331 N 
HETATM   12  H7  UNL     1      27.550   3.983  50.048  1.00  0.00     0.168 HD
BRANCH  11  13
HETATM   13  C6  UNL     1      26.202   5.621  49.483  1.00  0.00     0.036 A 
HETATM   14  C7  UNL     1      26.937   6.118  48.429  1.00  0.00     0.029 A 
HETATM   15  C8  UNL     1      26.488   7.344  47.931  1.00  0.00     0.004 A 
HETATM   16  C9  UNL     1      25.391   7.991  48.467  1.00  0.00     0.024 A 
HETATM   17  C10 UNL     1      24.693   7.422  49.539  1.00  0.00     0.036 A 
HETATM   18 CL1  UNL     1      23.306   8.279  50.185  1.00  0.00    -0.084 Cl
HETATM   19  C11 UNL     1      25.101   6.203  50.070  1.00  0.00     0.053 A 
ENDBRANCH  11  13
ENDBRANCH   5  11
BRANCH   1  20
HETATM   20  C2  UNL     1      28.386  -1.349  53.420  1.00  0.00     0.053 C 
HETATM   21  C1  UNL     1      27.995  -2.653  52.779  1.00  0.00     0.011 C 
ENDBRANCH   1  20
BRANCH  10  22
HETATM   22  C16 UNL     1      25.322  -0.750  54.454  1.00  0.00     0.202 C 
BRANCH  22  23
HETATM   23  O2  UNL     1      26.181  -0.285  55.472  1.00  0.00    -0.398 OA
HETATM   24  H18 UNL     1      27.099  -0.615  55.373  1.00  0.00     0.209 HD
ENDBRANCH  22  23
ENDBRANCH  10  22
TORSDOF 5
ENDMDL
MODEL 9
REMARK VINA RESULT:      -6.7      2.205      4.073
REMARK  5 active torsions:
REMARK  status: ('A' for Active; 'I' for Inactive)
REMARK    1  A    between atoms: C2_2  and  C3_3 
REMARK    2  A    between atoms: C5_7  and  N3_8 
REMARK    3  A    between atoms: N3_8  and  C6_9 
REMARK    4  A    between atoms: C15_20  and  C16_21 
REMARK    5  A    between atoms: C16_21  and  O2_22 
ROOT
HETATM    1  C3  UNL     1      21.695   0.598  53.215  1.00  0.00     0.046 C 
HETATM    2  N1  UNL     1      21.776   1.142  52.028  1.00  0.00    -0.236 NA
HETATM    3  C4  UNL     1      22.937   1.360  51.288  1.00  0.00     0.301 C 
HETATM    4  N2  UNL     1      23.952   1.920  51.074  1.00  0.00    -0.381 NA
HETATM    5  C5  UNL     1      25.073   2.583  50.889  1.00  0.00     0.180 C 
HETATM    6  C12 UNL     1      25.982   2.325  51.811  1.00  0.00     0.066 C 
HETATM    7  C13 UNL     1      26.087   1.499  52.989  1.00  0.00     0.029 C 
HETATM    8  C14 UNL     1      25.261   0.654  53.609  1.00  0.00     0.136 C 
HETATM    9  O1  UNL     1      24.009   0.458  53.087  1.00  0.00    -0.350 OA
HETATM   10  C15 UNL     1      22.925   0.139  53.915  1.00  0.00     0.199 C 
ENDROOT
BRANCH   5  11
HETATM   11  N3  UNL     1      25.166   3.439  49.799  1.00  0.00    -0.331 N 
HETATM   12  H7  UNL     1      24.462   2.966  49.209  1.00  0.00     0.168 HD
BRANCH  11  13
HETATM   13  C6  UNL     1      25.908   4.600  49.449  1.00  0.00     0.036 A 
HETATM   14  C7  UNL     1      27.141   4.429  48.857  1.00  0.00     0.029 A 
HETATM   15  C8  UNL     1      27.807   5.617  48.543  1.00  0.00     0.004 A 
HETATM   16  C9  UNL     1      27.254   6.855  48.811  1.00  0.00     0.024 A 
HETATM   17  C10 UNL     1      25.995   6.948  49.414  1.00  0.00     0.036 A 
HETATM   18 CL1  UNL     1      25.335   8.541  49.734  1.00  0.00    -0.084 Cl
HETATM   19  C11 UNL     1      25.293   5.794  49.747  1.00  0.00     0.053 A 
ENDBRANCH  11  13
ENDBRANCH   5  11
BRANCH   1  20
HETATM   20  C2  UNL     1      20.284   0.535  53.684  1.00  0.00     0.053 C 
HETATM   21  C1  UNL     1      19.410  -0.001  52.582  1.00  0.00     0.011 C 
ENDBRANCH   1  20
BRANCH  10  22
HETATM   22  C16 UNL     1      22.942  -1.319  54.241  1.00  0.00     0.202 C 
BRANCH  22  23
HETATM   23  O2  UNL     1      22.686  -1.509  55.615  1.00  0.00    -0.398 OA
HETATM   24  H18 UNL     1      22.094  -0.823  55.988  1.00  0.00     0.209 HD
ENDBRANCH  22  23
ENDBRANCH  10  22
TORSDOF 5
ENDMDL
