MODEL 1
REMARK VINA RESULT:      -8.7      0.000      0.000
REMARK  6 active torsions:
REMARK  status: ('A' for Active; 'I' for Inactive)
REMARK    1  A    between atoms: O1_2  and  C2_3 
REMARK    2  A    between atoms: N1_6  and  C5_7 
REMARK    3  A    between atoms: N4_17  and  C13_18 
REMARK    4  A    between atoms: C13_18  and  C14_19 
REMARK    5  A    between atoms: C14_19  and  N5_20 
REMARK    6  A    between atoms: C23_32  and  O5_33 
ROOT
HETATM    1  C5  UNL     1      24.154   0.760  53.404  1.00  0.00     0.140 A 
HETATM    2  N2  UNL     1      24.067  -0.386  54.067  1.00  0.00    -0.224 NA
HETATM    3  C6  UNL     1      22.867  -0.952  54.318  1.00  0.00     0.236 A 
HETATM    4  N3  UNL     1      21.716  -0.362  53.899  1.00  0.00    -0.241 NA
HETATM    5  C7  UNL     1      21.774   0.789  53.231  1.00  0.00     0.075 A 
HETATM    6  C8  UNL     1      20.614   1.397  52.799  1.00  0.00     0.071 A 
HETATM    7  C9  UNL     1      20.719   2.587  52.111  1.00  0.00     0.098 A 
HETATM    8  C10 UNL     1      21.937   3.216  51.825  1.00  0.00     0.071 A 
HETATM    9  C11 UNL     1      23.059   2.559  52.282  1.00  0.00     0.050 A 
HETATM   10  C12 UNL     1      22.994   1.369  52.973  1.00  0.00     0.041 A 
HETATM   11  N4  UNL     1      21.983   4.468  51.104  1.00  0.00    -0.312 N 
HETATM   12  C19 UNL     1      20.727   5.011  50.711  1.00  0.00     0.248 C 
HETATM   13  O3  UNL     1      20.684   6.256  50.530  1.00  0.00    -0.271 OA
HETATM   14  C20 UNL     1      19.568   4.065  50.549  1.00  0.00     0.279 C 
HETATM   15  O4  UNL     1      19.518   3.182  51.683  1.00  0.00    -0.340 OA
ENDROOT
BRANCH   1  16
HETATM   16  N1  UNL     1      25.461   1.305  53.173  1.00  0.00    -0.354 N 
HETATM   17  C4  UNL     1      26.368   2.220  53.861  1.00  0.00     0.155 C 
HETATM   18  C3  UNL     1      27.735   1.647  53.912  1.00  0.00     0.028 C 
HETATM   19  C2  UNL     1      28.219   0.615  53.232  1.00  0.00     0.074 C 
HETATM   20  C23 UNL     1      27.257  -0.053  52.293  1.00  0.00     0.199 C 
HETATM   21  C21 UNL     1      26.123   0.880  51.935  1.00  0.00     0.117 C 
HETATM   22  C22 UNL     1      26.608   2.074  51.135  1.00  0.00     0.035 C 
BRANCH  19  23
HETATM   23  O1  UNL     1      29.531   0.191  53.389  1.00  0.00    -0.358 OA
HETATM   24  C1  UNL     1      29.879  -1.104  53.814  1.00  0.00     0.209 C 
ENDBRANCH  19  23
BRANCH  20  25
HETATM   25  O5  UNL     1      26.720  -1.121  53.001  1.00  0.00    -0.382 OA
HETATM   26  C24 UNL     1      26.803  -2.332  52.360  1.00  0.00     0.202 C 
ENDBRANCH  20  25
ENDBRANCH   1  16
BRANCH  11  27
HETATM   27  C13 UNL     1      23.247   5.029  50.846  1.00  0.00     0.162 C 
BRANCH  27  28
HETATM   28  C14 UNL     1      23.709   4.806  49.430  1.00  0.00     0.292 C 
BRANCH  28  29
HETATM   29  N5  UNL     1      24.697   5.708  48.943  1.00  0.00     0.094 N 
HETATM   30  C15 UNL     1      26.052   5.253  49.219  1.00  0.00     0.298 C 
HETATM   31  C16 UNL     1      26.983   6.230  48.533  1.00  0.00     0.198 C 
HETATM   32  O2  UNL     1      26.946   7.408  49.277  1.00  0.00    -0.388 OA
HETATM   33  C17 UNL     1      25.850   7.429  50.139  1.00  0.00     0.198 C 
HETATM   34  C18 UNL     1      24.555   7.053  49.438  1.00  0.00     0.298 C 
ENDBRANCH  28  29
ENDBRANCH  27  28
ENDBRANCH  11  27
TORSDOF 6
ENDMDL
MODEL 2
REMARK VINA RESULT:      -8.7      2.467      3.753
REMARK  6 active torsions:
REMARK  status: ('A' for Active; 'I' for Inactive)
REMARK    1  A    between atoms: O1_2  and  C2_3 
REMARK    2  A    between atoms: N1_6  and  C5_7 
REMARK    3  A    between atoms: N4_17  and  C13_18 
REMARK    4  A    between atoms: C13_18  and  C14_19 
REMARK    5  A    between atoms: C14_19  and  N5_20 
REMARK    6  A    between atoms: C23_32  and  O5_33 
ROOT
HETATM    1  C5  UNL     1      24.711  -0.587  54.226  1.00  0.00     0.140 A 
HETATM    2  N2  UNL     1      24.956  -1.224  55.363  1.00  0.00    -0.224 NA
HETATM    3  C6  UNL     1      23.946  -1.722  56.110  1.00  0.00     0.236 A 
HETATM    4  N3  UNL     1      22.652  -1.582  55.716  1.00  0.00    -0.241 NA
HETATM    5  C7  UNL     1      22.378  -0.945  54.579  1.00  0.00     0.075 A 
HETATM    6  C8  UNL     1      21.071  -0.797  54.167  1.00  0.00     0.071 A 
HETATM    7  C9  UNL     1      20.831  -0.132  52.984  1.00  0.00     0.098 A 
HETATM    8  C10 UNL     1      21.839   0.403  52.173  1.00  0.00     0.071 A 
HETATM    9  C11 UNL     1      23.124   0.221  52.638  1.00  0.00     0.050 A 
HETATM   10  C12 UNL     1      23.403  -0.437  53.816  1.00  0.00     0.041 A 
HETATM   11  N4  UNL     1      21.525   1.096  50.944  1.00  0.00    -0.312 N 
HETATM   12  C19 UNL     1      20.142   1.198  50.618  1.00  0.00     0.248 C 
HETATM   13  O3  UNL     1      19.809   2.153  49.869  1.00  0.00    -0.271 OA
HETATM   14  C20 UNL     1      19.205   0.169  51.191  1.00  0.00     0.279 C 
HETATM   15  O4  UNL     1      19.486   0.001  52.591  1.00  0.00    -0.340 OA
ENDROOT
BRANCH   1  16
HETATM   16  N1  UNL     1      25.830  -0.082  53.484  1.00  0.00    -0.354 N 
HETATM   17  C4  UNL     1      26.508  -0.406  52.230  1.00  0.00     0.155 C 
HETATM   18  C3  UNL     1      26.730   0.826  51.434  1.00  0.00     0.028 C 
HETATM   19  C2  UNL     1      26.624   2.089  51.827  1.00  0.00     0.074 C 
HETATM   20  C23 UNL     1      26.228   2.292  53.261  1.00  0.00     0.199 C 
HETATM   21  C21 UNL     1      26.533   1.059  54.080  1.00  0.00     0.117 C 
HETATM   22  C22 UNL     1      28.024   0.797  54.170  1.00  0.00     0.035 C 
BRANCH  19  23
HETATM   23  O1  UNL     1      26.865   3.144  50.958  1.00  0.00    -0.358 OA
HETATM   24  C1  UNL     1      26.371   3.188  49.642  1.00  0.00     0.209 C 
ENDBRANCH  19  23
BRANCH  20  25
HETATM   25  O5  UNL     1      24.850   2.465  53.251  1.00  0.00    -0.382 OA
HETATM   26  C24 UNL     1      24.436   3.770  53.345  1.00  0.00     0.202 C 
ENDBRANCH  20  25
ENDBRANCH   1  16
BRANCH  11  27
HETATM   27  C13 UNL     1      22.596   1.594  50.181  1.00  0.00     0.162 C 
BRANCH  27  28
HETATM   28  C14 UNL     1      22.667   3.099  50.187  1.00  0.00     0.292 C 
BRANCH  28  29
HETATM   29  N5  UNL     1      22.862   3.723  48.922  1.00  0.00     0.094 N 
HETATM   30  C15 UNL     1      22.058   4.926  48.763  1.00  0.00     0.298 C 
HETATM   31  C16 UNL     1      22.467   5.547  47.444  1.00  0.00     0.198 C 
HETATM   32  O2  UNL     1      21.933   4.741  46.439  1.00  0.00    -0.388 OA
HETATM   33  C17 UNL     1      21.540   3.500  46.941  1.00  0.00     0.198 C 
HETATM   34  C18 UNL     1      22.616   2.855  47.799  1.00  0.00     0.298 C 
ENDBRANCH  28  29
ENDBRANCH  27  28
ENDBRANCH  11  27
TORSDOF 6
ENDMDL
MODEL 3
REMARK VINA RESULT:      -8.3      2.167      3.168
REMARK  6 active torsions:
REMARK  status: ('A' for Active; 'I' for Inactive)
REMARK    1  A    between atoms: O1_2  and  C2_3 
REMARK    2  A    between atoms: N1_6  and  C5_7 
REMARK    3  A    between atoms: N4_17  and  C13_18 
REMARK    4  A    between atoms: C13_18  and  C14_19 
REMARK    5  A    between atoms: C14_19  and  N5_20 
REMARK    6  A    between atoms: C23_32  and  O5_33 
ROOT
HETATM    1  C5  UNL     1      23.133   0.240  53.790  1.00  0.00     0.140 A 
HETATM    2  N2  UNL     1      23.642  -0.524  54.747  1.00  0.00    -0.224 NA
HETATM    3  C6  UNL     1      22.892  -1.473  55.349  1.00  0.00     0.236 A 
HETATM    4  N3  UNL     1      21.596  -1.670  54.990  1.00  0.00    -0.241 NA
HETATM    5  C7  UNL     1      21.059  -0.916  54.032  1.00  0.00     0.075 A 
HETATM    6  C8  UNL     1      19.745  -1.106  53.658  1.00  0.00     0.071 A 
HETATM    7  C9  UNL     1      19.229  -0.304  52.662  1.00  0.00     0.098 A 
HETATM    8  C10 UNL     1      19.962   0.693  52.007  1.00  0.00     0.071 A 
HETATM    9  C11 UNL     1      21.268   0.833  52.425  1.00  0.00     0.050 A 
HETATM   10  C12 UNL     1      21.818   0.051  53.417  1.00  0.00     0.041 A 
HETATM   11  N4  UNL     1      19.363   1.507  50.973  1.00  0.00    -0.312 N 
HETATM   12  C19 UNL     1      17.998   1.231  50.670  1.00  0.00     0.248 C 
HETATM   13  O3  UNL     1      17.333   2.173  50.165  1.00  0.00    -0.271 OA
HETATM   14  C20 UNL     1      17.471  -0.144  50.979  1.00  0.00     0.279 C 
HETATM   15  O4  UNL     1      17.886  -0.523  52.302  1.00  0.00    -0.340 OA
ENDROOT
BRANCH   1  16
HETATM   16  N1  UNL     1      23.984   1.229  53.195  1.00  0.00    -0.354 N 
HETATM   17  C4  UNL     1      24.451   2.572  53.530  1.00  0.00     0.155 C 
HETATM   18  C3  UNL     1      25.918   2.670  53.338  1.00  0.00     0.028 C 
HETATM   19  C2  UNL     1      26.722   1.825  52.704  1.00  0.00     0.074 C 
HETATM   20  C23 UNL     1      26.056   0.619  52.108  1.00  0.00     0.199 C 
HETATM   21  C21 UNL     1      24.580   0.868  51.904  1.00  0.00     0.117 C 
HETATM   22  C22 UNL     1      24.329   1.945  50.865  1.00  0.00     0.035 C 
BRANCH  19  23
HETATM   23  O1  UNL     1      28.087   2.054  52.608  1.00  0.00    -0.358 OA
HETATM   24  C1  UNL     1      28.920   2.239  53.726  1.00  0.00     0.209 C 
ENDBRANCH  19  23
BRANCH  20  25
HETATM   25  O5  UNL     1      26.189  -0.390  53.053  1.00  0.00    -0.382 OA
HETATM   26  C24 UNL     1      26.790  -1.533  52.589  1.00  0.00     0.202 C 
ENDBRANCH  20  25
ENDBRANCH   1  16
BRANCH  11  27
HETATM   27  C13 UNL     1      20.169   2.480  50.356  1.00  0.00     0.162 C 
BRANCH  27  28
HETATM   28  C14 UNL     1      20.375   3.699  51.216  1.00  0.00     0.292 C 
BRANCH  28  29
HETATM   29  N5  UNL     1      21.482   4.527  50.875  1.00  0.00     0.094 N 
HETATM   30  C15 UNL     1      22.225   4.976  52.044  1.00  0.00     0.298 C 
HETATM   31  C16 UNL     1      23.435   5.723  51.525  1.00  0.00     0.198 C 
HETATM   32  O2  UNL     1      22.972   6.940  51.027  1.00  0.00    -0.388 OA
HETATM   33  C17 UNL     1      21.590   6.917  50.839  1.00  0.00     0.198 C 
HETATM   34  C18 UNL     1      21.128   5.679  50.086  1.00  0.00     0.298 C 
ENDBRANCH  28  29
ENDBRANCH  27  28
ENDBRANCH  11  27
TORSDOF 6
ENDMDL
MODEL 4
REMARK VINA RESULT:      -8.2      2.048      5.873
REMARK  6 active torsions:
REMARK  status: ('A' for Active; 'I' for Inactive)
REMARK    1  A    between atoms: O1_2  and  C2_3 
REMARK    2  A    between atoms: N1_6  and  C5_7 
REMARK    3  A    between atoms: N4_17  and  C13_18 
REMARK    4  A    between atoms: C13_18  and  C14_19 
REMARK    5  A    between atoms: C14_19  and  N5_20 
REMARK    6  A    between atoms: C23_32  and  O5_33 
ROOT
HETATM    1  C5  UNL     1      21.065   0.502  52.989  1.00  0.00     0.140 A 
HETATM    2  N2  UNL     1      20.531  -0.445  53.747  1.00  0.00    -0.224 NA
HETATM    3  C6  UNL     1      21.313  -1.318  54.419  1.00  0.00     0.236 A 
HETATM    4  N3  UNL     1      22.668  -1.249  54.334  1.00  0.00    -0.241 NA
HETATM    5  C7  UNL     1      23.231  -0.308  53.579  1.00  0.00     0.075 A 
HETATM    6  C8  UNL     1      24.604  -0.225  53.485  1.00  0.00     0.071 A 
HETATM    7  C9  UNL     1      25.146   0.764  52.693  1.00  0.00     0.098 A 
HETATM    8  C10 UNL     1      24.382   1.693  51.977  1.00  0.00     0.071 A 
HETATM    9  C11 UNL     1      23.016   1.560  52.112  1.00  0.00     0.050 A 
HETATM   10  C12 UNL     1      22.439   0.583  52.894  1.00  0.00     0.041 A 
HETATM   11  N4  UNL     1      25.008   2.706  51.157  1.00  0.00    -0.312 N 
HETATM   12  C19 UNL     1      26.432   2.696  51.127  1.00  0.00     0.248 C 
HETATM   13  O3  UNL     1      26.976   3.204  50.112  1.00  0.00    -0.271 OA
HETATM   14  C20 UNL     1      27.158   2.084  52.294  1.00  0.00     0.279 C 
HETATM   15  O4  UNL     1      26.550   0.822  52.619  1.00  0.00    -0.340 OA
ENDROOT
BRANCH   1  16
HETATM   16  N1  UNL     1      20.176   1.395  52.302  1.00  0.00    -0.354 N 
HETATM   17  C4  UNL     1      19.861   2.821  52.341  1.00  0.00     0.155 C 
HETATM   18  C3  UNL     1      19.840   3.381  50.967  1.00  0.00     0.028 C 
HETATM   19  C2  UNL     1      19.818   2.725  49.814  1.00  0.00     0.074 C 
HETATM   20  C23 UNL     1      19.815   1.228  49.917  1.00  0.00     0.199 C 
HETATM   21  C21 UNL     1      19.323   0.786  51.276  1.00  0.00     0.117 C 
HETATM   22  C22 UNL     1      17.866   1.147  51.491  1.00  0.00     0.035 C 
BRANCH  19  23
HETATM   23  O1  UNL     1      19.801   3.394  48.598  1.00  0.00    -0.358 OA
HETATM   24  C1  UNL     1      18.768   3.254  47.653  1.00  0.00     0.209 C 
ENDBRANCH  19  23
BRANCH  20  25
HETATM   25  O5  UNL     1      21.144   0.839  49.801  1.00  0.00    -0.382 OA
HETATM   26  C24 UNL     1      21.694   1.047  48.560  1.00  0.00     0.202 C 
ENDBRANCH  20  25
ENDBRANCH   1  16
BRANCH  11  27
HETATM   27  C13 UNL     1      24.170   3.609  50.478  1.00  0.00     0.162 C 
BRANCH  27  28
HETATM   28  C14 UNL     1      24.090   4.953  51.152  1.00  0.00     0.292 C 
BRANCH  28  29
HETATM   29  N5  UNL     1      24.744   6.029  50.486  1.00  0.00     0.094 N 
HETATM   30  C15 UNL     1      24.121   7.316  50.760  1.00  0.00     0.298 C 
HETATM   31  C16 UNL     1      24.994   8.365  50.105  1.00  0.00     0.198 C 
HETATM   32  O2  UNL     1      24.782   8.261  48.731  1.00  0.00    -0.388 OA
HETATM   33  C17 UNL     1      24.163   7.055  48.405  1.00  0.00     0.198 C 
HETATM   34  C18 UNL     1      24.839   5.860  49.059  1.00  0.00     0.298 C 
ENDBRANCH  28  29
ENDBRANCH  27  28
ENDBRANCH  11  27
TORSDOF 6
ENDMDL
MODEL 5
REMARK VINA RESULT:      -8.2      2.003      6.135
REMARK  6 active torsions:
REMARK  status: ('A' for Active; 'I' for Inactive)
REMARK    1  A    between atoms: O1_2  and  C2_3 
REMARK    2  A    between atoms: N1_6  and  C5_7 
REMARK    3  A    between atoms: N4_17  and  C13_18 
REMARK    4  A    between atoms: C13_18  and  C14_19 
REMARK    5  A    between atoms: C14_19  and  N5_20 
REMARK    6  A    between atoms: C23_32  and  O5_33 
ROOT
HETATM    1  C5  UNL     1      20.751   4.173  50.941  1.00  0.00     0.140 A 
HETATM    2  N2  UNL     1      19.536   4.628  50.668  1.00  0.00    -0.224 NA
HETATM    3  C6  UNL     1      18.438   3.909  50.989  1.00  0.00     0.236 A 
HETATM    4  N3  UNL     1      18.550   2.700  51.599  1.00  0.00    -0.241 NA
HETATM    5  C7  UNL     1      19.759   2.218  51.885  1.00  0.00     0.075 A 
HETATM    6  C8  UNL     1      19.887   0.994  52.505  1.00  0.00     0.071 A 
HETATM    7  C9  UNL     1      21.156   0.533  52.783  1.00  0.00     0.098 A 
HETATM    8  C10 UNL     1      22.325   1.237  52.471  1.00  0.00     0.071 A 
HETATM    9  C11 UNL     1      22.131   2.454  51.854  1.00  0.00     0.050 A 
HETATM   10  C12 UNL     1      20.879   2.947  51.560  1.00  0.00     0.041 A 
HETATM   11  N4  UNL     1      23.630   0.699  52.783  1.00  0.00    -0.312 N 
HETATM   12  C19 UNL     1      23.647  -0.577  53.416  1.00  0.00     0.248 C 
HETATM   13  O3  UNL     1      24.691  -1.264  53.270  1.00  0.00    -0.271 OA
HETATM   14  C20 UNL     1      22.429  -0.993  54.197  1.00  0.00     0.279 C 
HETATM   15  O4  UNL     1      21.253  -0.720  53.417  1.00  0.00    -0.340 OA
ENDROOT
BRANCH   1  16
HETATM   16  N1  UNL     1      21.873   4.988  50.572  1.00  0.00    -0.354 N 
HETATM   17  C4  UNL     1      22.944   5.700  51.265  1.00  0.00     0.155 C 
HETATM   18  C3  UNL     1      24.252   5.405  50.628  1.00  0.00     0.028 C 
HETATM   19  C2  UNL     1      24.483   4.831  49.454  1.00  0.00     0.074 C 
HETATM   20  C23 UNL     1      23.265   4.431  48.675  1.00  0.00     0.199 C 
HETATM   21  C21 UNL     1      22.055   5.213  49.134  1.00  0.00     0.117 C 
HETATM   22  C22 UNL     1      22.190   6.692  48.824  1.00  0.00     0.035 C 
BRANCH  19  23
HETATM   23  O1  UNL     1      25.774   4.620  48.991  1.00  0.00    -0.358 OA
HETATM   24  C1  UNL     1      26.626   3.624  49.504  1.00  0.00     0.209 C 
ENDBRANCH  19  23
BRANCH  20  25
HETATM   25  O5  UNL     1      23.045   3.094  48.979  1.00  0.00    -0.382 OA
HETATM   26  C24 UNL     1      22.423   2.377  47.988  1.00  0.00     0.202 C 
ENDBRANCH  20  25
ENDBRANCH   1  16
BRANCH  11  27
HETATM   27  C13 UNL     1      24.755   1.473  52.448  1.00  0.00     0.162 C 
BRANCH  27  28
HETATM   28  C14 UNL     1      25.223   2.346  53.582  1.00  0.00     0.292 C 
BRANCH  28  29
HETATM   29  N5  UNL     1      26.558   2.131  54.030  1.00  0.00     0.094 N 
HETATM   30  C15 UNL     1      27.523   2.152  52.940  1.00  0.00     0.298 C 
HETATM   31  C16 UNL     1      28.893   2.049  53.574  1.00  0.00     0.198 C 
HETATM   32  O2  UNL     1      29.030   0.734  54.018  1.00  0.00    -0.388 OA
HETATM   33  C17 UNL     1      27.796   0.085  54.067  1.00  0.00     0.198 C 
HETATM   34  C18 UNL     1      26.734   0.911  54.774  1.00  0.00     0.298 C 
ENDBRANCH  28  29
ENDBRANCH  27  28
ENDBRANCH  11  27
TORSDOF 6
ENDMDL
MODEL 6
REMARK VINA RESULT:      -8.1      2.514      6.686
REMARK  6 active torsions:
REMARK  status: ('A' for Active; 'I' for Inactive)
REMARK    1  A    between atoms: O1_2  and  C2_3 
REMARK    2  A    between atoms: N1_6  and  C5_7 
REMARK    3  A    between atoms: N4_17  and  C13_18 
REMARK    4  A    between atoms: C13_18  and  C14_19 
REMARK    5  A    between atoms: C14_19  and  N5_20 
REMARK    6  A    between atoms: C23_32  and  O5_33 
ROOT
HETATM    1  C5  UNL     1      25.595   2.339  51.384  1.00  0.00     0.140 A 
HETATM    2  N2  UNL     1      26.903   2.475  51.561  1.00  0.00    -0.224 NA
HETATM    3  C6  UNL     1      27.551   1.762  52.507  1.00  0.00     0.236 A 
HETATM    4  N3  UNL     1      26.881   0.887  53.303  1.00  0.00    -0.241 NA
HETATM    5  C7  UNL     1      25.568   0.732  53.148  1.00  0.00     0.075 A 
HETATM    6  C8  UNL     1      24.876  -0.152  53.948  1.00  0.00     0.071 A 
HETATM    7  C9  UNL     1      23.518  -0.283  53.753  1.00  0.00     0.098 A 
HETATM    8  C10 UNL     1      22.797   0.432  52.788  1.00  0.00     0.071 A 
HETATM    9  C11 UNL     1      23.545   1.298  52.019  1.00  0.00     0.050 A 
HETATM   10  C12 UNL     1      24.903   1.456  52.185  1.00  0.00     0.041 A 
HETATM   11  N4  UNL     1      21.371   0.256  52.634  1.00  0.00    -0.312 N 
HETATM   12  C19 UNL     1      20.756  -0.677  53.518  1.00  0.00     0.248 C 
HETATM   13  O3  UNL     1      19.528  -0.512  53.744  1.00  0.00    -0.271 OA
HETATM   14  C20 UNL     1      21.613  -1.767  54.101  1.00  0.00     0.279 C 
HETATM   15  O4  UNL     1      22.840  -1.194  54.585  1.00  0.00    -0.340 OA
ENDROOT
BRANCH   1  16
HETATM   16  N1  UNL     1      24.970   3.129  50.361  1.00  0.00    -0.354 N 
HETATM   17  C4  UNL     1      24.245   2.877  49.118  1.00  0.00     0.155 C 
HETATM   18  C3  UNL     1      23.004   3.689  49.074  1.00  0.00     0.028 C 
HETATM   19  C2  UNL     1      22.662   4.710  49.850  1.00  0.00     0.074 C 
HETATM   20  C23 UNL     1      23.661   5.088  50.905  1.00  0.00     0.199 C 
HETATM   21  C21 UNL     1      25.039   4.583  50.542  1.00  0.00     0.117 C 
HETATM   22  C22 UNL     1      25.579   5.264  49.300  1.00  0.00     0.035 C 
BRANCH  19  23
HETATM   23  O1  UNL     1      21.456   5.376  49.687  1.00  0.00    -0.358 OA
HETATM   24  C1  UNL     1      21.186   6.637  50.249  1.00  0.00     0.209 C 
ENDBRANCH  19  23
BRANCH  20  25
HETATM   25  O5  UNL     1      23.258   4.428  52.059  1.00  0.00    -0.382 OA
HETATM   26  C24 UNL     1      23.676   5.014  53.228  1.00  0.00     0.202 C 
ENDBRANCH  20  25
ENDBRANCH   1  16
BRANCH  11  27
HETATM   27  C13 UNL     1      20.722   1.003  51.634  1.00  0.00     0.162 C 
BRANCH  27  28
HETATM   28  C14 UNL     1      20.233   2.340  52.128  1.00  0.00     0.292 C 
BRANCH  28  29
HETATM   29  N5  UNL     1      18.863   2.636  51.881  1.00  0.00     0.094 N 
HETATM   30  C15 UNL     1      18.166   1.542  51.219  1.00  0.00     0.298 C 
HETATM   31  C16 UNL     1      16.707   1.941  51.146  1.00  0.00     0.198 C 
HETATM   32  O2  UNL     1      16.613   2.937  50.175  1.00  0.00    -0.388 OA
HETATM   33  C17 UNL     1      17.866   3.470  49.873  1.00  0.00     0.198 C 
HETATM   34  C18 UNL     1      18.654   3.840  51.119  1.00  0.00     0.298 C 
ENDBRANCH  28  29
ENDBRANCH  27  28
ENDBRANCH  11  27
TORSDOF 6
ENDMDL
MODEL 7
REMARK VINA RESULT:      -8.0      2.452      7.953
REMARK  6 active torsions:
REMARK  status: ('A' for Active; 'I' for Inactive)
REMARK    1  A    between atoms: O1_2  and  C2_3 
REMARK    2  A    between atoms: N1_6  and  C5_7 
REMARK    3  A    between atoms: N4_17  and  C13_18 
REMARK    4  A    between atoms: C13_18  and  C14_19 
REMARK    5  A    between atoms: C14_19  and  N5_20 
REMARK    6  A    between atoms: C23_32  and  O5_33 
ROOT
HETATM    1  C5  UNL     1      24.467   3.130  49.570  1.00  0.00     0.140 A 
HETATM    2  N2  UNL     1      25.441   3.872  49.060  1.00  0.00    -0.224 NA
HETATM    3  C6  UNL     1      26.654   3.926  49.653  1.00  0.00     0.236 A 
HETATM    4  N3  UNL     1      26.908   3.222  50.788  1.00  0.00    -0.241 NA
HETATM    5  C7  UNL     1      25.947   2.470  51.322  1.00  0.00     0.075 A 
HETATM    6  C8  UNL     1      26.191   1.750  52.473  1.00  0.00     0.071 A 
HETATM    7  C9  UNL     1      25.170   0.984  52.992  1.00  0.00     0.098 A 
HETATM    8  C10 UNL     1      23.896   0.894  52.418  1.00  0.00     0.071 A 
HETATM    9  C11 UNL     1      23.714   1.635  51.270  1.00  0.00     0.050 A 
HETATM   10  C12 UNL     1      24.711   2.412  50.722  1.00  0.00     0.041 A 
HETATM   11  N4  UNL     1      22.862   0.077  53.013  1.00  0.00    -0.312 N 
HETATM   12  C19 UNL     1      23.219  -0.618  54.203  1.00  0.00     0.248 C 
HETATM   13  O3  UNL     1      22.277  -0.927  54.979  1.00  0.00    -0.271 OA
HETATM   14  C20 UNL     1      24.675  -0.921  54.434  1.00  0.00     0.279 C 
HETATM   15  O4  UNL     1      25.450   0.261  54.166  1.00  0.00    -0.340 OA
ENDROOT
BRANCH   1  16
HETATM   16  N1  UNL     1      23.204   3.120  48.890  1.00  0.00    -0.354 N 
HETATM   17  C4  UNL     1      22.287   2.112  48.364  1.00  0.00     0.155 C 
HETATM   18  C3  UNL     1      20.898   2.406  48.792  1.00  0.00     0.028 C 
HETATM   19  C2  UNL     1      20.423   3.524  49.326  1.00  0.00     0.074 C 
HETATM   20  C23 UNL     1      21.421   4.627  49.520  1.00  0.00     0.199 C 
HETATM   21  C21 UNL     1      22.615   4.435  48.613  1.00  0.00     0.117 C 
HETATM   22  C22 UNL     1      22.237   4.568  47.150  1.00  0.00     0.035 C 
BRANCH  19  23
HETATM   23  O1  UNL     1      19.086   3.650  49.679  1.00  0.00    -0.358 OA
HETATM   24  C1  UNL     1      18.463   4.889  49.914  1.00  0.00     0.209 C 
ENDBRANCH  19  23
BRANCH  20  25
HETATM   25  O5  UNL     1      21.862   4.510  50.832  1.00  0.00    -0.382 OA
HETATM   26  C24 UNL     1      21.922   5.694  51.524  1.00  0.00     0.202 C 
ENDBRANCH  20  25
ENDBRANCH   1  16
BRANCH  11  27
HETATM   27  C13 UNL     1      21.612   0.031  52.369  1.00  0.00     0.162 C 
BRANCH  27  28
HETATM   28  C14 UNL     1      20.621   1.009  52.945  1.00  0.00     0.292 C 
BRANCH  28  29
HETATM   29  N5  UNL     1      19.256   0.603  52.925  1.00  0.00     0.094 N 
HETATM   30  C15 UNL     1      19.098  -0.833  53.102  1.00  0.00     0.298 C 
HETATM   31  C16 UNL     1      17.610  -1.095  53.196  1.00  0.00     0.198 C 
HETATM   32  O2  UNL     1      17.093  -0.931  51.912  1.00  0.00    -0.388 OA
HETATM   33  C17 UNL     1      17.992  -0.256  51.086  1.00  0.00     0.198 C 
HETATM   34  C18 UNL     1      18.546   1.000  51.738  1.00  0.00     0.298 C 
ENDBRANCH  28  29
ENDBRANCH  27  28
ENDBRANCH  11  27
TORSDOF 6
ENDMDL
MODEL 8
REMARK VINA RESULT:      -7.9      2.032      6.571
REMARK  6 active torsions:
REMARK  status: ('A' for Active; 'I' for Inactive)
REMARK    1  A    between atoms: O1_2  and  C2_3 
REMARK    2  A    between atoms: N1_6  and  C5_7 
REMARK    3  A    between atoms: N4_17  and  C13_18 
REMARK    4  A    between atoms: C13_18  and  C14_19 
REMARK    5  A    between atoms: C14_19  and  N5_20 
REMARK    6  A    between atoms: C23_32  and  O5_33 
ROOT
HETATM    1  C5  UNL     1      21.481  -0.133  53.053  1.00  0.00     0.140 A 
HETATM    2  N2  UNL     1      20.542  -0.902  53.586  1.00  0.00    -0.224 NA
HETATM    3  C6  UNL     1      20.837  -1.766  54.582  1.00  0.00     0.236 A 
HETATM    4  N3  UNL     1      22.104  -1.870  55.063  1.00  0.00    -0.241 NA
HETATM    5  C7  UNL     1      23.067  -1.110  54.546  1.00  0.00     0.075 A 
HETATM    6  C8  UNL     1      24.356  -1.204  55.025  1.00  0.00     0.071 A 
HETATM    7  C9  UNL     1      25.322  -0.399  54.462  1.00  0.00     0.098 A 
HETATM    8  C10 UNL     1      25.071   0.512  53.428  1.00  0.00     0.071 A 
HETATM    9  C11 UNL     1      23.764   0.561  52.993  1.00  0.00     0.050 A 
HETATM   10  C12 UNL     1      22.771  -0.229  53.532  1.00  0.00     0.041 A 
HETATM   11  N4  UNL     1      26.128   1.327  52.873  1.00  0.00    -0.312 N 
HETATM   12  C19 UNL     1      27.423   1.144  53.438  1.00  0.00     0.248 C 
HETATM   13  O3  UNL     1      28.403   1.446  52.707  1.00  0.00    -0.271 OA
HETATM   14  C20 UNL     1      27.511   0.609  54.842  1.00  0.00     0.279 C 
HETATM   15  O4  UNL     1      26.628  -0.518  54.974  1.00  0.00    -0.340 OA
ENDROOT
BRANCH   1  16
HETATM   16  N1  UNL     1      21.099   0.761  51.998  1.00  0.00    -0.354 N 
HETATM   17  C4  UNL     1      21.471   0.980  50.602  1.00  0.00     0.155 C 
HETATM   18  C3  UNL     1      20.256   1.101  49.759  1.00  0.00     0.028 C 
HETATM   19  C2  UNL     1      19.000   1.277  50.149  1.00  0.00     0.074 C 
HETATM   20  C23 UNL     1      18.787   1.364  51.632  1.00  0.00     0.199 C 
HETATM   21  C21 UNL     1      20.068   1.748  52.336  1.00  0.00     0.117 C 
HETATM   22  C22 UNL     1      20.512   3.152  51.971  1.00  0.00     0.035 C 
BRANCH  19  23
HETATM   23  O1  UNL     1      17.962   1.371  49.234  1.00  0.00    -0.358 OA
HETATM   24  C1  UNL     1      16.963   2.360  49.297  1.00  0.00     0.209 C 
ENDBRANCH  19  23
BRANCH  20  25
HETATM   25  O5  UNL     1      18.446   0.081  52.040  1.00  0.00    -0.382 OA
HETATM   26  C24 UNL     1      17.106  -0.114  52.258  1.00  0.00     0.202 C 
ENDBRANCH  20  25
ENDBRANCH   1  16
BRANCH  11  27
HETATM   27  C13 UNL     1      25.791   2.226  51.845  1.00  0.00     0.162 C 
BRANCH  27  28
HETATM   28  C14 UNL     1      24.768   3.246  52.272  1.00  0.00     0.292 C 
BRANCH  28  29
HETATM   29  N5  UNL     1      23.959   3.793  51.236  1.00  0.00     0.094 N 
HETATM   30  C15 UNL     1      24.319   3.287  49.919  1.00  0.00     0.298 C 
HETATM   31  C16 UNL     1      23.299   3.844  48.949  1.00  0.00     0.198 C 
HETATM   32  O2  UNL     1      23.589   5.199  48.797  1.00  0.00    -0.388 OA
HETATM   33  C17 UNL     1      24.435   5.652  49.809  1.00  0.00     0.198 C 
HETATM   34  C18 UNL     1      23.962   5.233  51.191  1.00  0.00     0.298 C 
ENDBRANCH  28  29
ENDBRANCH  27  28
ENDBRANCH  11  27
TORSDOF 6
ENDMDL
MODEL 9
REMARK VINA RESULT:      -7.8      2.447      8.250
REMARK  6 active torsions:
REMARK  status: ('A' for Active; 'I' for Inactive)
REMARK    1  A    between atoms: O1_2  and  C2_3 
REMARK    2  A    between atoms: N1_6  and  C5_7 
REMARK    3  A    between atoms: N4_17  and  C13_18 
REMARK    4  A    between atoms: C13_18  and  C14_19 
REMARK    5  A    between atoms: C14_19  and  N5_20 
REMARK    6  A    between atoms: C23_32  and  O5_33 
ROOT
HETATM    1  C5  UNL     1      23.702   3.376  49.830  1.00  0.00     0.140 A 
HETATM    2  N2  UNL     1      24.161   4.364  49.074  1.00  0.00    -0.224 NA
HETATM    3  C6  UNL     1      25.458   4.739  49.136  1.00  0.00     0.236 A 
HETATM    4  N3  UNL     1      26.325   4.115  49.976  1.00  0.00    -0.241 NA
HETATM    5  C7  UNL     1      25.890   3.120  50.748  1.00  0.00     0.075 A 
HETATM    6  C8  UNL     1      26.759   2.477  51.603  1.00  0.00     0.071 A 
HETATM    7  C9  UNL     1      26.268   1.453  52.383  1.00  0.00     0.098 A 
HETATM    8  C10 UNL     1      24.935   1.025  52.358  1.00  0.00     0.071 A 
HETATM    9  C11 UNL     1      24.117   1.706  51.482  1.00  0.00     0.050 A 
HETATM   10  C12 UNL     1      24.571   2.735  50.687  1.00  0.00     0.041 A 
HETATM   11  N4  UNL     1      24.477  -0.053  53.205  1.00  0.00    -0.312 N 
HETATM   12  C19 UNL     1      25.457  -0.642  54.056  1.00  0.00     0.248 C 
HETATM   13  O3  UNL     1      25.031  -1.208  55.096  1.00  0.00    -0.271 OA
HETATM   14  C20 UNL     1      26.901  -0.537  53.646  1.00  0.00     0.279 C 
HETATM   15  O4  UNL     1      27.181   0.816  53.245  1.00  0.00    -0.340 OA
ENDROOT
BRANCH   1  16
HETATM   16  N1  UNL     1      22.314   3.031  49.715  1.00  0.00    -0.354 N 
HETATM   17  C4  UNL     1      21.081   3.321  50.443  1.00  0.00     0.155 C 
HETATM   18  C3  UNL     1      20.008   3.718  49.498  1.00  0.00     0.028 C 
HETATM   19  C2  UNL     1      19.987   3.590  48.178  1.00  0.00     0.074 C 
HETATM   20  C23 UNL     1      21.207   2.964  47.566  1.00  0.00     0.199 C 
HETATM   21  C21 UNL     1      21.964   2.153  48.593  1.00  0.00     0.117 C 
HETATM   22  C22 UNL     1      21.164   0.954  49.065  1.00  0.00     0.035 C 
BRANCH  19  23
HETATM   23  O1  UNL     1      18.902   4.013  47.423  1.00  0.00    -0.358 OA
HETATM   24  C1  UNL     1      18.422   3.314  46.300  1.00  0.00     0.209 C 
ENDBRANCH  19  23
BRANCH  20  25
HETATM   25  O5  UNL     1      22.019   4.021  47.178  1.00  0.00    -0.382 OA
HETATM   26  C24 UNL     1      22.011   4.284  45.831  1.00  0.00     0.202 C 
ENDBRANCH  20  25
ENDBRANCH   1  16
BRANCH  11  27
HETATM   27  C13 UNL     1      23.125  -0.430  53.113  1.00  0.00     0.162 C 
BRANCH  27  28
HETATM   28  C14 UNL     1      22.292   0.098  54.251  1.00  0.00     0.292 C 
BRANCH  28  29
HETATM   29  N5  UNL     1      20.880   0.021  54.082  1.00  0.00     0.094 N 
HETATM   30  C15 UNL     1      20.434  -1.315  53.712  1.00  0.00     0.298 C 
HETATM   31  C16 UNL     1      18.920  -1.277  53.702  1.00  0.00     0.198 C 
HETATM   32  O2  UNL     1      18.546  -0.554  52.570  1.00  0.00    -0.388 OA
HETATM   33  C17 UNL     1      19.620   0.172  52.055  1.00  0.00     0.198 C 
HETATM   34  C18 UNL     1      20.354   0.961  53.127  1.00  0.00     0.298 C 
ENDBRANCH  28  29
ENDBRANCH  27  28
ENDBRANCH  11  27
TORSDOF 6
ENDMDL
