MODEL 1
REMARK VINA RESULT:      -7.3      0.000      0.000
REMARK  8 active torsions:
REMARK  status: ('A' for Active; 'I' for Inactive)
REMARK    1  A    between atoms: C2_2  and  C3_3 
REMARK    2  A    between atoms: C3_3  and  C4_4 
REMARK    3  A    between atoms: C6_6  and  O1_7 
REMARK    4  A    between atoms: C9_10  and  C10_11 
REMARK    5  A    between atoms: C10_11  and  C11_12 
REMARK    6  A    between atoms: N1_17  and  C16_18 
REMARK    7  A    between atoms: C16_18  and  C17_19 
REMARK    8  A    between atoms: C17_19  and  C18_20 
ROOT
HETATM    1  C10 UNL     1      25.998   1.432  51.569  1.00  0.00     0.096 C 
ENDROOT
BRANCH   1   2
HETATM    2  C9  UNL     1      25.281   2.720  51.536  1.00  0.00    -0.046 A 
HETATM    3  C4  UNL     1      25.424   3.671  50.556  1.00  0.00    -0.045 A 
HETATM    4  C5  UNL     1      24.635   4.793  50.702  1.00  0.00     0.044 A 
HETATM    5  C6  UNL     1      23.743   5.018  51.732  1.00  0.00     0.066 A 
HETATM    6  C7  UNL     1      23.623   4.044  52.701  1.00  0.00     0.037 A 
HETATM    7  C8  UNL     1      24.401   2.883  52.602  1.00  0.00     0.011 A 
BRANCH   3   8
HETATM    8  C3  UNL     1      26.379   3.476  49.447  1.00  0.00     0.065 C 
BRANCH   8   9
HETATM    9  C2  UNL     1      26.794   4.837  48.934  1.00  0.00    -0.032 C 
HETATM   10  C1  UNL     1      28.056   5.125  48.532  1.00  0.00     0.007 C 
ENDBRANCH   8   9
ENDBRANCH   3   8
BRANCH   5  11
HETATM   11  O1  UNL     1      22.967   6.158  51.848  1.00  0.00    -0.361 OA
HETATM   12  H7  UNL     1      22.748   6.528  52.779  1.00  0.00     0.217 HD
ENDBRANCH   5  11
ENDBRANCH   1   2
BRANCH   1  13
HETATM   13  C11 UNL     1      26.926   1.283  52.690  1.00  0.00     0.011 A 
HETATM   14  C12 UNL     1      27.895   2.179  52.742  1.00  0.00     0.025 A 
HETATM   15  C13 UNL     1      28.912   2.194  53.784  1.00  0.00    -0.001 A 
HETATM   16  C14 UNL     1      28.752   1.221  54.662  1.00  0.00    -0.007 A 
HETATM   17  C15 UNL     1      27.737   0.156  54.750  1.00  0.00     0.150 A 
HETATM   18  N1  UNL     1      26.801   0.213  53.648  1.00  0.00    -0.380 N 
BRANCH  18  19
HETATM   19  C16 UNL     1      25.734  -0.716  53.379  1.00  0.00     0.127 C 
BRANCH  19  20
HETATM   20  C17 UNL     1      24.583  -0.549  54.337  1.00  0.00     0.047 C 
BRANCH  20  21
HETATM   21  C18 UNL     1      23.282  -0.925  53.783  1.00  0.00    -0.018 C 
HETATM   22  C19 UNL     1      22.753  -0.122  52.829  1.00  0.00     0.160 C 
HETATM   23 BR1  UNL     1      21.509   0.557  51.505  1.00  0.00    -0.172 Br
ENDBRANCH  20  21
ENDBRANCH  19  20
ENDBRANCH  18  19
ENDBRANCH   1  13
TORSDOF 8
ENDMDL
MODEL 2
REMARK VINA RESULT:      -7.2      3.687      7.173
REMARK  8 active torsions:
REMARK  status: ('A' for Active; 'I' for Inactive)
REMARK    1  A    between atoms: C2_2  and  C3_3 
REMARK    2  A    between atoms: C3_3  and  C4_4 
REMARK    3  A    between atoms: C6_6  and  O1_7 
REMARK    4  A    between atoms: C9_10  and  C10_11 
REMARK    5  A    between atoms: C10_11  and  C11_12 
REMARK    6  A    between atoms: N1_17  and  C16_18 
REMARK    7  A    between atoms: C16_18  and  C17_19 
REMARK    8  A    between atoms: C17_19  and  C18_20 
ROOT
HETATM    1  C10 UNL     1      23.713   2.123  52.239  1.00  0.00     0.096 C 
ENDROOT
BRANCH   1   2
HETATM    2  C9  UNL     1      24.566   0.967  52.569  1.00  0.00    -0.046 A 
HETATM    3  C4  UNL     1      24.211  -0.052  53.416  1.00  0.00    -0.045 A 
HETATM    4  C5  UNL     1      25.149  -1.053  53.562  1.00  0.00     0.044 A 
HETATM    5  C6  UNL     1      26.378  -1.097  52.937  1.00  0.00     0.066 A 
HETATM    6  C7  UNL     1      26.707  -0.058  52.092  1.00  0.00     0.037 A 
HETATM    7  C8  UNL     1      25.791   0.986  51.906  1.00  0.00     0.011 A 
BRANCH   3   8
HETATM    8  C3  UNL     1      22.911  -0.035  54.117  1.00  0.00     0.065 C 
BRANCH   8   9
HETATM    9  C2  UNL     1      22.086  -1.199  53.617  1.00  0.00    -0.032 C 
HETATM   10  C1  UNL     1      20.951  -1.621  54.226  1.00  0.00     0.007 C 
ENDBRANCH   8   9
ENDBRANCH   3   8
BRANCH   5  11
HETATM   11  O1  UNL     1      27.297  -2.118  53.108  1.00  0.00    -0.361 OA
HETATM   12  H7  UNL     1      27.973  -2.321  52.363  1.00  0.00     0.217 HD
ENDBRANCH   5  11
ENDBRANCH   1   2
BRANCH   1  13
HETATM   13  C11 UNL     1      23.162   2.104  50.883  1.00  0.00     0.011 A 
HETATM   14  C12 UNL     1      22.268   1.159  50.652  1.00  0.00     0.025 A 
HETATM   15  C13 UNL     1      21.608   0.983  49.366  1.00  0.00    -0.001 A 
HETATM   16  C14 UNL     1      22.000   1.871  48.471  1.00  0.00    -0.007 A 
HETATM   17  C15 UNL     1      22.969   2.977  48.566  1.00  0.00     0.150 A 
HETATM   18  N1  UNL     1      23.590   3.037  49.871  1.00  0.00    -0.380 N 
BRANCH  18  19
HETATM   19  C16 UNL     1      24.633   3.939  50.285  1.00  0.00     0.127 C 
BRANCH  19  20
HETATM   20  C17 UNL     1      25.878   3.784  49.450  1.00  0.00     0.047 C 
BRANCH  20  21
HETATM   21  C18 UNL     1      26.440   5.048  48.970  1.00  0.00    -0.018 C 
HETATM   22  C19 UNL     1      27.760   5.070  48.668  1.00  0.00     0.160 C 
HETATM   23 BR1  UNL     1      29.485   5.743  48.090  1.00  0.00    -0.172 Br
ENDBRANCH  20  21
ENDBRANCH  19  20
ENDBRANCH  18  19
ENDBRANCH   1  13
TORSDOF 8
ENDMDL
MODEL 3
REMARK VINA RESULT:      -6.8      3.455      5.871
REMARK  8 active torsions:
REMARK  status: ('A' for Active; 'I' for Inactive)
REMARK    1  A    between atoms: C2_2  and  C3_3 
REMARK    2  A    between atoms: C3_3  and  C4_4 
REMARK    3  A    between atoms: C6_6  and  O1_7 
REMARK    4  A    between atoms: C9_10  and  C10_11 
REMARK    5  A    between atoms: C10_11  and  C11_12 
REMARK    6  A    between atoms: N1_17  and  C16_18 
REMARK    7  A    between atoms: C16_18  and  C17_19 
REMARK    8  A    between atoms: C17_19  and  C18_20 
ROOT
HETATM    1  C10 UNL     1      23.125   1.165  51.439  1.00  0.00     0.096 C 
ENDROOT
BRANCH   1   2
HETATM    2  C9  UNL     1      23.284   0.345  52.654  1.00  0.00    -0.046 A 
HETATM    3  C4  UNL     1      24.486  -0.077  53.162  1.00  0.00    -0.045 A 
HETATM    4  C5  UNL     1      24.410  -0.811  54.328  1.00  0.00     0.044 A 
HETATM    5  C6  UNL     1      23.246  -1.138  54.995  1.00  0.00     0.066 A 
HETATM    6  C7  UNL     1      22.053  -0.699  54.459  1.00  0.00     0.037 A 
HETATM    7  C8  UNL     1      22.073   0.050  53.275  1.00  0.00     0.011 A 
BRANCH   3   8
HETATM    8  C3  UNL     1      25.752   0.237  52.471  1.00  0.00     0.065 C 
BRANCH   8   9
HETATM    9  C2  UNL     1      26.719   0.805  53.485  1.00  0.00    -0.032 C 
HETATM   10  C1  UNL     1      27.092   2.107  53.508  1.00  0.00     0.007 C 
ENDBRANCH   8   9
ENDBRANCH   3   8
BRANCH   5  11
HETATM   11  O1  UNL     1      23.206  -1.878  56.164  1.00  0.00    -0.361 OA
HETATM   12  H7  UNL     1      22.907  -2.859  56.133  1.00  0.00     0.217 HD
ENDBRANCH   5  11
ENDBRANCH   1   2
BRANCH   1  13
HETATM   13  C11 UNL     1      22.728   2.551  51.688  1.00  0.00     0.011 A 
HETATM   14  C12 UNL     1      23.590   3.266  52.388  1.00  0.00     0.025 A 
HETATM   15  C13 UNL     1      23.372   4.663  52.735  1.00  0.00    -0.001 A 
HETATM   16  C14 UNL     1      22.226   5.127  52.268  1.00  0.00    -0.007 A 
HETATM   17  C15 UNL     1      21.169   4.473  51.477  1.00  0.00     0.150 A 
HETATM   18  N1  UNL     1      21.471   3.081  51.222  1.00  0.00    -0.380 N 
BRANCH  18  19
HETATM   19  C16 UNL     1      20.626   2.128  50.551  1.00  0.00     0.127 C 
BRANCH  19  20
HETATM   20  C17 UNL     1      19.424   1.756  51.379  1.00  0.00     0.047 C 
BRANCH  20  21
HETATM   21  C18 UNL     1      18.951   0.387  51.170  1.00  0.00    -0.018 C 
HETATM   22  C19 UNL     1      18.534  -0.303  52.259  1.00  0.00     0.160 C 
HETATM   23 BR1  UNL     1      17.834  -1.757  53.335  1.00  0.00    -0.172 Br
ENDBRANCH  20  21
ENDBRANCH  19  20
ENDBRANCH  18  19
ENDBRANCH   1  13
TORSDOF 8
ENDMDL
MODEL 4
REMARK VINA RESULT:      -6.8      3.365      6.782
REMARK  8 active torsions:
REMARK  status: ('A' for Active; 'I' for Inactive)
REMARK    1  A    between atoms: C2_2  and  C3_3 
REMARK    2  A    between atoms: C3_3  and  C4_4 
REMARK    3  A    between atoms: C6_6  and  O1_7 
REMARK    4  A    between atoms: C9_10  and  C10_11 
REMARK    5  A    between atoms: C10_11  and  C11_12 
REMARK    6  A    between atoms: N1_17  and  C16_18 
REMARK    7  A    between atoms: C16_18  and  C17_19 
REMARK    8  A    between atoms: C17_19  and  C18_20 
ROOT
HETATM    1  C10 UNL     1      24.530   1.686  51.219  1.00  0.00     0.096 C 
ENDROOT
BRANCH   1   2
HETATM    2  C9  UNL     1      25.346   1.086  52.291  1.00  0.00    -0.046 A 
HETATM    3  C4  UNL     1      24.943   0.051  53.096  1.00  0.00    -0.045 A 
HETATM    4  C5  UNL     1      25.876  -0.378  54.018  1.00  0.00     0.044 A 
HETATM    5  C6  UNL     1      27.143   0.145  54.180  1.00  0.00     0.066 A 
HETATM    6  C7  UNL     1      27.519   1.185  53.356  1.00  0.00     0.037 A 
HETATM    7  C8  UNL     1      26.610   1.661  52.401  1.00  0.00     0.011 A 
BRANCH   3   8
HETATM    8  C3  UNL     1      23.591  -0.526  52.966  1.00  0.00     0.065 C 
BRANCH   8   9
HETATM    9  C2  UNL     1      22.758  -0.052  54.136  1.00  0.00    -0.032 C 
HETATM   10  C1  UNL     1      21.994  -0.882  54.888  1.00  0.00     0.007 C 
ENDBRANCH   8   9
ENDBRANCH   3   8
BRANCH   5  11
HETATM   11  O1  UNL     1      28.054  -0.310  55.117  1.00  0.00    -0.361 OA
HETATM   12  H7  UNL     1      28.082   0.122  56.047  1.00  0.00     0.217 HD
ENDBRANCH   5  11
ENDBRANCH   1   2
BRANCH   1  13
HETATM   13  C11 UNL     1      24.207   3.098  51.420  1.00  0.00     0.011 A 
HETATM   14  C12 UNL     1      23.479   3.363  52.490  1.00  0.00     0.025 A 
HETATM   15  C13 UNL     1      23.061   4.708  52.857  1.00  0.00    -0.001 A 
HETATM   16  C14 UNL     1      23.491   5.622  52.006  1.00  0.00    -0.007 A 
HETATM   17  C15 UNL     1      24.304   5.497  50.784  1.00  0.00     0.150 A 
HETATM   18  N1  UNL     1      24.633   4.118  50.495  1.00  0.00    -0.380 N 
BRANCH  18  19
HETATM   19  C16 UNL     1      25.343   3.629  49.342  1.00  0.00     0.127 C 
BRANCH  19  20
HETATM   20  C17 UNL     1      26.813   3.952  49.404  1.00  0.00     0.047 C 
BRANCH  20  21
HETATM   21  C18 UNL     1      27.202   5.133  48.631  1.00  0.00    -0.018 C 
HETATM   22  C19 UNL     1      28.525   5.351  48.446  1.00  0.00     0.160 C 
HETATM   23 BR1  UNL     1      30.166   6.193  47.844  1.00  0.00    -0.172 Br
ENDBRANCH  20  21
ENDBRANCH  19  20
ENDBRANCH  18  19
ENDBRANCH   1  13
TORSDOF 8
ENDMDL
MODEL 5
REMARK VINA RESULT:      -6.8      3.733      6.750
REMARK  8 active torsions:
REMARK  status: ('A' for Active; 'I' for Inactive)
REMARK    1  A    between atoms: C2_2  and  C3_3 
REMARK    2  A    between atoms: C3_3  and  C4_4 
REMARK    3  A    between atoms: C6_6  and  O1_7 
REMARK    4  A    between atoms: C9_10  and  C10_11 
REMARK    5  A    between atoms: C10_11  and  C11_12 
REMARK    6  A    between atoms: N1_17  and  C16_18 
REMARK    7  A    between atoms: C16_18  and  C17_19 
REMARK    8  A    between atoms: C17_19  and  C18_20 
ROOT
HETATM    1  C10 UNL     1      22.290   2.435  52.158  1.00  0.00     0.096 C 
ENDROOT
BRANCH   1   2
HETATM    2  C9  UNL     1      22.440   1.219  52.977  1.00  0.00    -0.046 A 
HETATM    3  C4  UNL     1      23.598   0.494  53.099  1.00  0.00    -0.045 A 
HETATM    4  C5  UNL     1      23.528  -0.596  53.941  1.00  0.00     0.044 A 
HETATM    5  C6  UNL     1      22.410  -0.995  54.646  1.00  0.00     0.066 A 
HETATM    6  C7  UNL     1      21.260  -0.246  54.502  1.00  0.00     0.037 A 
HETATM    7  C8  UNL     1      21.275   0.872  53.658  1.00  0.00     0.011 A 
BRANCH   3   8
HETATM    8  C3  UNL     1      24.812   0.877  52.350  1.00  0.00     0.065 C 
BRANCH   8   9
HETATM    9  C2  UNL     1      25.990   0.139  52.945  1.00  0.00    -0.032 C 
HETATM   10  C1  UNL     1      26.831  -0.631  52.212  1.00  0.00     0.007 C 
ENDBRANCH   8   9
ENDBRANCH   3   8
BRANCH   5  11
HETATM   11  O1  UNL     1      22.374  -2.096  55.483  1.00  0.00    -0.361 OA
HETATM   12  H7  UNL     1      21.526  -2.292  56.026  1.00  0.00     0.217 HD
ENDBRANCH   5  11
ENDBRANCH   1   2
BRANCH   1  13
HETATM   13  C11 UNL     1      22.262   2.197  50.715  1.00  0.00     0.011 A 
HETATM   14  C12 UNL     1      21.442   1.240  50.318  1.00  0.00     0.025 A 
HETATM   15  C13 UNL     1      21.276   0.860  48.922  1.00  0.00    -0.001 A 
HETATM   16  C14 UNL     1      22.030   1.578  48.109  1.00  0.00    -0.007 A 
HETATM   17  C15 UNL     1      22.981   2.669  48.385  1.00  0.00     0.150 A 
HETATM   18  N1  UNL     1      23.095   2.939  49.802  1.00  0.00    -0.380 N 
BRANCH  18  19
HETATM   19  C16 UNL     1      23.986   3.881  50.428  1.00  0.00     0.127 C 
BRANCH  19  20
HETATM   20  C17 UNL     1      24.900   4.543  49.431  1.00  0.00     0.047 C 
BRANCH  20  21
HETATM   21  C18 UNL     1      26.306   4.156  49.556  1.00  0.00    -0.018 C 
HETATM   22  C19 UNL     1      27.220   4.893  48.880  1.00  0.00     0.160 C 
HETATM   23 BR1  UNL     1      28.937   5.498  48.212  1.00  0.00    -0.172 Br
ENDBRANCH  20  21
ENDBRANCH  19  20
ENDBRANCH  18  19
ENDBRANCH   1  13
TORSDOF 8
ENDMDL
MODEL 6
REMARK VINA RESULT:      -6.7      3.386      5.770
REMARK  8 active torsions:
REMARK  status: ('A' for Active; 'I' for Inactive)
REMARK    1  A    between atoms: C2_2  and  C3_3 
REMARK    2  A    between atoms: C3_3  and  C4_4 
REMARK    3  A    between atoms: C6_6  and  O1_7 
REMARK    4  A    between atoms: C9_10  and  C10_11 
REMARK    5  A    between atoms: C10_11  and  C11_12 
REMARK    6  A    between atoms: N1_17  and  C16_18 
REMARK    7  A    between atoms: C16_18  and  C17_19 
REMARK    8  A    between atoms: C17_19  and  C18_20 
ROOT
HETATM    1  C10 UNL     1      24.429   1.285  51.652  1.00  0.00     0.096 C 
ENDROOT
BRANCH   1   2
HETATM    2  C9  UNL     1      24.285   0.422  52.839  1.00  0.00    -0.046 A 
HETATM    3  C4  UNL     1      25.320   0.019  53.645  1.00  0.00    -0.045 A 
HETATM    4  C5  UNL     1      24.961  -0.764  54.722  1.00  0.00     0.044 A 
HETATM    5  C6  UNL     1      23.675  -1.158  55.033  1.00  0.00     0.066 A 
HETATM    6  C7  UNL     1      22.656  -0.738  54.204  1.00  0.00     0.037 A 
HETATM    7  C8  UNL     1      22.965   0.060  53.094  1.00  0.00     0.011 A 
BRANCH   3   8
HETATM    8  C3  UNL     1      26.712   0.405  53.338  1.00  0.00     0.065 C 
BRANCH   8   9
HETATM    9  C2  UNL     1      27.513  -0.855  53.099  1.00  0.00    -0.032 C 
HETATM   10  C1  UNL     1      28.823  -0.975  53.424  1.00  0.00     0.007 C 
ENDBRANCH   8   9
ENDBRANCH   3   8
BRANCH   5  11
HETATM   11  O1  UNL     1      23.349  -1.947  56.123  1.00  0.00    -0.361 OA
HETATM   12  H7  UNL     1      24.087  -2.245  56.771  1.00  0.00     0.217 HD
ENDBRANCH   5  11
ENDBRANCH   1   2
BRANCH   1  13
HETATM   13  C11 UNL     1      23.660   2.528  51.709  1.00  0.00     0.011 A 
HETATM   14  C12 UNL     1      24.012   3.364  52.669  1.00  0.00     0.025 A 
HETATM   15  C13 UNL     1      23.365   4.651  52.883  1.00  0.00    -0.001 A 
HETATM   16  C14 UNL     1      22.400   4.883  52.011  1.00  0.00    -0.007 A 
HETATM   17  C15 UNL     1      21.892   4.069  50.893  1.00  0.00     0.150 A 
HETATM   18  N1  UNL     1      22.579   2.800  50.796  1.00  0.00    -0.380 N 
BRANCH  18  19
HETATM   19  C16 UNL     1      22.287   1.734  49.873  1.00  0.00     0.127 C 
BRANCH  19  20
HETATM   20  C17 UNL     1      20.825   1.370  49.875  1.00  0.00     0.047 C 
BRANCH  20  21
HETATM   21  C18 UNL     1      20.354   0.781  51.129  1.00  0.00    -0.018 C 
HETATM   22  C19 UNL     1      19.076   0.335  51.169  1.00  0.00     0.160 C 
HETATM   23 BR1  UNL     1      17.443  -0.455  51.858  1.00  0.00    -0.172 Br
ENDBRANCH  20  21
ENDBRANCH  19  20
ENDBRANCH  18  19
ENDBRANCH   1  13
TORSDOF 8
ENDMDL
MODEL 7
REMARK VINA RESULT:      -6.5      3.392      6.228
REMARK  8 active torsions:
REMARK  status: ('A' for Active; 'I' for Inactive)
REMARK    1  A    between atoms: C2_2  and  C3_3 
REMARK    2  A    between atoms: C3_3  and  C4_4 
REMARK    3  A    between atoms: C6_6  and  O1_7 
REMARK    4  A    between atoms: C9_10  and  C10_11 
REMARK    5  A    between atoms: C10_11  and  C11_12 
REMARK    6  A    between atoms: N1_17  and  C16_18 
REMARK    7  A    between atoms: C16_18  and  C17_19 
REMARK    8  A    between atoms: C17_19  and  C18_20 
ROOT
HETATM    1  C10 UNL     1      23.122   2.651  52.747  1.00  0.00     0.096 C 
ENDROOT
BRANCH   1   2
HETATM    2  C9  UNL     1      24.153   1.673  53.138  1.00  0.00    -0.046 A 
HETATM    3  C4  UNL     1      23.988   0.311  53.120  1.00  0.00    -0.045 A 
HETATM    4  C5  UNL     1      25.094  -0.424  53.496  1.00  0.00     0.044 A 
HETATM    5  C6  UNL     1      26.313   0.100  53.878  1.00  0.00     0.066 A 
HETATM    6  C7  UNL     1      26.447   1.473  53.886  1.00  0.00     0.037 A 
HETATM    7  C8  UNL     1      25.356   2.268  53.512  1.00  0.00     0.011 A 
BRANCH   3   8
HETATM    8  C3  UNL     1      22.696  -0.289  52.734  1.00  0.00     0.065 C 
BRANCH   8   9
HETATM    9  C2  UNL     1      22.031  -0.827  53.981  1.00  0.00    -0.032 C 
HETATM   10  C1  UNL     1      21.252  -0.071  54.792  1.00  0.00     0.007 C 
ENDBRANCH   8   9
ENDBRANCH   3   8
BRANCH   5  11
HETATM   11  O1  UNL     1      27.402  -0.667  54.251  1.00  0.00    -0.361 OA
HETATM   12  H7  UNL     1      27.939  -1.167  53.534  1.00  0.00     0.217 HD
ENDBRANCH   5  11
ENDBRANCH   1   2
BRANCH   1  13
HETATM   13  C11 UNL     1      22.921   2.779  51.304  1.00  0.00     0.011 A 
HETATM   14  C12 UNL     1      24.016   3.010  50.602  1.00  0.00     0.025 A 
HETATM   15  C13 UNL     1      24.017   3.164  49.154  1.00  0.00    -0.001 A 
HETATM   16  C14 UNL     1      22.810   3.045  48.631  1.00  0.00    -0.007 A 
HETATM   17  C15 UNL     1      21.505   2.786  49.264  1.00  0.00     0.150 A 
HETATM   18  N1  UNL     1      21.615   2.686  50.703  1.00  0.00    -0.380 N 
BRANCH  18  19
HETATM   19  C16 UNL     1      20.532   2.517  51.637  1.00  0.00     0.127 C 
BRANCH  19  20
HETATM   20  C17 UNL     1      19.377   1.762  51.033  1.00  0.00     0.047 C 
BRANCH  20  21
HETATM   21  C18 UNL     1      19.446   0.311  51.216  1.00  0.00    -0.018 C 
HETATM   22  C19 UNL     1      18.633  -0.240  52.148  1.00  0.00     0.160 C 
HETATM   23 BR1  UNL     1      17.781  -1.587  53.255  1.00  0.00    -0.172 Br
ENDBRANCH  20  21
ENDBRANCH  19  20
ENDBRANCH  18  19
ENDBRANCH   1  13
TORSDOF 8
ENDMDL
MODEL 8
REMARK VINA RESULT:      -6.4      3.505      7.065
REMARK  8 active torsions:
REMARK  status: ('A' for Active; 'I' for Inactive)
REMARK    1  A    between atoms: C2_2  and  C3_3 
REMARK    2  A    between atoms: C3_3  and  C4_4 
REMARK    3  A    between atoms: C6_6  and  O1_7 
REMARK    4  A    between atoms: C9_10  and  C10_11 
REMARK    5  A    between atoms: C10_11  and  C11_12 
REMARK    6  A    between atoms: N1_17  and  C16_18 
REMARK    7  A    between atoms: C16_18  and  C17_19 
REMARK    8  A    between atoms: C17_19  and  C18_20 
ROOT
HETATM    1  C10 UNL     1      23.586   2.313  51.930  1.00  0.00     0.096 C 
ENDROOT
BRANCH   1   2
HETATM    2  C9  UNL     1      24.430   1.180  52.353  1.00  0.00    -0.046 A 
HETATM    3  C4  UNL     1      24.035   0.189  53.216  1.00  0.00    -0.045 A 
HETATM    4  C5  UNL     1      24.973  -0.795  53.455  1.00  0.00     0.044 A 
HETATM    5  C6  UNL     1      26.238  -0.847  52.905  1.00  0.00     0.066 A 
HETATM    6  C7  UNL     1      26.606   0.165  52.042  1.00  0.00     0.037 A 
HETATM    7  C8  UNL     1      25.692   1.189  51.764  1.00  0.00     0.011 A 
BRANCH   3   8
HETATM    8  C3  UNL     1      22.697   0.216  53.838  1.00  0.00     0.065 C 
BRANCH   8   9
HETATM    9  C2  UNL     1      22.283  -1.207  54.139  1.00  0.00    -0.032 C 
HETATM   10  C1  UNL     1      20.992  -1.590  54.284  1.00  0.00     0.007 C 
ENDBRANCH   8   9
ENDBRANCH   3   8
BRANCH   5  11
HETATM   11  O1  UNL     1      27.156  -1.849  53.168  1.00  0.00    -0.361 OA
HETATM   12  H7  UNL     1      28.131  -1.732  52.874  1.00  0.00     0.217 HD
ENDBRANCH   5  11
ENDBRANCH   1   2
BRANCH   1  13
HETATM   13  C11 UNL     1      23.010   2.174  50.592  1.00  0.00     0.011 A 
HETATM   14  C12 UNL     1      22.119   1.208  50.460  1.00  0.00     0.025 A 
HETATM   15  C13 UNL     1      21.436   0.919  49.207  1.00  0.00    -0.001 A 
HETATM   16  C14 UNL     1      21.806   1.729  48.231  1.00  0.00    -0.007 A 
HETATM   17  C15 UNL     1      22.769   2.844  48.213  1.00  0.00     0.150 A 
HETATM   18  N1  UNL     1      23.413   3.019  49.496  1.00  0.00    -0.380 N 
BRANCH  18  19
HETATM   19  C16 UNL     1      24.458   3.958  49.811  1.00  0.00     0.127 C 
BRANCH  19  20
HETATM   20  C17 UNL     1      24.520   5.089  48.818  1.00  0.00     0.047 C 
BRANCH  20  21
HETATM   21  C18 UNL     1      24.190   6.400  49.379  1.00  0.00    -0.018 C 
HETATM   22  C19 UNL     1      22.901   6.625  49.726  1.00  0.00     0.160 C 
HETATM   23 BR1  UNL     1      21.328   7.543  50.393  1.00  0.00    -0.172 Br
ENDBRANCH  20  21
ENDBRANCH  19  20
ENDBRANCH  18  19
ENDBRANCH   1  13
TORSDOF 8
ENDMDL
MODEL 9
REMARK VINA RESULT:      -6.4      3.586      6.830
REMARK  8 active torsions:
REMARK  status: ('A' for Active; 'I' for Inactive)
REMARK    1  A    between atoms: C2_2  and  C3_3 
REMARK    2  A    between atoms: C3_3  and  C4_4 
REMARK    3  A    between atoms: C6_6  and  O1_7 
REMARK    4  A    between atoms: C9_10  and  C10_11 
REMARK    5  A    between atoms: C10_11  and  C11_12 
REMARK    6  A    between atoms: N1_17  and  C16_18 
REMARK    7  A    between atoms: C16_18  and  C17_19 
REMARK    8  A    between atoms: C17_19  and  C18_20 
ROOT
HETATM    1  C10 UNL     1      23.113   2.377  52.028  1.00  0.00     0.096 C 
ENDROOT
BRANCH   1   2
HETATM    2  C9  UNL     1      22.700   1.199  52.812  1.00  0.00    -0.046 A 
HETATM    3  C4  UNL     1      23.542   0.196  53.221  1.00  0.00    -0.045 A 
HETATM    4  C5  UNL     1      22.952  -0.800  53.972  1.00  0.00     0.044 A 
HETATM    5  C6  UNL     1      21.620  -0.855  54.327  1.00  0.00     0.066 A 
HETATM    6  C7  UNL     1      20.799   0.168  53.900  1.00  0.00     0.037 A 
HETATM    7  C8  UNL     1      21.345   1.206  53.134  1.00  0.00     0.011 A 
BRANCH   3   8
HETATM    8  C3  UNL     1      24.970   0.209  52.849  1.00  0.00     0.065 C 
BRANCH   8   9
HETATM    9  C2  UNL     1      25.760  -0.424  53.973  1.00  0.00    -0.032 C 
HETATM   10  C1  UNL     1      26.496   0.291  54.858  1.00  0.00     0.007 C 
ENDBRANCH   8   9
ENDBRANCH   3   8
BRANCH   5  11
HETATM   11  O1  UNL     1      21.061  -1.871  55.082  1.00  0.00    -0.361 OA
HETATM   12  H7  UNL     1      20.858  -1.712  56.075  1.00  0.00     0.217 HD
ENDBRANCH   5  11
ENDBRANCH   1   2
BRANCH   1  13
HETATM   13  C11 UNL     1      22.368   2.572  50.784  1.00  0.00     0.011 A 
HETATM   14  C12 UNL     1      22.453   1.580  49.916  1.00  0.00     0.025 A 
HETATM   15  C13 UNL     1      21.779   1.589  48.625  1.00  0.00    -0.001 A 
HETATM   16  C14 UNL     1      21.079   2.692  48.428  1.00  0.00    -0.007 A 
HETATM   17  C15 UNL     1      20.878   3.875  49.284  1.00  0.00     0.150 A 
HETATM   18  N1  UNL     1      21.620   3.775  50.522  1.00  0.00    -0.380 N 
BRANCH  18  19
HETATM   19  C16 UNL     1      21.714   4.780  51.549  1.00  0.00     0.127 C 
BRANCH  19  20
HETATM   20  C17 UNL     1      22.434   6.013  51.069  1.00  0.00     0.047 C 
BRANCH  20  21
HETATM   21  C18 UNL     1      23.884   5.977  51.265  1.00  0.00    -0.018 C 
HETATM   22  C19 UNL     1      24.642   5.517  50.241  1.00  0.00     0.160 C 
HETATM   23 BR1  UNL     1      26.212   4.999  49.227  1.00  0.00    -0.172 Br
ENDBRANCH  20  21
ENDBRANCH  19  20
ENDBRANCH  18  19
ENDBRANCH   1  13
TORSDOF 8
ENDMDL
