MODEL 1
REMARK VINA RESULT:      -8.3      0.000      0.000
REMARK  6 active torsions:
REMARK  status: ('A' for Active; 'I' for Inactive)
REMARK    1  A    between atoms: C2_2  and  C3_3 
REMARK    2  A    between atoms: C2_2  and  C6_7 
REMARK    3  A    between atoms: C3_3  and  N1_4 
REMARK       I    between atoms: C6_7  and  N2_9 
REMARK    4  A    between atoms: N2_9  and  C7_10 
REMARK    5  A    between atoms: C12_15  and  O2_16 
REMARK    6  A    between atoms: O2_16  and  C13_17 
ROOT
HETATM    1  C7  UNL     1      23.999   1.936  51.733  1.00  0.00     0.071 A 
HETATM    2  C8  UNL     1      23.044   1.334  52.631  1.00  0.00     0.066 A 
HETATM    3  C9  UNL     1      21.656   1.553  52.545  1.00  0.00     0.082 A 
HETATM    4  C10 UNL     1      21.449   2.438  51.467  1.00  0.00     0.082 A 
HETATM    5  C11 UNL     1      22.250   3.074  50.565  1.00  0.00     0.072 A 
HETATM    6  C12 UNL     1      23.584   2.789  50.736  1.00  0.00     0.097 A 
HETATM    7  N3  UNL     1      20.225   2.674  51.366  1.00  0.00    -0.278 NA
HETATM    8  C15 UNL     1      19.342   3.416  50.546  1.00  0.00     0.206 C 
HETATM    9  C16 UNL     1      17.995   3.079  50.777  1.00  0.00     0.049 C 
HETATM   10  C17 UNL     1      17.580   4.097  49.706  1.00  0.00    -0.013 C 
HETATM   11  N4  UNL     1      17.263   4.946  48.823  1.00  0.00    -0.101 N 
HETATM   12  C18 UNL     1      16.576   2.560  51.197  1.00  0.00     0.021 C 
HETATM   13  C19 UNL     1      16.617   1.105  50.604  1.00  0.00     0.007 C 
HETATM   14  C20 UNL     1      17.473   0.328  51.567  1.00  0.00     0.000 C 
HETATM   15  C21 UNL     1      18.056  -0.471  52.397  1.00  0.00     0.044 C 
HETATM   16  C22 UNL     1      18.259  -1.602  53.220  1.00  0.00     0.015 C 
HETATM   17 CL1  UNL     1      17.680  -3.142  53.789  1.00  0.00    -0.089 Cl
HETATM   18  C23 UNL     1      19.422  -0.977  53.628  1.00  0.00     0.014 C 
HETATM   19  C24 UNL     1      20.581  -0.099  53.874  1.00  0.00     0.178 C 
HETATM   20  N5  UNL     1      20.577   1.091  52.961  1.00  0.00    -0.284 NA
ENDROOT
BRANCH   6  21
HETATM   21  O2  UNL     1      24.794   3.079  50.235  1.00  0.00    -0.349 OA
BRANCH  21  22
HETATM   22  C13 UNL     1      25.449   4.204  49.791  1.00  0.00     0.171 C 
HETATM   23  C14 UNL     1      26.854   3.812  49.337  1.00  0.00     0.034 C 
ENDBRANCH  21  22
ENDBRANCH   6  21
BRANCH   1  24
HETATM   24  N2  UNL     1      25.303   1.344  51.981  1.00  0.00    -0.321 N 
HETATM   25  C6  UNL     1      25.810   1.891  53.140  1.00  0.00     0.253 C 
HETATM   26  O1  UNL     1      26.019   2.519  54.163  1.00  0.00    -0.268 OA
HETATM   27  H11 UNL     1      25.691   0.614  51.370  1.00  0.00     0.169 HD
BRANCH  25  28
HETATM   28  C2  UNL     1      27.157   1.404  53.611  1.00  0.00     0.029 C 
HETATM   29  C1  UNL     1      28.178   2.301  53.537  1.00  0.00     0.026 C 
BRANCH  28  30
HETATM   30  C3  UNL     1      28.057   0.425  54.233  1.00  0.00     0.314 C 
BRANCH  30  31
HETATM   31  N1  UNL     1      28.723  -0.324  53.126  1.00  0.00     0.084 N 
HETATM   32  C4  UNL     1      29.782  -1.180  53.820  1.00  0.00     0.309 C 
HETATM   33  C5  UNL     1      27.663  -1.438  52.950  1.00  0.00     0.309 C 
ENDBRANCH  30  31
ENDBRANCH  28  30
ENDBRANCH  25  28
ENDBRANCH   1  24
TORSDOF 6
ENDMDL
MODEL 2
REMARK VINA RESULT:      -8.3      5.869     10.120
REMARK  6 active torsions:
REMARK  status: ('A' for Active; 'I' for Inactive)
REMARK    1  A    between atoms: C2_2  and  C3_3 
REMARK    2  A    between atoms: C2_2  and  C6_7 
REMARK    3  A    between atoms: C3_3  and  N1_4 
REMARK       I    between atoms: C6_7  and  N2_9 
REMARK    4  A    between atoms: N2_9  and  C7_10 
REMARK    5  A    between atoms: C12_15  and  O2_16 
REMARK    6  A    between atoms: O2_16  and  C13_17 
ROOT
HETATM    1  C7  UNL     1      25.953   4.526  49.645  1.00  0.00     0.071 A 
HETATM    2  C8  UNL     1      27.207   4.468  48.935  1.00  0.00     0.066 A 
HETATM    3  C9  UNL     1      27.889   5.611  48.475  1.00  0.00     0.082 A 
HETATM    4  C10 UNL     1      27.106   6.726  48.837  1.00  0.00     0.082 A 
HETATM    5  C11 UNL     1      25.922   6.912  49.487  1.00  0.00     0.072 A 
HETATM    6  C12 UNL     1      25.342   5.733  49.895  1.00  0.00     0.097 A 
HETATM    7  N3  UNL     1      27.670   7.766  48.431  1.00  0.00    -0.278 NA
HETATM    8  C15 UNL     1      27.475   9.168  48.453  1.00  0.00     0.206 C 
HETATM    9  C16 UNL     1      28.621   9.868  48.030  1.00  0.00     0.049 C 
HETATM   10  C17 UNL     1      27.870  11.187  48.256  1.00  0.00    -0.013 C 
HETATM   11  N4  UNL     1      27.228  12.261  48.446  1.00  0.00    -0.101 N 
HETATM   12  C18 UNL     1      29.991  10.440  47.524  1.00  0.00     0.021 C 
HETATM   13  C19 UNL     1      30.912  10.100  48.751  1.00  0.00     0.007 C 
HETATM   14  C20 UNL     1      31.183   8.625  48.623  1.00  0.00     0.000 C 
HETATM   15  C21 UNL     1      31.610   7.409  48.531  1.00  0.00     0.044 C 
HETATM   16  C22 UNL     1      32.519   6.328  48.499  1.00  0.00     0.015 C 
HETATM   17 CL1  UNL     1      34.162   5.771  48.641  1.00  0.00    -0.089 Cl
HETATM   18  C23 UNL     1      31.423   5.540  48.204  1.00  0.00     0.014 C 
HETATM   19  C24 UNL     1      30.103   4.952  47.911  1.00  0.00     0.178 C 
HETATM   20  N5  UNL     1      29.004   5.964  48.047  1.00  0.00    -0.284 NA
ENDROOT
BRANCH   6  21
HETATM   21  O2  UNL     1      24.255   5.258  50.519  1.00  0.00    -0.349 OA
BRANCH  21  22
HETATM   22  C13 UNL     1      23.392   5.694  51.498  1.00  0.00     0.171 C 
HETATM   23  C14 UNL     1      23.396   4.685  52.646  1.00  0.00     0.034 C 
ENDBRANCH  21  22
ENDBRANCH   6  21
BRANCH   1  24
HETATM   24  N2  UNL     1      25.640   3.194  50.137  1.00  0.00    -0.321 N 
HETATM   25  C6  UNL     1      26.586   2.850  51.079  1.00  0.00     0.253 C 
HETATM   26  O1  UNL     1      27.526   2.799  51.850  1.00  0.00    -0.268 OA
HETATM   27  H11 UNL     1      24.809   2.681  49.817  1.00  0.00     0.169 HD
BRANCH  25  28
HETATM   28  C2  UNL     1      26.447   1.508  51.749  1.00  0.00     0.029 C 
HETATM   29  C1  UNL     1      27.551   1.043  52.396  1.00  0.00     0.026 C 
BRANCH  28  30
HETATM   30  C3  UNL     1      25.685   0.335  52.198  1.00  0.00     0.314 C 
BRANCH  30  31
HETATM   31  N1  UNL     1      24.595   0.836  53.089  1.00  0.00     0.084 N 
HETATM   32  C4  UNL     1      23.380   0.973  52.173  1.00  0.00     0.309 C 
HETATM   33  C5  UNL     1      24.200  -0.516  53.729  1.00  0.00     0.309 C 
ENDBRANCH  30  31
ENDBRANCH  28  30
ENDBRANCH  25  28
ENDBRANCH   1  24
TORSDOF 6
ENDMDL
MODEL 3
REMARK VINA RESULT:      -7.9      3.604      6.373
REMARK  6 active torsions:
REMARK  status: ('A' for Active; 'I' for Inactive)
REMARK    1  A    between atoms: C2_2  and  C3_3 
REMARK    2  A    between atoms: C2_2  and  C6_7 
REMARK    3  A    between atoms: C3_3  and  N1_4 
REMARK       I    between atoms: C6_7  and  N2_9 
REMARK    4  A    between atoms: N2_9  and  C7_10 
REMARK    5  A    between atoms: C12_15  and  O2_16 
REMARK    6  A    between atoms: O2_16  and  C13_17 
ROOT
HETATM    1  C7  UNL     1      23.408   5.333  50.388  1.00  0.00     0.071 A 
HETATM    2  C8  UNL     1      24.124   4.770  51.505  1.00  0.00     0.066 A 
HETATM    3  C9  UNL     1      23.645   3.683  52.262  1.00  0.00     0.082 A 
HETATM    4  C10 UNL     1      22.397   3.323  51.714  1.00  0.00     0.082 A 
HETATM    5  C11 UNL     1      21.621   3.772  50.687  1.00  0.00     0.072 A 
HETATM    6  C12 UNL     1      22.182   4.832  50.014  1.00  0.00     0.097 A 
HETATM    7  N3  UNL     1      21.927   2.368  52.371  1.00  0.00    -0.278 NA
HETATM    8  C15 UNL     1      20.786   1.530  52.376  1.00  0.00     0.206 C 
HETATM    9  C16 UNL     1      20.940   0.430  53.239  1.00  0.00     0.049 C 
HETATM   10  C17 UNL     1      19.537  -0.049  52.843  1.00  0.00    -0.013 C 
HETATM   11  N4  UNL     1      18.375  -0.419  52.504  1.00  0.00    -0.101 N 
HETATM   12  C18 UNL     1      21.317  -0.705  54.254  1.00  0.00     0.021 C 
HETATM   13  C19 UNL     1      22.423  -1.464  53.434  1.00  0.00     0.007 C 
HETATM   14  C20 UNL     1      23.645  -0.595  53.551  1.00  0.00     0.000 C 
HETATM   15  C21 UNL     1      24.789  -0.015  53.710  1.00  0.00     0.044 C 
HETATM   16  C22 UNL     1      26.163   0.134  54.002  1.00  0.00     0.015 C 
HETATM   17 CL1  UNL     1      27.674  -0.611  54.438  1.00  0.00    -0.089 Cl
HETATM   18  C23 UNL     1      25.956   1.488  53.815  1.00  0.00     0.014 C 
HETATM   19  C24 UNL     1      25.457   2.852  53.558  1.00  0.00     0.178 C 
HETATM   20  N5  UNL     1      24.030   2.841  53.096  1.00  0.00    -0.284 NA
ENDROOT
BRANCH   6  21
HETATM   21  O2  UNL     1      21.945   5.678  49.001  1.00  0.00    -0.349 OA
BRANCH  21  22
HETATM   22  C13 UNL     1      21.280   5.635  47.796  1.00  0.00     0.171 C 
HETATM   23  C14 UNL     1      22.300   5.438  46.676  1.00  0.00     0.034 C 
ENDBRANCH  21  22
ENDBRANCH   6  21
BRANCH   1  24
HETATM   24  N2  UNL     1      24.272   6.296  49.724  1.00  0.00    -0.321 N 
HETATM   25  C6  UNL     1      25.473   5.678  49.450  1.00  0.00     0.253 C 
HETATM   26  O1  UNL     1      26.413   4.913  49.332  1.00  0.00    -0.268 OA
HETATM   27  H11 UNL     1      23.949   7.244  49.495  1.00  0.00     0.169 HD
BRANCH  25  28
HETATM   28  C2  UNL     1      26.526   6.486  48.736  1.00  0.00     0.029 C 
HETATM   29  C1  UNL     1      27.637   5.806  48.338  1.00  0.00     0.026 C 
BRANCH  28  30
HETATM   30  C3  UNL     1      27.042   7.706  48.103  1.00  0.00     0.314 C 
BRANCH  30  31
HETATM   31  N1  UNL     1      28.109   8.247  48.997  1.00  0.00     0.084 N 
HETATM   32  C4  UNL     1      28.672   9.451  48.245  1.00  0.00     0.309 C 
HETATM   33  C5  UNL     1      27.199   9.036  49.968  1.00  0.00     0.309 C 
ENDBRANCH  30  31
ENDBRANCH  28  30
ENDBRANCH  25  28
ENDBRANCH   1  24
TORSDOF 6
ENDMDL
MODEL 4
REMARK VINA RESULT:      -7.9      2.937      7.825
REMARK  6 active torsions:
REMARK  status: ('A' for Active; 'I' for Inactive)
REMARK    1  A    between atoms: C2_2  and  C3_3 
REMARK    2  A    between atoms: C2_2  and  C6_7 
REMARK    3  A    between atoms: C3_3  and  N1_4 
REMARK       I    between atoms: C6_7  and  N2_9 
REMARK    4  A    between atoms: N2_9  and  C7_10 
REMARK    5  A    between atoms: C12_15  and  O2_16 
REMARK    6  A    between atoms: O2_16  and  C13_17 
ROOT
HETATM    1  C7  UNL     1      23.998   5.103  49.404  1.00  0.00     0.071 A 
HETATM    2  C8  UNL     1      23.203   3.905  49.508  1.00  0.00     0.066 A 
HETATM    3  C9  UNL     1      23.649   2.734  50.151  1.00  0.00     0.082 A 
HETATM    4  C10 UNL     1      24.953   2.996  50.616  1.00  0.00     0.082 A 
HETATM    5  C11 UNL     1      25.804   4.061  50.576  1.00  0.00     0.072 A 
HETATM    6  C12 UNL     1      25.270   5.151  49.928  1.00  0.00     0.097 A 
HETATM    7  N3  UNL     1      25.395   1.972  51.182  1.00  0.00    -0.278 NA
HETATM    8  C15 UNL     1      26.560   1.541  51.861  1.00  0.00     0.206 C 
HETATM    9  C16 UNL     1      26.366   0.312  52.517  1.00  0.00     0.049 C 
HETATM   10  C17 UNL     1      27.816   0.376  53.017  1.00  0.00    -0.013 C 
HETATM   11  N4  UNL     1      29.016   0.450  53.412  1.00  0.00    -0.101 N 
HETATM   12  C18 UNL     1      25.938  -1.054  53.159  1.00  0.00     0.021 C 
HETATM   13  C19 UNL     1      24.940  -0.550  54.264  1.00  0.00     0.007 C 
HETATM   14  C20 UNL     1      23.682  -0.211  53.510  1.00  0.00     0.000 C 
HETATM   15  C21 UNL     1      22.509  -0.036  52.999  1.00  0.00     0.044 C 
HETATM   16  C22 UNL     1      21.109  -0.144  52.838  1.00  0.00     0.015 C 
HETATM   17 CL1  UNL     1      19.592  -0.746  53.443  1.00  0.00    -0.089 Cl
HETATM   18  C23 UNL     1      21.285   0.573  51.670  1.00  0.00     0.014 C 
HETATM   19  C24 UNL     1      21.756   1.338  50.501  1.00  0.00     0.178 C 
HETATM   20  N5  UNL     1      23.219   1.655  50.601  1.00  0.00    -0.284 NA
ENDROOT
BRANCH   6  21
HETATM   21  O2  UNL     1      25.569   6.405  49.559  1.00  0.00    -0.349 OA
BRANCH  21  22
HETATM   22  C13 UNL     1      26.702   7.100  49.206  1.00  0.00     0.171 C 
HETATM   23  C14 UNL     1      27.528   6.245  48.246  1.00  0.00     0.034 C 
ENDBRANCH  21  22
ENDBRANCH   6  21
BRANCH   1  24
HETATM   24  N2  UNL     1      23.165   6.165  48.862  1.00  0.00    -0.321 N 
HETATM   25  C6  UNL     1      22.287   6.567  49.846  1.00  0.00     0.253 C 
HETATM   26  O1  UNL     1      21.641   6.725  50.866  1.00  0.00    -0.268 OA
HETATM   27  H11 UNL     1      23.301   6.526  47.910  1.00  0.00     0.169 HD
BRANCH  25  28
HETATM   28  C2  UNL     1      21.332   7.685  49.515  1.00  0.00     0.029 C 
HETATM   29  C1  UNL     1      21.895   8.897  49.255  1.00  0.00     0.026 C 
BRANCH  28  30
HETATM   30  C3  UNL     1      20.003   8.233  49.216  1.00  0.00     0.314 C 
BRANCH  30  31
HETATM   31  N1  UNL     1      19.535   7.584  47.955  1.00  0.00     0.084 N 
HETATM   32  C4  UNL     1      18.810   6.320  48.416  1.00  0.00     0.309 C 
HETATM   33  C5  UNL     1      18.276   8.451  47.719  1.00  0.00     0.309 C 
ENDBRANCH  30  31
ENDBRANCH  28  30
ENDBRANCH  25  28
ENDBRANCH   1  24
TORSDOF 6
ENDMDL
MODEL 5
REMARK VINA RESULT:      -7.4      4.872      8.355
REMARK  6 active torsions:
REMARK  status: ('A' for Active; 'I' for Inactive)
REMARK    1  A    between atoms: C2_2  and  C3_3 
REMARK    2  A    between atoms: C2_2  and  C6_7 
REMARK    3  A    between atoms: C3_3  and  N1_4 
REMARK       I    between atoms: C6_7  and  N2_9 
REMARK    4  A    between atoms: N2_9  and  C7_10 
REMARK    5  A    between atoms: C12_15  and  O2_16 
REMARK    6  A    between atoms: O2_16  and  C13_17 
ROOT
HETATM    1  C7  UNL     1      25.669   2.986  50.339  1.00  0.00     0.071 A 
HETATM    2  C8  UNL     1      26.727   3.588  49.568  1.00  0.00     0.066 A 
HETATM    3  C9  UNL     1      26.626   4.862  48.976  1.00  0.00     0.082 A 
HETATM    4  C10 UNL     1      25.341   5.354  49.286  1.00  0.00     0.082 A 
HETATM    5  C11 UNL     1      24.265   4.890  49.984  1.00  0.00     0.072 A 
HETATM    6  C12 UNL     1      24.472   3.641  50.521  1.00  0.00     0.097 A 
HETATM    7  N3  UNL     1      25.202   6.481  48.762  1.00  0.00    -0.278 NA
HETATM    8  C15 UNL     1      24.234   7.511  48.677  1.00  0.00     0.206 C 
HETATM    9  C16 UNL     1      24.766   8.694  48.133  1.00  0.00     0.049 C 
HETATM   10  C17 UNL     1      23.391   9.357  48.290  1.00  0.00    -0.013 C 
HETATM   11  N4  UNL     1      22.246   9.879  48.424  1.00  0.00    -0.101 N 
HETATM   12  C18 UNL     1      25.556   9.895  47.505  1.00  0.00     0.021 C 
HETATM   13  C19 UNL     1      26.501  10.272  48.703  1.00  0.00     0.007 C 
HETATM   14  C20 UNL     1      27.574   9.218  48.684  1.00  0.00     0.000 C 
HETATM   15  C21 UNL     1      28.625   8.466  48.671  1.00  0.00     0.044 C 
HETATM   16  C22 UNL     1      29.992   8.108  48.678  1.00  0.00     0.015 C 
HETATM   17 CL1  UNL     1      31.654   8.613  48.775  1.00  0.00    -0.089 Cl
HETATM   18  C23 UNL     1      29.552   6.808  48.513  1.00  0.00     0.014 C 
HETATM   19  C24 UNL     1      28.815   5.542  48.346  1.00  0.00     0.178 C 
HETATM   20  N5  UNL     1      27.333   5.746  48.457  1.00  0.00    -0.284 NA
ENDROOT
BRANCH   6  21
HETATM   21  O2  UNL     1      23.857   2.693  51.243  1.00  0.00    -0.349 OA
BRANCH  21  22
HETATM   22  C13 UNL     1      22.566   2.250  51.420  1.00  0.00     0.171 C 
HETATM   23  C14 UNL     1      22.576   1.081  52.404  1.00  0.00     0.034 C 
ENDBRANCH  21  22
ENDBRANCH   6  21
BRANCH   1  24
HETATM   24  N2  UNL     1      26.180   1.774  50.959  1.00  0.00    -0.321 N 
HETATM   25  C6  UNL     1      26.249   1.983  52.320  1.00  0.00     0.253 C 
HETATM   26  O1  UNL     1      26.211   2.421  53.455  1.00  0.00    -0.268 OA
HETATM   27  H11 UNL     1      26.389   0.933  50.408  1.00  0.00     0.169 HD
BRANCH  25  28
HETATM   28  C2  UNL     1      26.734   0.843  53.177  1.00  0.00     0.029 C 
HETATM   29  C1  UNL     1      25.844   0.352  54.083  1.00  0.00     0.026 C 
BRANCH  28  30
HETATM   30  C3  UNL     1      27.707  -0.185  53.570  1.00  0.00     0.314 C 
BRANCH  30  31
HETATM   31  N1  UNL     1      29.066   0.369  53.291  1.00  0.00     0.084 N 
HETATM   32  C4  UNL     1      29.373   1.264  54.490  1.00  0.00     0.309 C 
HETATM   33  C5  UNL     1      29.896  -0.854  53.748  1.00  0.00     0.309 C 
ENDBRANCH  30  31
ENDBRANCH  28  30
ENDBRANCH  25  28
ENDBRANCH   1  24
TORSDOF 6
ENDMDL
MODEL 6
REMARK VINA RESULT:      -7.4      3.734      9.578
REMARK  6 active torsions:
REMARK  status: ('A' for Active; 'I' for Inactive)
REMARK    1  A    between atoms: C2_2  and  C3_3 
REMARK    2  A    between atoms: C2_2  and  C6_7 
REMARK    3  A    between atoms: C3_3  and  N1_4 
REMARK       I    between atoms: C6_7  and  N2_9 
REMARK    4  A    between atoms: N2_9  and  C7_10 
REMARK    5  A    between atoms: C12_15  and  O2_16 
REMARK    6  A    between atoms: O2_16  and  C13_17 
ROOT
HETATM    1  C7  UNL     1      18.807   1.632  51.592  1.00  0.00     0.071 A 
HETATM    2  C8  UNL     1      19.572   2.849  51.479  1.00  0.00     0.066 A 
HETATM    3  C9  UNL     1      20.959   2.915  51.712  1.00  0.00     0.082 A 
HETATM    4  C10 UNL     1      21.376   1.615  52.063  1.00  0.00     0.082 A 
HETATM    5  C11 UNL     1      20.765   0.406  52.212  1.00  0.00     0.072 A 
HETATM    6  C12 UNL     1      19.414   0.452  51.959  1.00  0.00     0.097 A 
HETATM    7  N3  UNL     1      22.605   1.634  52.296  1.00  0.00    -0.278 NA
HETATM    8  C15 UNL     1      23.639   0.739  52.662  1.00  0.00     0.206 C 
HETATM    9  C16 UNL     1      24.914   1.318  52.525  1.00  0.00     0.049 C 
HETATM   10  C17 UNL     1      25.539   0.003  53.010  1.00  0.00    -0.013 C 
HETATM   11  N4  UNL     1      26.029  -1.090  53.417  1.00  0.00    -0.101 N 
HETATM   12  C18 UNL     1      26.223   2.155  52.308  1.00  0.00     0.021 C 
HETATM   13  C19 UNL     1      26.248   2.244  50.739  1.00  0.00     0.007 C 
HETATM   14  C20 UNL     1      25.215   3.286  50.403  1.00  0.00     0.000 C 
HETATM   15  C21 UNL     1      24.473   4.266  50.005  1.00  0.00     0.044 C 
HETATM   16  C22 UNL     1      24.098   5.445  49.324  1.00  0.00     0.015 C 
HETATM   17 CL1  UNL     1      24.526   6.708  48.205  1.00  0.00    -0.089 Cl
HETATM   18  C23 UNL     1      22.898   5.341  50.002  1.00  0.00     0.014 C 
HETATM   19  C24 UNL     1      21.738   4.986  50.840  1.00  0.00     0.178 C 
HETATM   20  N5  UNL     1      21.935   3.667  51.527  1.00  0.00    -0.284 NA
ENDROOT
BRANCH   6  21
HETATM   21  O2  UNL     1      18.320  -0.323  51.945  1.00  0.00    -0.349 OA
BRANCH  21  22
HETATM   22  C13 UNL     1      17.497  -0.909  52.879  1.00  0.00     0.171 C 
HETATM   23  C14 UNL     1      18.233  -2.087  53.517  1.00  0.00     0.034 C 
ENDBRANCH  21  22
ENDBRANCH   6  21
BRANCH   1  24
HETATM   24  N2  UNL     1      17.464   1.883  51.095  1.00  0.00    -0.321 N 
HETATM   25  C6  UNL     1      17.003   3.047  51.672  1.00  0.00     0.253 C 
HETATM   26  O1  UNL     1      16.845   4.073  52.308  1.00  0.00    -0.268 OA
HETATM   27  H11 UNL     1      17.022   1.270  50.399  1.00  0.00     0.169 HD
BRANCH  25  28
HETATM   28  C2  UNL     1      15.626   3.520  51.283  1.00  0.00     0.029 C 
HETATM   29  C1  UNL     1      15.546   4.258  50.142  1.00  0.00     0.026 C 
BRANCH  28  30
HETATM   30  C3  UNL     1      14.166   3.575  51.426  1.00  0.00     0.314 C 
BRANCH  30  31
HETATM   31  N1  UNL     1      13.841   3.086  52.799  1.00  0.00     0.084 N 
HETATM   32  C4  UNL     1      13.627   4.356  53.622  1.00  0.00     0.309 C 
HETATM   33  C5  UNL     1      12.348   2.756  52.565  1.00  0.00     0.309 C 
ENDBRANCH  30  31
ENDBRANCH  28  30
ENDBRANCH  25  28
ENDBRANCH   1  24
TORSDOF 6
ENDMDL
MODEL 7
REMARK VINA RESULT:      -7.3     24.462     26.367
REMARK  6 active torsions:
REMARK  status: ('A' for Active; 'I' for Inactive)
REMARK    1  A    between atoms: C2_2  and  C3_3 
REMARK    2  A    between atoms: C2_2  and  C6_7 
REMARK    3  A    between atoms: C3_3  and  N1_4 
REMARK       I    between atoms: C6_7  and  N2_9 
REMARK    4  A    between atoms: N2_9  and  C7_10 
REMARK    5  A    between atoms: C12_15  and  O2_16 
REMARK    6  A    between atoms: O2_16  and  C13_17 
ROOT
HETATM    1  C7  UNL     1      44.772   4.385  67.679  1.00  0.00     0.071 A 
HETATM    2  C8  UNL     1      44.321   3.016  67.725  1.00  0.00     0.066 A 
HETATM    3  C9  UNL     1      43.297   2.567  68.581  1.00  0.00     0.082 A 
HETATM    4  C10 UNL     1      42.869   3.685  69.326  1.00  0.00     0.082 A 
HETATM    5  C11 UNL     1      43.213   5.004  69.384  1.00  0.00     0.072 A 
HETATM    6  C12 UNL     1      44.219   5.335  68.506  1.00  0.00     0.097 A 
HETATM    7  N3  UNL     1      41.968   3.325  70.115  1.00  0.00    -0.278 NA
HETATM    8  C15 UNL     1      41.115   3.887  71.095  1.00  0.00     0.206 C 
HETATM    9  C16 UNL     1      40.098   2.997  71.485  1.00  0.00     0.049 C 
HETATM   10  C17 UNL     1      39.562   4.066  72.447  1.00  0.00    -0.013 C 
HETATM   11  N4  UNL     1      39.144   4.962  73.236  1.00  0.00    -0.101 N 
HETATM   12  C18 UNL     1      39.063   1.855  71.775  1.00  0.00     0.021 C 
HETATM   13  C19 UNL     1      38.253   1.854  70.428  1.00  0.00     0.007 C 
HETATM   14  C20 UNL     1      39.151   1.149  69.447  1.00  0.00     0.000 C 
HETATM   15  C21 UNL     1      39.761   0.429  68.565  1.00  0.00     0.044 C 
HETATM   16  C22 UNL     1      39.959  -0.565  67.581  1.00  0.00     0.015 C 
HETATM   17 CL1  UNL     1      39.281  -1.828  66.595  1.00  0.00    -0.089 Cl
HETATM   18  C23 UNL     1      41.288  -0.184  67.602  1.00  0.00     0.014 C 
HETATM   19  C24 UNL     1      42.615   0.419  67.825  1.00  0.00     0.178 C 
HETATM   20  N5  UNL     1      42.539   1.594  68.754  1.00  0.00    -0.284 NA
ENDROOT
BRANCH   6  21
HETATM   21  O2  UNL     1      44.968   6.375  68.111  1.00  0.00    -0.349 OA
BRANCH  21  22
HETATM   22  C13 UNL     1      44.790   7.728  67.940  1.00  0.00     0.171 C 
HETATM   23  C14 UNL     1      44.310   7.987  66.512  1.00  0.00     0.034 C 
ENDBRANCH  21  22
ENDBRANCH   6  21
BRANCH   1  24
HETATM   24  N2  UNL     1      45.687   4.532  66.559  1.00  0.00    -0.321 N 
HETATM   25  C6  UNL     1      44.957   4.445  65.393  1.00  0.00     0.253 C 
HETATM   26  O1  UNL     1      44.097   4.333  64.539  1.00  0.00    -0.268 OA
HETATM   27  H11 UNL     1      46.689   4.712  66.699  1.00  0.00     0.169 HD
BRANCH  25  28
HETATM   28  C2  UNL     1      45.701   4.595  64.091  1.00  0.00     0.029 C 
HETATM   29  C1  UNL     1      46.849   3.873  63.970  1.00  0.00     0.026 C 
BRANCH  28  30
HETATM   30  C3  UNL     1      45.855   5.080  62.713  1.00  0.00     0.314 C 
BRANCH  30  31
HETATM   31  N1  UNL     1      46.854   6.190  62.749  1.00  0.00     0.084 N 
HETATM   32  C4  UNL     1      47.042   6.588  61.286  1.00  0.00     0.309 C 
HETATM   33  C5  UNL     1      45.889   7.336  63.135  1.00  0.00     0.309 C 
ENDBRANCH  30  31
ENDBRANCH  28  30
ENDBRANCH  25  28
ENDBRANCH   1  24
TORSDOF 6
ENDMDL
MODEL 8
REMARK VINA RESULT:      -7.3      4.565      8.458
REMARK  6 active torsions:
REMARK  status: ('A' for Active; 'I' for Inactive)
REMARK    1  A    between atoms: C2_2  and  C3_3 
REMARK    2  A    between atoms: C2_2  and  C6_7 
REMARK    3  A    between atoms: C3_3  and  N1_4 
REMARK       I    between atoms: C6_7  and  N2_9 
REMARK    4  A    between atoms: N2_9  and  C7_10 
REMARK    5  A    between atoms: C12_15  and  O2_16 
REMARK    6  A    between atoms: O2_16  and  C13_17 
ROOT
HETATM    1  C7  UNL     1      24.980   3.333  51.044  1.00  0.00     0.071 A 
HETATM    2  C8  UNL     1      24.228   4.542  50.821  1.00  0.00     0.066 A 
HETATM    3  C9  UNL     1      24.708   5.622  50.054  1.00  0.00     0.082 A 
HETATM    4  C10 UNL     1      25.996   5.264  49.608  1.00  0.00     0.082 A 
HETATM    5  C11 UNL     1      26.808   4.178  49.754  1.00  0.00     0.072 A 
HETATM    6  C12 UNL     1      26.243   3.183  50.517  1.00  0.00     0.097 A 
HETATM    7  N3  UNL     1      26.467   6.206  48.935  1.00  0.00    -0.278 NA
HETATM    8  C15 UNL     1      27.639   6.519  48.203  1.00  0.00     0.206 C 
HETATM    9  C16 UNL     1      27.482   7.679  47.423  1.00  0.00     0.049 C 
HETATM   10  C17 UNL     1      28.922   7.508  46.920  1.00  0.00    -0.013 C 
HETATM   11  N4  UNL     1      30.113   7.349  46.525  1.00  0.00    -0.101 N 
HETATM   12  C18 UNL     1      27.095   8.985  46.645  1.00  0.00     0.021 C 
HETATM   13  C19 UNL     1      26.066   8.405  45.608  1.00  0.00     0.007 C 
HETATM   14  C20 UNL     1      24.806   8.194  46.403  1.00  0.00     0.000 C 
HETATM   15  C21 UNL     1      23.634   8.118  46.941  1.00  0.00     0.044 C 
HETATM   16  C22 UNL     1      22.241   8.295  47.100  1.00  0.00     0.015 C 
HETATM   17 CL1  UNL     1      20.739   8.886  46.449  1.00  0.00    -0.089 Cl
HETATM   18  C23 UNL     1      22.405   7.698  48.336  1.00  0.00     0.014 C 
HETATM   19  C24 UNL     1      22.863   7.043  49.575  1.00  0.00     0.178 C 
HETATM   20  N5  UNL     1      24.312   6.663  49.497  1.00  0.00    -0.284 NA
ENDROOT
BRANCH   6  21
HETATM   21  O2  UNL     1      26.501   1.964  51.014  1.00  0.00    -0.349 OA
BRANCH  21  22
HETATM   22  C13 UNL     1      27.181   1.448  52.093  1.00  0.00     0.171 C 
HETATM   23  C14 UNL     1      26.804  -0.024  52.256  1.00  0.00     0.034 C 
ENDBRANCH  21  22
ENDBRANCH   6  21
BRANCH   1  24
HETATM   24  N2  UNL     1      24.116   2.366  51.702  1.00  0.00    -0.321 N 
HETATM   25  C6  UNL     1      23.150   1.970  50.801  1.00  0.00     0.253 C 
HETATM   26  O1  UNL     1      22.428   1.800  49.836  1.00  0.00    -0.268 OA
HETATM   27  H11 UNL     1      24.291   2.051  52.664  1.00  0.00     0.169 HD
BRANCH  25  28
HETATM   28  C2  UNL     1      22.147   0.944  51.261  1.00  0.00     0.029 C 
HETATM   29  C1  UNL     1      21.199   0.583  50.353  1.00  0.00     0.026 C 
BRANCH  28  30
HETATM   30  C3  UNL     1      21.611  -0.036  52.215  1.00  0.00     0.314 C 
BRANCH  30  31
HETATM   31  N1  UNL     1      22.116   0.349  53.567  1.00  0.00     0.084 N 
HETATM   32  C4  UNL     1      21.210  -0.398  54.545  1.00  0.00     0.309 C 
HETATM   33  C5  UNL     1      23.315  -0.625  53.636  1.00  0.00     0.309 C 
ENDBRANCH  30  31
ENDBRANCH  28  30
ENDBRANCH  25  28
ENDBRANCH   1  24
TORSDOF 6
ENDMDL
MODEL 9
REMARK VINA RESULT:      -7.1      6.124     10.654
REMARK  6 active torsions:
REMARK  status: ('A' for Active; 'I' for Inactive)
REMARK    1  A    between atoms: C2_2  and  C3_3 
REMARK    2  A    between atoms: C2_2  and  C6_7 
REMARK    3  A    between atoms: C3_3  and  N1_4 
REMARK       I    between atoms: C6_7  and  N2_9 
REMARK    4  A    between atoms: N2_9  and  C7_10 
REMARK    5  A    between atoms: C12_15  and  O2_16 
REMARK    6  A    between atoms: O2_16  and  C13_17 
ROOT
HETATM    1  C7  UNL     1      24.937   6.004  50.130  1.00  0.00     0.071 A 
HETATM    2  C8  UNL     1      26.131   5.699  49.382  1.00  0.00     0.066 A 
HETATM    3  C9  UNL     1      26.996   6.685  48.869  1.00  0.00     0.082 A 
HETATM    4  C10 UNL     1      26.447   7.933  49.224  1.00  0.00     0.082 A 
HETATM    5  C11 UNL     1      25.342   8.350  49.907  1.00  0.00     0.072 A 
HETATM    6  C12 UNL     1      24.570   7.309  50.366  1.00  0.00     0.097 A 
HETATM    7  N3  UNL     1      27.178   8.841  48.771  1.00  0.00    -0.278 NA
HETATM    8  C15 UNL     1      27.248  10.255  48.760  1.00  0.00     0.206 C 
HETATM    9  C16 UNL     1      28.486  10.720  48.280  1.00  0.00     0.049 C 
HETATM   10  C17 UNL     1      28.002  12.161  48.494  1.00  0.00    -0.013 C 
HETATM   11  N4  UNL     1      27.578  13.339  48.674  1.00  0.00    -0.101 N 
HETATM   12  C18 UNL     1      29.919  11.016  47.715  1.00  0.00     0.021 C 
HETATM   13  C19 UNL     1      30.806  10.536  48.921  1.00  0.00     0.007 C 
HETATM   14  C20 UNL     1      30.795   9.035  48.825  1.00  0.00     0.000 C 
HETATM   15  C21 UNL     1      30.985   7.759  48.754  1.00  0.00     0.044 C 
HETATM   16  C22 UNL     1      31.676   6.527  48.722  1.00  0.00     0.015 C 
HETATM   17 CL1  UNL     1      33.191   5.677  48.828  1.00  0.00    -0.089 Cl
HETATM   18  C23 UNL     1      30.442   5.951  48.486  1.00  0.00     0.014 C 
HETATM   19  C24 UNL     1      29.026   5.613  48.252  1.00  0.00     0.178 C 
HETATM   20  N5  UNL     1      28.140   6.815  48.394  1.00  0.00    -0.284 NA
ENDROOT
BRANCH   6  21
HETATM   21  O2  UNL     1      23.437   7.058  51.038  1.00  0.00    -0.349 OA
BRANCH  21  22
HETATM   22  C13 UNL     1      22.093   7.296  50.858  1.00  0.00     0.171 C 
HETATM   23  C14 UNL     1      21.827   7.525  49.372  1.00  0.00     0.034 C 
ENDBRANCH  21  22
ENDBRANCH   6  21
BRANCH   1  24
HETATM   24  N2  UNL     1      24.400   4.765  50.670  1.00  0.00    -0.321 N 
HETATM   25  C6  UNL     1      23.842   4.051  49.631  1.00  0.00     0.253 C 
HETATM   26  O1  UNL     1      23.430   3.639  48.562  1.00  0.00    -0.268 OA
HETATM   27  H11 UNL     1      24.501   4.519  51.662  1.00  0.00     0.169 HD
BRANCH  25  28
HETATM   28  C2  UNL     1      23.238   2.708  49.953  1.00  0.00     0.029 C 
HETATM   29  C1  UNL     1      23.794   2.036  50.999  1.00  0.00     0.026 C 
BRANCH  28  30
HETATM   30  C3  UNL     1      22.237   1.645  49.797  1.00  0.00     0.314 C 
BRANCH  30  31
HETATM   31  N1  UNL     1      20.908   2.243  50.124  1.00  0.00     0.084 N 
HETATM   32  C4  UNL     1      20.161   2.278  48.791  1.00  0.00     0.309 C 
HETATM   33  C5  UNL     1      20.231   0.971  50.688  1.00  0.00     0.309 C 
ENDBRANCH  30  31
ENDBRANCH  28  30
ENDBRANCH  25  28
ENDBRANCH   1  24
TORSDOF 6
ENDMDL
