MODEL 1
REMARK VINA RESULT:      -7.6      0.000      0.000
REMARK  8 active torsions:
REMARK  status: ('A' for Active; 'I' for Inactive)
REMARK    1  A    between atoms: N2_5  and  C4_6 
REMARK    2  A    between atoms: C4_6  and  C5_7 
REMARK    3  A    between atoms: C5_7  and  C6_8 
REMARK    4  A    between atoms: C7_9  and  C8_10 
REMARK       I    between atoms: C8_10  and  N3_12 
REMARK    5  A    between atoms: N3_12  and  C9_13 
REMARK    6  A    between atoms: C12_16  and  N4_17 
REMARK    7  A    between atoms: N4_17  and  C13_18 
REMARK    8  A    between atoms: C14_19  and  C15_20 
ROOT
HETATM    1  C15 UNL     1      27.382  -1.048  53.030  1.00  0.00    -0.065 C 
HETATM    2  C16 UNL     1      28.553  -1.012  53.294  1.00  0.00    -0.019 C 
HETATM    3 BR1  UNL     1      30.390  -0.947  53.741  1.00  0.00     0.011 Br
ENDROOT
BRANCH   1   4
HETATM    4  C14 UNL     1      25.984  -1.106  52.735  1.00  0.00     0.082 C 
HETATM    5  C13 UNL     1      25.034  -0.236  52.979  1.00  0.00     0.098 C 
BRANCH   5   6
HETATM    6  N4  UNL     1      24.404   0.945  53.434  1.00  0.00    -0.349 N 
HETATM    7  H14 UNL     1      24.840   1.625  54.129  1.00  0.00     0.166 HD
BRANCH   6   8
HETATM    8  C12 UNL     1      23.115   1.425  53.085  1.00  0.00     0.141 A 
HETATM    9  C11 UNL     1      22.897   2.582  52.328  1.00  0.00     0.044 A 
HETATM   10  C10 UNL     1      24.027   3.246  51.903  1.00  0.00     0.068 A 
HETATM   11  C18 UNL     1      21.616   3.028  52.019  1.00  0.00     0.089 A 
HETATM   12  C9  UNL     1      23.894   4.392  51.145  1.00  0.00     0.131 A 
HETATM   13  N7  UNL     1      22.657   4.848  50.829  1.00  0.00    -0.241 NA
HETATM   14  C19 UNL     1      21.571   4.192  51.250  1.00  0.00     0.151 A 
HETATM   15  N6  UNL     1      20.536   2.353  52.443  1.00  0.00    -0.240 NA
HETATM   16  C17 UNL     1      20.768   1.232  53.177  1.00  0.00     0.236 A 
HETATM   17  N5  UNL     1      21.987   0.770  53.495  1.00  0.00    -0.224 NA
BRANCH  12  18
HETATM   18  N3  UNL     1      24.935   5.207  50.613  1.00  0.00    -0.301 N 
HETATM   19  C8  UNL     1      25.707   4.660  49.549  1.00  0.00     0.302 C 
HETATM   20  O1  UNL     1      25.398   3.483  49.165  1.00  0.00    -0.258 OA
HETATM   21  H12 UNL     1      25.190   6.173  50.927  1.00  0.00     0.171 HD
BRANCH  19  22
HETATM   22  C7  UNL     1      26.790   5.374  48.919  1.00  0.00    -0.005 C 
HETATM   23  C6  UNL     1      27.694   5.979  48.372  1.00  0.00    -0.095 C 
BRANCH  23  24
HETATM   24  C5  UNL     1      28.785   6.713  47.728  1.00  0.00     0.124 C 
BRANCH  24  25
HETATM   25  C4  UNL     1      30.058   6.006  48.087  1.00  0.00     0.284 C 
BRANCH  25  26
HETATM   26  N2  UNL     1      30.856   6.849  48.927  1.00  0.00     0.092 N 
HETATM   27  C3  UNL     1      31.621   7.841  48.233  1.00  0.00     0.302 C 
HETATM   28  C2  UNL     1      32.446   7.171  47.178  1.00  0.00     0.302 C 
HETATM   29  N1  UNL     1      33.406   6.309  47.813  1.00  0.00     0.087 N 
HETATM   30  C1  UNL     1      34.561   7.098  48.175  1.00  0.00     0.310 C 
HETATM   31  C21 UNL     1      32.898   5.470  48.845  1.00  0.00     0.302 C 
HETATM   32  C20 UNL     1      31.819   6.070  49.697  1.00  0.00     0.302 C 
ENDBRANCH  25  26
ENDBRANCH  24  25
ENDBRANCH  23  24
ENDBRANCH  19  22
ENDBRANCH  12  18
ENDBRANCH   6   8
ENDBRANCH   5   6
ENDBRANCH   1   4
TORSDOF 8
ENDMDL
MODEL 2
REMARK VINA RESULT:      -7.5      4.380     11.387
REMARK  8 active torsions:
REMARK  status: ('A' for Active; 'I' for Inactive)
REMARK    1  A    between atoms: N2_5  and  C4_6 
REMARK    2  A    between atoms: C4_6  and  C5_7 
REMARK    3  A    between atoms: C5_7  and  C6_8 
REMARK    4  A    between atoms: C7_9  and  C8_10 
REMARK       I    between atoms: C8_10  and  N3_12 
REMARK    5  A    between atoms: N3_12  and  C9_13 
REMARK    6  A    between atoms: C12_16  and  N4_17 
REMARK    7  A    between atoms: N4_17  and  C13_18 
REMARK    8  A    between atoms: C14_19  and  C15_20 
ROOT
HETATM    1  C15 UNL     1      27.045   4.366  49.080  1.00  0.00    -0.065 C 
HETATM    2  C16 UNL     1      27.888   5.119  48.674  1.00  0.00    -0.019 C 
HETATM    3 BR1  UNL     1      29.239   6.285  48.047  1.00  0.00     0.011 Br
ENDROOT
BRANCH   1   4
HETATM    4  C14 UNL     1      26.053   3.450  49.550  1.00  0.00     0.082 C 
HETATM    5  C13 UNL     1      25.700   3.147  50.777  1.00  0.00     0.098 C 
BRANCH   5   6
HETATM    6  N4  UNL     1      25.677   3.157  52.190  1.00  0.00    -0.349 N 
HETATM    7  H14 UNL     1      25.372   3.993  52.777  1.00  0.00     0.166 HD
BRANCH   6   8
HETATM    8  C12 UNL     1      26.059   2.109  53.068  1.00  0.00     0.141 A 
HETATM    9  C11 UNL     1      25.240   1.017  53.373  1.00  0.00     0.044 A 
HETATM   10  C10 UNL     1      24.013   0.989  52.747  1.00  0.00     0.068 A 
HETATM   11  C18 UNL     1      25.645   0.016  54.250  1.00  0.00     0.089 A 
HETATM   12  C9  UNL     1      23.151  -0.061  52.992  1.00  0.00     0.131 A 
HETATM   13  N7  UNL     1      23.521  -1.049  53.842  1.00  0.00    -0.241 NA
HETATM   14  C19 UNL     1      24.716  -1.007  54.442  1.00  0.00     0.151 A 
HETATM   15  N6  UNL     1      26.851   0.070  54.839  1.00  0.00    -0.240 NA
HETATM   16  C17 UNL     1      27.632   1.138  54.529  1.00  0.00     0.236 A 
HETATM   17  N5  UNL     1      27.277   2.122  53.689  1.00  0.00    -0.224 NA
BRANCH  12  18
HETATM   18  N3  UNL     1      21.853  -0.266  52.440  1.00  0.00    -0.301 N 
HETATM   19  C8  UNL     1      20.743  -0.100  53.314  1.00  0.00     0.302 C 
HETATM   20  O1  UNL     1      21.008   0.219  54.521  1.00  0.00    -0.258 OA
HETATM   21  H12 UNL     1      21.633  -0.527  51.449  1.00  0.00     0.171 HD
BRANCH  19  22
HETATM   22  C7  UNL     1      19.376  -0.277  52.889  1.00  0.00    -0.005 C 
HETATM   23  C6  UNL     1      18.221  -0.409  52.529  1.00  0.00    -0.095 C 
BRANCH  23  24
HETATM   24  C5  UNL     1      16.835  -0.578  52.087  1.00  0.00     0.124 C 
BRANCH  24  25
HETATM   25  C4  UNL     1      16.370   0.757  51.589  1.00  0.00     0.284 C 
BRANCH  25  26
HETATM   26  N2  UNL     1      14.950   0.863  51.749  1.00  0.00     0.092 N 
HETATM   27  C3  UNL     1      14.257   1.414  50.622  1.00  0.00     0.302 C 
HETATM   28  C2  UNL     1      14.873   2.732  50.267  1.00  0.00     0.302 C 
HETATM   29  N1  UNL     1      14.660   3.655  51.349  1.00  0.00     0.087 N 
HETATM   30  C1  UNL     1      13.355   4.254  51.189  1.00  0.00     0.310 C 
HETATM   31  C21 UNL     1      14.942   3.157  52.653  1.00  0.00     0.302 C 
HETATM   32  C20 UNL     1      14.605   1.713  52.882  1.00  0.00     0.302 C 
ENDBRANCH  25  26
ENDBRANCH  24  25
ENDBRANCH  23  24
ENDBRANCH  19  22
ENDBRANCH  12  18
ENDBRANCH   6   8
ENDBRANCH   5   6
ENDBRANCH   1   4
TORSDOF 8
ENDMDL
MODEL 3
REMARK VINA RESULT:      -7.5      2.671      3.770
REMARK  8 active torsions:
REMARK  status: ('A' for Active; 'I' for Inactive)
REMARK    1  A    between atoms: N2_5  and  C4_6 
REMARK    2  A    between atoms: C4_6  and  C5_7 
REMARK    3  A    between atoms: C5_7  and  C6_8 
REMARK    4  A    between atoms: C7_9  and  C8_10 
REMARK       I    between atoms: C8_10  and  N3_12 
REMARK    5  A    between atoms: N3_12  and  C9_13 
REMARK    6  A    between atoms: C12_16  and  N4_17 
REMARK    7  A    between atoms: N4_17  and  C13_18 
REMARK    8  A    between atoms: C14_19  and  C15_20 
ROOT
HETATM    1  C15 UNL     1      26.455   2.307  51.827  1.00  0.00    -0.065 C 
HETATM    2  C16 UNL     1      26.524   3.017  50.861  1.00  0.00    -0.019 C 
HETATM    3 BR1  UNL     1      26.663   4.142  49.346  1.00  0.00     0.011 Br
ENDROOT
BRANCH   1   4
HETATM    4  C14 UNL     1      26.393   1.446  52.967  1.00  0.00     0.082 C 
HETATM    5  C13 UNL     1      25.591   0.439  53.220  1.00  0.00     0.098 C 
BRANCH   5   6
HETATM    6  N4  UNL     1      24.558  -0.509  53.041  1.00  0.00    -0.349 N 
HETATM    7  H14 UNL     1      24.699  -1.472  52.607  1.00  0.00     0.166 HD
BRANCH   6   8
HETATM    8  C12 UNL     1      23.185  -0.363  53.373  1.00  0.00     0.141 A 
HETATM    9  C11 UNL     1      22.416   0.749  53.015  1.00  0.00     0.044 A 
HETATM   10  C10 UNL     1      23.062   1.720  52.282  1.00  0.00     0.068 A 
HETATM   11  C18 UNL     1      21.076   0.862  53.371  1.00  0.00     0.089 A 
HETATM   12  C9  UNL     1      22.367   2.844  51.884  1.00  0.00     0.131 A 
HETATM   13  N7  UNL     1      21.061   2.979  52.219  1.00  0.00    -0.241 NA
HETATM   14  C19 UNL     1      20.448   2.027  52.931  1.00  0.00     0.151 A 
HETATM   15  N6  UNL     1      20.474  -0.107  54.081  1.00  0.00    -0.240 NA
HETATM   16  C17 UNL     1      21.238  -1.178  54.419  1.00  0.00     0.236 A 
HETATM   17  N5  UNL     1      22.531  -1.323  54.093  1.00  0.00    -0.224 NA
BRANCH  12  18
HETATM   18  N3  UNL     1      22.858   3.945  51.123  1.00  0.00    -0.301 N 
HETATM   19  C8  UNL     1      23.453   5.018  51.844  1.00  0.00     0.302 C 
HETATM   20  O1  UNL     1      23.495   4.900  53.114  1.00  0.00    -0.258 OA
HETATM   21  H12 UNL     1      22.825   4.043  50.081  1.00  0.00     0.171 HD
BRANCH  19  22
HETATM   22  C7  UNL     1      23.990   6.193  51.202  1.00  0.00    -0.005 C 
HETATM   23  C6  UNL     1      24.459   7.176  50.659  1.00  0.00    -0.095 C 
BRANCH  23  24
HETATM   24  C5  UNL     1      25.011   8.361  49.999  1.00  0.00     0.124 C 
BRANCH  24  25
HETATM   25  C4  UNL     1      26.475   8.105  49.800  1.00  0.00     0.284 C 
BRANCH  25  26
HETATM   26  N2  UNL     1      26.934   8.809  48.639  1.00  0.00     0.092 N 
HETATM   27  C3  UNL     1      27.556   7.988  47.644  1.00  0.00     0.302 C 
HETATM   28  C2  UNL     1      28.656   7.197  48.282  1.00  0.00     0.302 C 
HETATM   29  N1  UNL     1      29.677   8.101  48.739  1.00  0.00     0.087 N 
HETATM   30  C1  UNL     1      30.562   8.388  47.634  1.00  0.00     0.310 C 
HETATM   31  C21 UNL     1      29.219   9.239  49.460  1.00  0.00     0.302 C 
HETATM   32  C20 UNL     1      27.920   9.825  48.990  1.00  0.00     0.302 C 
ENDBRANCH  25  26
ENDBRANCH  24  25
ENDBRANCH  23  24
ENDBRANCH  19  22
ENDBRANCH  12  18
ENDBRANCH   6   8
ENDBRANCH   5   6
ENDBRANCH   1   4
TORSDOF 8
ENDMDL
MODEL 4
REMARK VINA RESULT:      -7.4      2.531      4.274
REMARK  8 active torsions:
REMARK  status: ('A' for Active; 'I' for Inactive)
REMARK    1  A    between atoms: N2_5  and  C4_6 
REMARK    2  A    between atoms: C4_6  and  C5_7 
REMARK    3  A    between atoms: C5_7  and  C6_8 
REMARK    4  A    between atoms: C7_9  and  C8_10 
REMARK       I    between atoms: C8_10  and  N3_12 
REMARK    5  A    between atoms: N3_12  and  C9_13 
REMARK    6  A    between atoms: C12_16  and  N4_17 
REMARK    7  A    between atoms: N4_17  and  C13_18 
REMARK    8  A    between atoms: C14_19  and  C15_20 
ROOT
HETATM    1  C15 UNL     1      22.093   5.355  51.427  1.00  0.00    -0.065 C 
HETATM    2  C16 UNL     1      22.878   6.212  51.121  1.00  0.00    -0.019 C 
HETATM    3 BR1  UNL     1      24.104   7.578  50.666  1.00  0.00     0.011 Br
ENDROOT
BRANCH   1   4
HETATM    4  C14 UNL     1      21.170   4.335  51.814  1.00  0.00     0.082 C 
HETATM    5  C13 UNL     1      21.265   3.031  51.714  1.00  0.00     0.098 C 
BRANCH   5   6
HETATM    6  N4  UNL     1      21.806   1.761  51.408  1.00  0.00    -0.349 N 
HETATM    7  H14 UNL     1      21.675   1.265  50.474  1.00  0.00     0.166 HD
BRANCH   6   8
HETATM    8  C12 UNL     1      22.580   0.926  52.256  1.00  0.00     0.141 A 
HETATM    9  C11 UNL     1      23.966   1.043  52.403  1.00  0.00     0.044 A 
HETATM   10  C10 UNL     1      24.567   2.052  51.683  1.00  0.00     0.068 A 
HETATM   11  C18 UNL     1      24.692   0.195  53.234  1.00  0.00     0.089 A 
HETATM   12  C9  UNL     1      25.931   2.236  51.782  1.00  0.00     0.131 A 
HETATM   13  N7  UNL     1      26.662   1.423  52.584  1.00  0.00    -0.241 NA
HETATM   14  C19 UNL     1      26.063   0.448  53.276  1.00  0.00     0.151 A 
HETATM   15  N6  UNL     1      24.074  -0.775  53.927  1.00  0.00    -0.240 NA
HETATM   16  C17 UNL     1      22.728  -0.873  53.771  1.00  0.00     0.236 A 
HETATM   17  N5  UNL     1      21.994  -0.074  52.980  1.00  0.00    -0.224 NA
BRANCH  12  18
HETATM   18  N3  UNL     1      26.725   3.221  51.125  1.00  0.00    -0.301 N 
HETATM   19  C8  UNL     1      26.234   3.731  49.890  1.00  0.00     0.302 C 
HETATM   20  O1  UNL     1      25.122   3.259  49.478  1.00  0.00    -0.258 OA
HETATM   21  H12 UNL     1      27.638   3.609  51.462  1.00  0.00     0.171 HD
BRANCH  19  22
HETATM   22  C7  UNL     1      26.935   4.729  49.120  1.00  0.00    -0.005 C 
HETATM   23  C6  UNL     1      27.527   5.581  48.484  1.00  0.00    -0.095 C 
BRANCH  23  24
HETATM   24  C5  UNL     1      28.247   6.597  47.713  1.00  0.00     0.124 C 
BRANCH  24  25
HETATM   25  C4  UNL     1      29.521   6.882  48.451  1.00  0.00     0.284 C 
BRANCH  25  26
HETATM   26  N2  UNL     1      30.526   7.316  47.527  1.00  0.00     0.092 N 
HETATM   27  C3  UNL     1      31.347   6.269  46.995  1.00  0.00     0.302 C 
HETATM   28  C2  UNL     1      31.938   5.489  48.128  1.00  0.00     0.302 C 
HETATM   29  N1  UNL     1      32.824   6.343  48.872  1.00  0.00     0.087 N 
HETATM   30  C1  UNL     1      34.117   6.333  48.228  1.00  0.00     0.310 C 
HETATM   31  C21 UNL     1      32.316   7.634  49.192  1.00  0.00     0.302 C 
HETATM   32  C20 UNL     1      31.443   8.264  48.148  1.00  0.00     0.302 C 
ENDBRANCH  25  26
ENDBRANCH  24  25
ENDBRANCH  23  24
ENDBRANCH  19  22
ENDBRANCH  12  18
ENDBRANCH   6   8
ENDBRANCH   5   6
ENDBRANCH   1   4
TORSDOF 8
ENDMDL
MODEL 5
REMARK VINA RESULT:      -7.3      4.756     11.315
REMARK  8 active torsions:
REMARK  status: ('A' for Active; 'I' for Inactive)
REMARK    1  A    between atoms: N2_5  and  C4_6 
REMARK    2  A    between atoms: C4_6  and  C5_7 
REMARK    3  A    between atoms: C5_7  and  C6_8 
REMARK    4  A    between atoms: C7_9  and  C8_10 
REMARK       I    between atoms: C8_10  and  N3_12 
REMARK    5  A    between atoms: N3_12  and  C9_13 
REMARK    6  A    between atoms: C12_16  and  N4_17 
REMARK    7  A    between atoms: N4_17  and  C13_18 
REMARK    8  A    between atoms: C14_19  and  C15_20 
ROOT
HETATM    1  C15 UNL     1      25.909   4.845  49.235  1.00  0.00    -0.065 C 
HETATM    2  C16 UNL     1      25.493   5.906  48.856  1.00  0.00    -0.019 C 
HETATM    3 BR1  UNL     1      24.856   7.592  48.281  1.00  0.00     0.011 Br
ENDROOT
BRANCH   1   4
HETATM    4  C14 UNL     1      26.428   3.590  49.683  1.00  0.00     0.082 C 
HETATM    5  C13 UNL     1      26.370   3.029  50.867  1.00  0.00     0.098 C 
BRANCH   5   6
HETATM    6  N4  UNL     1      26.058   2.848  52.234  1.00  0.00    -0.349 N 
HETATM    7  H14 UNL     1      25.773   3.637  52.891  1.00  0.00     0.166 HD
BRANCH   6   8
HETATM    8  C12 UNL     1      26.082   1.636  52.972  1.00  0.00     0.141 A 
HETATM    9  C11 UNL     1      24.934   0.912  53.311  1.00  0.00     0.044 A 
HETATM   10  C10 UNL     1      23.739   1.432  52.864  1.00  0.00     0.068 A 
HETATM   11  C18 UNL     1      24.998  -0.265  54.049  1.00  0.00     0.089 A 
HETATM   12  C9  UNL     1      22.562   0.770  53.152  1.00  0.00     0.131 A 
HETATM   13  N7  UNL     1      22.596  -0.379  53.869  1.00  0.00    -0.241 NA
HETATM   14  C19 UNL     1      23.765  -0.870  54.296  1.00  0.00     0.151 A 
HETATM   15  N6  UNL     1      26.180  -0.748  54.464  1.00  0.00    -0.240 NA
HETATM   16  C17 UNL     1      27.284  -0.031  54.125  1.00  0.00     0.236 A 
HETATM   17  N5  UNL     1      27.262   1.107  53.415  1.00  0.00    -0.224 NA
BRANCH  12  18
HETATM   18  N3  UNL     1      21.240   1.145  52.775  1.00  0.00    -0.301 N 
HETATM   19  C8  UNL     1      20.748   0.635  51.540  1.00  0.00     0.302 C 
HETATM   20  O1  UNL     1      21.538  -0.117  50.877  1.00  0.00    -0.258 OA
HETATM   21  H12 UNL     1      20.590   1.762  53.318  1.00  0.00     0.171 HD
BRANCH  19  22
HETATM   22  C7  UNL     1      19.430   0.934  51.037  1.00  0.00    -0.005 C 
HETATM   23  C6  UNL     1      18.317   1.171  50.605  1.00  0.00    -0.095 C 
BRANCH  23  24
HETATM   24  C5  UNL     1      16.974   1.463  50.099  1.00  0.00     0.124 C 
BRANCH  24  25
HETATM   25  C4  UNL     1      16.165   1.948  51.264  1.00  0.00     0.284 C 
BRANCH  25  26
HETATM   26  N2  UNL     1      15.198   2.905  50.814  1.00  0.00     0.092 N 
HETATM   27  C3  UNL     1      15.239   4.167  51.492  1.00  0.00     0.302 C 
HETATM   28  C2  UNL     1      15.139   3.931  52.967  1.00  0.00     0.302 C 
HETATM   29  N1  UNL     1      13.850   3.369  53.264  1.00  0.00     0.087 N 
HETATM   30  C1  UNL     1      12.899   4.448  53.400  1.00  0.00     0.310 C 
HETATM   31  C21 UNL     1      13.433   2.297  52.425  1.00  0.00     0.302 C 
HETATM   32  C20 UNL     1      13.838   2.406  50.985  1.00  0.00     0.302 C 
ENDBRANCH  25  26
ENDBRANCH  24  25
ENDBRANCH  23  24
ENDBRANCH  19  22
ENDBRANCH  12  18
ENDBRANCH   6   8
ENDBRANCH   5   6
ENDBRANCH   1   4
TORSDOF 8
ENDMDL
MODEL 6
REMARK VINA RESULT:      -7.3      4.860     11.694
REMARK  8 active torsions:
REMARK  status: ('A' for Active; 'I' for Inactive)
REMARK    1  A    between atoms: N2_5  and  C4_6 
REMARK    2  A    between atoms: C4_6  and  C5_7 
REMARK    3  A    between atoms: C5_7  and  C6_8 
REMARK    4  A    between atoms: C7_9  and  C8_10 
REMARK       I    between atoms: C8_10  and  N3_12 
REMARK    5  A    between atoms: N3_12  and  C9_13 
REMARK    6  A    between atoms: C12_16  and  N4_17 
REMARK    7  A    between atoms: N4_17  and  C13_18 
REMARK    8  A    between atoms: C14_19  and  C15_20 
ROOT
HETATM    1  C15 UNL     1      26.703   5.135  48.965  1.00  0.00    -0.065 C 
HETATM    2  C16 UNL     1      26.616   6.303  48.696  1.00  0.00    -0.019 C 
HETATM    3 BR1  UNL     1      26.447   8.141  48.282  1.00  0.00     0.011 Br
ENDROOT
BRANCH   1   4
HETATM    4  C14 UNL     1      26.799   3.751  49.308  1.00  0.00     0.082 C 
HETATM    5  C13 UNL     1      26.301   3.101  50.333  1.00  0.00     0.098 C 
BRANCH   5   6
HETATM    6  N4  UNL     1      25.598   2.862  51.536  1.00  0.00    -0.349 N 
HETATM    7  H14 UNL     1      25.156   3.627  52.132  1.00  0.00     0.166 HD
BRANCH   6   8
HETATM    8  C12 UNL     1      25.370   1.612  52.169  1.00  0.00     0.141 A 
HETATM    9  C11 UNL     1      24.119   1.200  52.642  1.00  0.00     0.044 A 
HETATM   10  C10 UNL     1      23.078   2.080  52.441  1.00  0.00     0.068 A 
HETATM   11  C18 UNL     1      23.939  -0.028  53.270  1.00  0.00     0.089 A 
HETATM   12  C9  UNL     1      21.811   1.741  52.874  1.00  0.00     0.131 A 
HETATM   13  N7  UNL     1      21.608   0.551  53.489  1.00  0.00    -0.241 NA
HETATM   14  C19 UNL     1      22.630  -0.292  53.677  1.00  0.00     0.151 A 
HETATM   15  N6  UNL     1      24.974  -0.865  53.444  1.00  0.00    -0.240 NA
HETATM   16  C17 UNL     1      26.180  -0.448  52.978  1.00  0.00     0.236 A 
HETATM   17  N5  UNL     1      26.393   0.728  52.367  1.00  0.00    -0.224 NA
BRANCH  12  18
HETATM   18  N3  UNL     1      20.618   2.510  52.753  1.00  0.00    -0.301 N 
HETATM   19  C8  UNL     1      19.765   2.215  51.652  1.00  0.00     0.302 C 
HETATM   20  O1  UNL     1      20.146   1.284  50.867  1.00  0.00    -0.258 OA
HETATM   21  H12 UNL     1      20.303   3.275  53.396  1.00  0.00     0.171 HD
BRANCH  19  22
HETATM   22  C7  UNL     1      18.528   2.916  51.409  1.00  0.00    -0.005 C 
HETATM   23  C6  UNL     1      17.484   3.514  51.220  1.00  0.00    -0.095 C 
BRANCH  23  24
HETATM   24  C5  UNL     1      16.234   4.236  50.979  1.00  0.00     0.124 C 
BRANCH  24  25
HETATM   25  C4  UNL     1      15.116   3.280  51.272  1.00  0.00     0.284 C 
BRANCH  25  26
HETATM   26  N2  UNL     1      15.058   3.023  52.681  1.00  0.00     0.092 N 
HETATM   27  C3  UNL     1      14.246   1.905  53.056  1.00  0.00     0.302 C 
HETATM   28  C2  UNL     1      12.879   2.076  52.469  1.00  0.00     0.302 C 
HETATM   29  N1  UNL     1      12.257   3.230  53.062  1.00  0.00     0.087 N 
HETATM   30  C1  UNL     1      11.641   2.829  54.306  1.00  0.00     0.310 C 
HETATM   31  C21 UNL     1      13.064   4.400  53.134  1.00  0.00     0.302 C 
HETATM   32  C20 UNL     1      14.520   4.168  53.407  1.00  0.00     0.302 C 
ENDBRANCH  25  26
ENDBRANCH  24  25
ENDBRANCH  23  24
ENDBRANCH  19  22
ENDBRANCH  12  18
ENDBRANCH   6   8
ENDBRANCH   5   6
ENDBRANCH   1   4
TORSDOF 8
ENDMDL
MODEL 7
REMARK VINA RESULT:      -7.3      3.004      4.775
REMARK  8 active torsions:
REMARK  status: ('A' for Active; 'I' for Inactive)
REMARK    1  A    between atoms: N2_5  and  C4_6 
REMARK    2  A    between atoms: C4_6  and  C5_7 
REMARK    3  A    between atoms: C5_7  and  C6_8 
REMARK    4  A    between atoms: C7_9  and  C8_10 
REMARK       I    between atoms: C8_10  and  N3_12 
REMARK    5  A    between atoms: N3_12  and  C9_13 
REMARK    6  A    between atoms: C12_16  and  N4_17 
REMARK    7  A    between atoms: N4_17  and  C13_18 
REMARK    8  A    between atoms: C14_19  and  C15_20 
ROOT
HETATM    1  C15 UNL     1      20.857   3.522  52.089  1.00  0.00    -0.065 C 
HETATM    2  C16 UNL     1      21.275   4.537  51.600  1.00  0.00    -0.019 C 
HETATM    3 BR1  UNL     1      21.905   6.149  50.836  1.00  0.00     0.011 Br
ENDROOT
BRANCH   1   4
HETATM    4  C14 UNL     1      20.353   2.328  52.692  1.00  0.00     0.082 C 
HETATM    5  C13 UNL     1      20.890   1.134  52.773  1.00  0.00     0.098 C 
BRANCH   5   6
HETATM    6  N4  UNL     1      21.828   0.089  52.610  1.00  0.00    -0.349 N 
HETATM    7  H14 UNL     1      21.847  -0.572  51.774  1.00  0.00     0.166 HD
BRANCH   6   8
HETATM    8  C12 UNL     1      22.870  -0.282  53.499  1.00  0.00     0.141 A 
HETATM    9  C11 UNL     1      24.106   0.371  53.560  1.00  0.00     0.044 A 
HETATM   10  C10 UNL     1      24.266   1.441  52.707  1.00  0.00     0.068 A 
HETATM   11  C18 UNL     1      25.108  -0.032  54.436  1.00  0.00     0.089 A 
HETATM   12  C9  UNL     1      25.455   2.142  52.715  1.00  0.00     0.131 A 
HETATM   13  N7  UNL     1      26.448   1.770  53.559  1.00  0.00    -0.241 NA
HETATM   14  C19 UNL     1      26.277   0.728  54.380  1.00  0.00     0.151 A 
HETATM   15  N6  UNL     1      24.917  -1.076  55.260  1.00  0.00    -0.240 NA
HETATM   16  C17 UNL     1      23.711  -1.697  55.185  1.00  0.00     0.236 A 
HETATM   17  N5  UNL     1      22.721  -1.337  54.354  1.00  0.00    -0.224 NA
BRANCH  12  18
HETATM   18  N3  UNL     1      25.803   3.270  51.917  1.00  0.00    -0.301 N 
HETATM   19  C8  UNL     1      26.372   3.010  50.639  1.00  0.00     0.302 C 
HETATM   20  O1  UNL     1      26.522   1.784  50.319  1.00  0.00    -0.258 OA
HETATM   21  H12 UNL     1      25.681   4.278  52.178  1.00  0.00     0.171 HD
BRANCH  19  22
HETATM   22  C7  UNL     1      26.771   4.057  49.730  1.00  0.00    -0.005 C 
HETATM   23  C6  UNL     1      27.091   4.941  48.957  1.00  0.00    -0.095 C 
BRANCH  23  24
HETATM   24  C5  UNL     1      27.484   6.011  48.038  1.00  0.00     0.124 C 
BRANCH  24  25
HETATM   25  C4  UNL     1      28.934   6.294  48.295  1.00  0.00     0.284 C 
BRANCH  25  26
HETATM   26  N2  UNL     1      29.377   7.355  47.439  1.00  0.00     0.092 N 
HETATM   27  C3  UNL     1      30.726   7.783  47.660  1.00  0.00     0.302 C 
HETATM   28  C2  UNL     1      30.897   8.131  49.106  1.00  0.00     0.302 C 
HETATM   29  N1  UNL     1      30.070   9.266  49.416  1.00  0.00     0.087 N 
HETATM   30  C1  UNL     1      30.793  10.468  49.070  1.00  0.00     0.310 C 
HETATM   31  C21 UNL     1      28.731   9.206  48.935  1.00  0.00     0.302 C 
HETATM   32  C20 UNL     1      28.550   8.546  47.600  1.00  0.00     0.302 C 
ENDBRANCH  25  26
ENDBRANCH  24  25
ENDBRANCH  23  24
ENDBRANCH  19  22
ENDBRANCH  12  18
ENDBRANCH   6   8
ENDBRANCH   5   6
ENDBRANCH   1   4
TORSDOF 8
ENDMDL
MODEL 8
REMARK VINA RESULT:      -7.2      2.834      3.634
REMARK  8 active torsions:
REMARK  status: ('A' for Active; 'I' for Inactive)
REMARK    1  A    between atoms: N2_5  and  C4_6 
REMARK    2  A    between atoms: C4_6  and  C5_7 
REMARK    3  A    between atoms: C5_7  and  C6_8 
REMARK    4  A    between atoms: C7_9  and  C8_10 
REMARK       I    between atoms: C8_10  and  N3_12 
REMARK    5  A    between atoms: N3_12  and  C9_13 
REMARK    6  A    between atoms: C12_16  and  N4_17 
REMARK    7  A    between atoms: N4_17  and  C13_18 
REMARK    8  A    between atoms: C14_19  and  C15_20 
ROOT
HETATM    1  C15 UNL     1      24.073   0.609  53.007  1.00  0.00    -0.065 C 
HETATM    2  C16 UNL     1      23.271  -0.080  53.577  1.00  0.00    -0.019 C 
HETATM    3 BR1  UNL     1      22.027  -1.191  54.471  1.00  0.00     0.011 Br
ENDROOT
BRANCH   1   4
HETATM    4  C14 UNL     1      25.046   1.422  52.346  1.00  0.00     0.082 C 
HETATM    5  C13 UNL     1      24.915   2.223  51.316  1.00  0.00     0.098 C 
BRANCH   5   6
HETATM    6  N4  UNL     1      24.304   2.920  50.249  1.00  0.00    -0.349 N 
HETATM    7  H14 UNL     1      24.602   2.833  49.230  1.00  0.00     0.166 HD
BRANCH   6   8
HETATM    8  C12 UNL     1      23.232   3.848  50.325  1.00  0.00     0.141 A 
HETATM    9  C11 UNL     1      23.412   5.228  50.469  1.00  0.00     0.044 A 
HETATM   10  C10 UNL     1      24.717   5.666  50.513  1.00  0.00     0.068 A 
HETATM   11  C18 UNL     1      22.334   6.104  50.554  1.00  0.00     0.089 A 
HETATM   12  C9  UNL     1      24.975   7.016  50.645  1.00  0.00     0.131 A 
HETATM   13  N7  UNL     1      23.943   7.891  50.730  1.00  0.00    -0.241 NA
HETATM   14  C19 UNL     1      22.682   7.449  50.686  1.00  0.00     0.151 A 
HETATM   15  N6  UNL     1      21.074   5.645  50.501  1.00  0.00    -0.240 NA
HETATM   16  C17 UNL     1      20.920   4.302  50.361  1.00  0.00     0.236 A 
HETATM   17  N5  UNL     1      21.933   3.426  50.275  1.00  0.00    -0.224 NA
BRANCH  12  18
HETATM   18  N3  UNL     1      26.247   7.655  50.703  1.00  0.00    -0.301 N 
HETATM   19  C8  UNL     1      26.823   8.067  49.468  1.00  0.00     0.302 C 
HETATM   20  O1  UNL     1      26.147   7.827  48.414  1.00  0.00    -0.258 OA
HETATM   21  H12 UNL     1      26.804   7.854  51.568  1.00  0.00     0.171 HD
BRANCH  19  22
HETATM   22  C7  UNL     1      28.104   8.725  49.381  1.00  0.00    -0.005 C 
HETATM   23  C6  UNL     1      29.184   9.278  49.290  1.00  0.00    -0.095 C 
BRANCH  23  24
HETATM   24  C5  UNL     1      30.480   9.953  49.191  1.00  0.00     0.124 C 
BRANCH  24  25
HETATM   25  C4  UNL     1      31.532   8.886  49.249  1.00  0.00     0.284 C 
BRANCH  25  26
HETATM   26  N2  UNL     1      31.950   8.549  47.920  1.00  0.00     0.092 N 
HETATM   27  C3  UNL     1      31.645   7.209  47.514  1.00  0.00     0.302 C 
HETATM   28  C2  UNL     1      32.199   6.255  48.527  1.00  0.00     0.302 C 
HETATM   29  N1  UNL     1      33.634   6.349  48.522  1.00  0.00     0.087 N 
HETATM   30  C1  UNL     1      34.145   5.493  47.476  1.00  0.00     0.310 C 
HETATM   31  C21 UNL     1      34.168   7.669  48.539  1.00  0.00     0.302 C 
HETATM   32  C20 UNL     1      33.392   8.693  47.765  1.00  0.00     0.302 C 
ENDBRANCH  25  26
ENDBRANCH  24  25
ENDBRANCH  23  24
ENDBRANCH  19  22
ENDBRANCH  12  18
ENDBRANCH   6   8
ENDBRANCH   5   6
ENDBRANCH   1   4
TORSDOF 8
ENDMDL
MODEL 9
REMARK VINA RESULT:      -7.1      3.471      5.050
REMARK  8 active torsions:
REMARK  status: ('A' for Active; 'I' for Inactive)
REMARK    1  A    between atoms: N2_5  and  C4_6 
REMARK    2  A    between atoms: C4_6  and  C5_7 
REMARK    3  A    between atoms: C5_7  and  C6_8 
REMARK    4  A    between atoms: C7_9  and  C8_10 
REMARK       I    between atoms: C8_10  and  N3_12 
REMARK    5  A    between atoms: N3_12  and  C9_13 
REMARK    6  A    between atoms: C12_16  and  N4_17 
REMARK    7  A    between atoms: N4_17  and  C13_18 
REMARK    8  A    between atoms: C14_19  and  C15_20 
ROOT
HETATM    1  C15 UNL     1      21.766   2.878  47.387  1.00  0.00    -0.065 C 
HETATM    2  C16 UNL     1      21.740   3.884  46.732  1.00  0.00    -0.019 C 
HETATM    3 BR1  UNL     1      21.731   5.471  45.701  1.00  0.00     0.011 Br
ENDROOT
BRANCH   1   4
HETATM    4  C14 UNL     1      21.812   1.669  48.148  1.00  0.00     0.082 C 
HETATM    5  C13 UNL     1      21.963   1.490  49.438  1.00  0.00     0.098 C 
BRANCH   5   6
HETATM    6  N4  UNL     1      22.141   1.798  50.807  1.00  0.00    -0.349 N 
HETATM    7  H14 UNL     1      21.740   2.664  51.281  1.00  0.00     0.166 HD
BRANCH   6   8
HETATM    8  C12 UNL     1      22.873   1.057  51.770  1.00  0.00     0.141 A 
HETATM    9  C11 UNL     1      24.238   1.241  52.016  1.00  0.00     0.044 A 
HETATM   10  C10 UNL     1      24.858   2.222  51.273  1.00  0.00     0.068 A 
HETATM   11  C18 UNL     1      24.924   0.484  52.960  1.00  0.00     0.089 A 
HETATM   12  C9  UNL     1      26.203   2.469  51.464  1.00  0.00     0.131 A 
HETATM   13  N7  UNL     1      26.895   1.745  52.378  1.00  0.00    -0.241 NA
HETATM   14  C19 UNL     1      26.278   0.797  53.091  1.00  0.00     0.151 A 
HETATM   15  N6  UNL     1      24.288  -0.460  53.673  1.00  0.00    -0.240 NA
HETATM   16  C17 UNL     1      22.963  -0.624  53.420  1.00  0.00     0.236 A 
HETATM   17  N5  UNL     1      22.268   0.087  52.519  1.00  0.00    -0.224 NA
BRANCH  12  18
HETATM   18  N3  UNL     1      27.011   3.437  50.801  1.00  0.00    -0.301 N 
HETATM   19  C8  UNL     1      26.444   4.088  49.669  1.00  0.00     0.302 C 
HETATM   20  O1  UNL     1      25.258   3.746  49.346  1.00  0.00    -0.258 OA
HETATM   21  H12 UNL     1      27.985   3.719  51.064  1.00  0.00     0.171 HD
BRANCH  19  22
HETATM   22  C7  UNL     1      27.151   5.087  48.904  1.00  0.00    -0.005 C 
HETATM   23  C6  UNL     1      27.733   5.941  48.261  1.00  0.00    -0.095 C 
BRANCH  23  24
HETATM   24  C5  UNL     1      28.446   6.964  47.494  1.00  0.00     0.124 C 
BRANCH  24  25
HETATM   25  C4  UNL     1      29.302   7.719  48.466  1.00  0.00     0.284 C 
BRANCH  25  26
HETATM   26  N2  UNL     1      30.312   8.446  47.755  1.00  0.00     0.092 N 
HETATM   27  C3  UNL     1      31.327   9.031  48.581  1.00  0.00     0.302 C 
HETATM   28  C2  UNL     1      30.674   9.875  49.631  1.00  0.00     0.302 C 
HETATM   29  N1  UNL     1      30.003  10.976  48.996  1.00  0.00     0.087 N 
HETATM   30  C1  UNL     1      30.962  12.035  48.781  1.00  0.00     0.310 C 
HETATM   31  C21 UNL     1      29.203  10.645  47.866  1.00  0.00     0.302 C 
HETATM   32  C20 UNL     1      29.736   9.548  46.993  1.00  0.00     0.302 C 
ENDBRANCH  25  26
ENDBRANCH  24  25
ENDBRANCH  23  24
ENDBRANCH  19  22
ENDBRANCH  12  18
ENDBRANCH   6   8
ENDBRANCH   5   6
ENDBRANCH   1   4
TORSDOF 8
ENDMDL
