MODEL 1
REMARK VINA RESULT:      -8.0      0.000      0.000
REMARK  0 active torsions:
REMARK  status: ('A' for Active; 'I' for Inactive)
ROOT
HETATM    1  F1  UNL     1      26.903  -0.302  54.025  1.00  0.00    -0.205 F 
HETATM    2  C1  UNL     1      25.777   0.381  53.718  1.00  0.00     0.127 C 
HETATM    3  C2  UNL     1      25.965   1.692  53.699  1.00  0.00     0.016 C 
HETATM    4  C3  UNL     1      24.914   2.460  53.593  1.00  0.00     0.046 C 
HETATM    5  C4  UNL     1      24.078   2.013  52.418  1.00  0.00     0.144 C 
HETATM    6  C5  UNL     1      23.588   0.674  52.775  1.00  0.00     0.034 C 
HETATM    7  C6  UNL     1      24.438  -0.127  53.420  1.00  0.00     0.043 C 
HETATM    8  N1  UNL     1      25.011   1.993  51.280  1.00  0.00    -0.367 N 
HETATM    9  C7  UNL     1      25.587   3.283  51.166  1.00  0.00     0.087 C 
HETATM   10  C8  UNL     1      25.167   4.207  50.324  1.00  0.00     0.032 C 
HETATM   11  C9  UNL     1      24.023   3.930  49.418  1.00  0.00    -0.002 A 
HETATM   12 BR1  UNL     1      23.419   5.295  48.193  1.00  0.00    -0.118 Br
HETATM   13  C10 UNL     1      23.027   3.215  48.854  1.00  0.00     0.115 A 
HETATM   14  C11 UNL     1      21.903   2.747  48.059  1.00  0.00     0.006 C 
HETATM   15  C12 UNL     1      21.650   1.499  48.208  1.00  0.00    -0.028 C 
HETATM   16  C13 UNL     1      21.794   0.982  49.440  1.00  0.00     0.028 C 
HETATM   17  C14 UNL     1      21.387   1.973  50.495  1.00  0.00     0.028 A 
HETATM   18  C15 UNL     1      19.976   2.121  50.316  1.00  0.00     0.133 A 
HETATM   19  N2  UNL     1      18.999   2.865  50.953  1.00  0.00    -0.253 NA
HETATM   20  C16 UNL     1      19.527   3.608  51.966  1.00  0.00     0.234 A 
HETATM   21  N3  UNL     1      20.845   3.540  52.218  1.00  0.00    -0.224 NA
HETATM   22  C17 UNL     1      21.747   2.804  51.573  1.00  0.00     0.139 A 
HETATM   23  N4  UNL     1      23.071   2.982  52.127  1.00  0.00    -0.341 N 
HETATM   24  H4  UNL     1      25.535   1.637  50.485  1.00  0.00     0.162 HD
HETATM   25  H12 UNL     1      23.361   3.982  52.357  1.00  0.00     0.164 HD
ENDROOT
TORSDOF 0
ENDMDL
MODEL 2
REMARK VINA RESULT:      -7.9      3.512      6.425
REMARK  0 active torsions:
REMARK  status: ('A' for Active; 'I' for Inactive)
ROOT
HETATM    1  F1  UNL     1      22.965   4.392  48.503  1.00  0.00    -0.205 F 
HETATM    2  C1  UNL     1      23.814   4.058  49.502  1.00  0.00     0.127 C 
HETATM    3  C2  UNL     1      23.273   4.206  50.702  1.00  0.00     0.016 C 
HETATM    4  C3  UNL     1      24.051   4.088  51.744  1.00  0.00     0.046 C 
HETATM    5  C4  UNL     1      24.825   2.795  51.651  1.00  0.00     0.144 C 
HETATM    6  C5  UNL     1      25.704   2.948  50.484  1.00  0.00     0.034 C 
HETATM    7  C6  UNL     1      25.193   3.577  49.423  1.00  0.00     0.043 C 
HETATM    8  N1  UNL     1      23.800   1.757  51.460  1.00  0.00    -0.367 N 
HETATM    9  C7  UNL     1      22.883   1.845  52.537  1.00  0.00     0.087 C 
HETATM   10  C8  UNL     1      22.926   1.077  53.608  1.00  0.00     0.032 C 
HETATM   11  C9  UNL     1      23.980   0.041  53.744  1.00  0.00    -0.002 A 
HETATM   12 BR1  UNL     1      24.031  -1.073  55.320  1.00  0.00    -0.118 Br
HETATM   13  C10 UNL     1      25.056  -0.694  53.392  1.00  0.00     0.115 A 
HETATM   14  C11 UNL     1      26.158  -1.640  53.331  1.00  0.00     0.006 C 
HETATM   15  C12 UNL     1      26.759  -1.660  52.199  1.00  0.00    -0.028 C 
HETATM   16  C13 UNL     1      26.917  -0.486  51.563  1.00  0.00     0.028 C 
HETATM   17  C14 UNL     1      27.164   0.631  52.538  1.00  0.00     0.028 A 
HETATM   18  C15 UNL     1      28.447   0.335  53.097  1.00  0.00     0.133 A 
HETATM   19  N2  UNL     1      29.254   0.956  54.034  1.00  0.00    -0.253 NA
HETATM   20  C16 UNL     1      28.672   2.093  54.509  1.00  0.00     0.234 A 
HETATM   21  N3  UNL     1      27.466   2.461  54.048  1.00  0.00    -0.224 NA
HETATM   22  C17 UNL     1      26.727   1.825  53.141  1.00  0.00     0.139 A 
HETATM   23  N4  UNL     1      25.484   2.520  52.888  1.00  0.00    -0.341 N 
HETATM   24  H4  UNL     1      23.299   0.980  51.035  1.00  0.00     0.162 HD
HETATM   25  H12 UNL     1      24.962   2.890  53.741  1.00  0.00     0.164 HD
ENDROOT
TORSDOF 0
ENDMDL
MODEL 3
REMARK VINA RESULT:      -7.6      2.505      3.269
REMARK  0 active torsions:
REMARK  status: ('A' for Active; 'I' for Inactive)
ROOT
HETATM    1  F1  UNL     1      20.562  -2.087  54.590  1.00  0.00    -0.205 F 
HETATM    2  C1  UNL     1      20.396  -0.926  53.918  1.00  0.00     0.127 C 
HETATM    3  C2  UNL     1      21.068   0.078  54.461  1.00  0.00     0.016 C 
HETATM    4  C3  UNL     1      20.843   1.282  54.008  1.00  0.00     0.046 C 
HETATM    5  C4  UNL     1      20.975   1.288  52.504  1.00  0.00     0.144 C 
HETATM    6  C5  UNL     1      19.880   0.442  52.012  1.00  0.00     0.034 C 
HETATM    7  C6  UNL     1      19.600  -0.654  52.722  1.00  0.00     0.043 C 
HETATM    8  N1  UNL     1      22.303   0.711  52.241  1.00  0.00    -0.367 N 
HETATM    9  C7  UNL     1      23.262   1.484  52.943  1.00  0.00     0.087 C 
HETATM   10  C8  UNL     1      23.982   2.442  52.393  1.00  0.00     0.032 C 
HETATM   11  C9  UNL     1      23.818   2.772  50.955  1.00  0.00    -0.002 A 
HETATM   12 BR1  UNL     1      24.879   4.179  50.167  1.00  0.00    -0.118 Br
HETATM   13  C10 UNL     1      23.321   2.671  49.704  1.00  0.00     0.115 A 
HETATM   14  C11 UNL     1      23.011   2.835  48.293  1.00  0.00     0.006 C 
HETATM   15  C12 UNL     1      22.238   1.926  47.826  1.00  0.00    -0.028 C 
HETATM   16  C13 UNL     1      21.254   1.481  48.626  1.00  0.00     0.028 C 
HETATM   17  C14 UNL     1      20.700   2.590  49.476  1.00  0.00     0.028 A 
HETATM   18  C15 UNL     1      20.054   3.460  48.543  1.00  0.00     0.133 A 
HETATM   19  N2  UNL     1      19.349   4.645  48.662  1.00  0.00    -0.253 NA
HETATM   20  C16 UNL     1      19.272   5.043  49.963  1.00  0.00     0.234 A 
HETATM   21  N3  UNL     1      19.846   4.295  50.919  1.00  0.00    -0.224 NA
HETATM   22  C17 UNL     1      20.516   3.157  50.751  1.00  0.00     0.139 A 
HETATM   23  N4  UNL     1      20.989   2.628  52.012  1.00  0.00    -0.341 N 
HETATM   24  H4  UNL     1      23.012   0.087  51.865  1.00  0.00     0.162 HD
HETATM   25  H12 UNL     1      21.419   3.329  52.691  1.00  0.00     0.164 HD
ENDROOT
TORSDOF 0
ENDMDL
MODEL 4
REMARK VINA RESULT:      -7.6      2.620      4.083
REMARK  0 active torsions:
REMARK  status: ('A' for Active; 'I' for Inactive)
ROOT
HETATM    1  F1  UNL     1      28.406   0.209  54.934  1.00  0.00    -0.205 F 
HETATM    2  C1  UNL     1      27.681   0.692  53.900  1.00  0.00     0.127 C 
HETATM    3  C2  UNL     1      26.990  -0.249  53.277  1.00  0.00     0.016 C 
HETATM    4  C3  UNL     1      26.397   0.065  52.157  1.00  0.00     0.046 C 
HETATM    5  C4  UNL     1      25.564   1.308  52.359  1.00  0.00     0.144 C 
HETATM    6  C5  UNL     1      26.527   2.382  52.642  1.00  0.00     0.034 C 
HETATM    7  C6  UNL     1      27.574   2.065  53.407  1.00  0.00     0.043 C 
HETATM    8  N1  UNL     1      24.701   0.999  53.509  1.00  0.00    -0.367 N 
HETATM    9  C7  UNL     1      23.976  -0.181  53.206  1.00  0.00     0.087 C 
HETATM   10  C8  UNL     1      22.738  -0.190  52.752  1.00  0.00     0.032 C 
HETATM   11  C9  UNL     1      22.014   1.086  52.525  1.00  0.00    -0.002 A 
HETATM   12 BR1  UNL     1      20.203   1.055  51.856  1.00  0.00    -0.118 Br
HETATM   13  C10 UNL     1      21.824   2.422  52.504  1.00  0.00     0.115 A 
HETATM   14  C11 UNL     1      21.296   3.769  52.353  1.00  0.00     0.006 C 
HETATM   15  C12 UNL     1      22.057   4.678  52.839  1.00  0.00    -0.028 C 
HETATM   16  C13 UNL     1      23.384   4.515  52.696  1.00  0.00     0.028 C 
HETATM   17  C14 UNL     1      23.713   3.868  51.379  1.00  0.00     0.028 A 
HETATM   18  C15 UNL     1      23.352   4.850  50.404  1.00  0.00     0.133 A 
HETATM   19  N2  UNL     1      23.406   4.898  49.023  1.00  0.00    -0.253 NA
HETATM   20  C16 UNL     1      23.917   3.744  48.509  1.00  0.00     0.234 A 
HETATM   21  N3  UNL     1      24.288   2.757  49.342  1.00  0.00    -0.224 NA
HETATM   22  C17 UNL     1      24.216   2.761  50.671  1.00  0.00     0.139 A 
HETATM   23  N4  UNL     1      24.712   1.525  51.234  1.00  0.00    -0.341 N 
HETATM   24  H4  UNL     1      24.267   1.087  54.425  1.00  0.00     0.162 HD
HETATM   25  H12 UNL     1      24.405   0.624  50.751  1.00  0.00     0.164 HD
ENDROOT
TORSDOF 0
ENDMDL
MODEL 5
REMARK VINA RESULT:      -7.6      6.744      9.589
REMARK  0 active torsions:
REMARK  status: ('A' for Active; 'I' for Inactive)
ROOT
HETATM    1  F1  UNL     1      24.939   4.478  50.400  1.00  0.00    -0.205 F 
HETATM    2  C1  UNL     1      25.749   5.084  49.503  1.00  0.00     0.127 C 
HETATM    3  C2  UNL     1      25.253   6.229  49.060  1.00  0.00     0.016 C 
HETATM    4  C3  UNL     1      25.857   6.814  48.061  1.00  0.00     0.046 C 
HETATM    5  C4  UNL     1      27.330   6.940  48.366  1.00  0.00     0.144 C 
HETATM    6  C5  UNL     1      27.838   5.562  48.418  1.00  0.00     0.034 C 
HETATM    7  C6  UNL     1      27.045   4.649  48.984  1.00  0.00     0.043 C 
HETATM    8  N1  UNL     1      27.386   7.618  49.671  1.00  0.00    -0.367 N 
HETATM    9  C7  UNL     1      26.677   8.840  49.559  1.00  0.00     0.087 C 
HETATM   10  C8  UNL     1      27.250  10.009  49.348  1.00  0.00     0.032 C 
HETATM   11  C9  UNL     1      28.725  10.106  49.211  1.00  0.00    -0.002 A 
HETATM   12 BR1  UNL     1      29.548  11.824  48.898  1.00  0.00    -0.118 Br
HETATM   13  C10 UNL     1      30.003   9.672  49.172  1.00  0.00     0.115 A 
HETATM   14  C11 UNL     1      31.448   9.551  49.069  1.00  0.00     0.006 C 
HETATM   15  C12 UNL     1      31.891   8.386  49.364  1.00  0.00    -0.028 C 
HETATM   16  C13 UNL     1      31.154   7.329  48.980  1.00  0.00     0.028 C 
HETATM   17  C14 UNL     1      30.495   7.581  47.652  1.00  0.00     0.028 A 
HETATM   18  C15 UNL     1      31.582   7.634  46.723  1.00  0.00     0.133 A 
HETATM   19  N2  UNL     1      31.669   7.824  45.356  1.00  0.00    -0.253 NA
HETATM   20  C16 UNL     1      30.436   7.996  44.803  1.00  0.00     0.234 A 
HETATM   21  N3  UNL     1      29.348   7.962  45.589  1.00  0.00    -0.224 NA
HETATM   22  C17 UNL     1      29.317   7.775  46.907  1.00  0.00     0.139 A 
HETATM   23  N4  UNL     1      27.963   7.796  47.415  1.00  0.00    -0.341 N 
HETATM   24  H4  UNL     1      27.614   7.785  50.648  1.00  0.00     0.162 HD
HETATM   25  H12 UNL     1      27.324   8.561  47.036  1.00  0.00     0.164 HD
ENDROOT
TORSDOF 0
ENDMDL
MODEL 6
REMARK VINA RESULT:      -7.5      2.874      4.947
REMARK  0 active torsions:
REMARK  status: ('A' for Active; 'I' for Inactive)
ROOT
HETATM    1  F1  UNL     1      18.987  -0.153  50.854  1.00  0.00    -0.205 F 
HETATM    2  C1  UNL     1      19.798   0.907  51.072  1.00  0.00     0.127 C 
HETATM    3  C2  UNL     1      20.231   0.970  52.321  1.00  0.00     0.016 C 
HETATM    4  C3  UNL     1      20.872   2.044  52.695  1.00  0.00     0.046 C 
HETATM    5  C4  UNL     1      21.987   2.331  51.718  1.00  0.00     0.144 C 
HETATM    6  C5  UNL     1      21.320   2.658  50.449  1.00  0.00     0.034 C 
HETATM    7  C6  UNL     1      20.235   1.945  50.139  1.00  0.00     0.043 C 
HETATM    8  N1  UNL     1      22.759   1.081  51.650  1.00  0.00    -0.367 N 
HETATM    9  C7  UNL     1      23.168   0.749  52.966  1.00  0.00     0.087 C 
HETATM   10  C8  UNL     1      24.362   1.020  53.457  1.00  0.00     0.032 C 
HETATM   11  C9  UNL     1      25.375   1.715  52.624  1.00  0.00    -0.002 A 
HETATM   12 BR1  UNL     1      27.116   2.107  53.360  1.00  0.00    -0.118 Br
HETATM   13  C10 UNL     1      25.888   2.309  51.525  1.00  0.00     0.115 A 
HETATM   14  C11 UNL     1      26.728   2.988  50.552  1.00  0.00     0.006 C 
HETATM   15  C12 UNL     1      26.219   3.040  49.378  1.00  0.00    -0.028 C 
HETATM   16  C13 UNL     1      24.891   3.232  49.288  1.00  0.00     0.028 C 
HETATM   17  C14 UNL     1      24.401   4.150  50.374  1.00  0.00     0.028 A 
HETATM   18  C15 UNL     1      24.982   5.417  50.055  1.00  0.00     0.133 A 
HETATM   19  N2  UNL     1      24.929   6.672  50.634  1.00  0.00    -0.253 NA
HETATM   20  C16 UNL     1      24.145   6.668  51.748  1.00  0.00     0.234 A 
HETATM   21  N3  UNL     1      23.550   5.527  52.134  1.00  0.00    -0.224 NA
HETATM   22  C17 UNL     1      23.634   4.339  51.538  1.00  0.00     0.139 A 
HETATM   23  N4  UNL     1      22.855   3.340  52.236  1.00  0.00    -0.341 N 
HETATM   24  H4  UNL     1      23.210   0.260  51.252  1.00  0.00     0.162 HD
HETATM   25  H12 UNL     1      22.926   3.336  53.300  1.00  0.00     0.164 HD
ENDROOT
TORSDOF 0
ENDMDL
MODEL 7
REMARK VINA RESULT:      -7.3      2.429      4.019
REMARK  0 active torsions:
REMARK  status: ('A' for Active; 'I' for Inactive)
ROOT
HETATM    1  F1  UNL     1      24.916  -0.947  55.399  1.00  0.00    -0.205 F 
HETATM    2  C1  UNL     1      24.454  -0.518  54.203  1.00  0.00     0.127 C 
HETATM    3  C2  UNL     1      23.270  -1.028  53.900  1.00  0.00     0.016 C 
HETATM    4  C3  UNL     1      22.807  -0.829  52.696  1.00  0.00     0.046 C 
HETATM    5  C4  UNL     1      22.864   0.644  52.370  1.00  0.00     0.144 C 
HETATM    6  C5  UNL     1      24.294   0.981  52.332  1.00  0.00     0.034 C 
HETATM    7  C6  UNL     1      25.074   0.399  53.246  1.00  0.00     0.043 C 
HETATM    8  N1  UNL     1      22.153   1.301  53.478  1.00  0.00    -0.367 N 
HETATM    9  C7  UNL     1      20.853   0.742  53.555  1.00  0.00     0.087 C 
HETATM   10  C8  UNL     1      19.778   1.297  53.031  1.00  0.00     0.032 C 
HETATM   11  C9  UNL     1      19.880   2.587  52.304  1.00  0.00    -0.002 A 
HETATM   12 BR1  UNL     1      18.298   3.385  51.539  1.00  0.00    -0.118 Br
HETATM   13  C10 UNL     1      20.480   3.683  51.792  1.00  0.00     0.115 A 
HETATM   14  C11 UNL     1      20.793   4.938  51.126  1.00  0.00     0.006 C 
HETATM   15  C12 UNL     1      21.995   5.337  51.319  1.00  0.00    -0.028 C 
HETATM   16  C13 UNL     1      22.959   4.401  51.356  1.00  0.00     0.028 C 
HETATM   17  C14 UNL     1      22.671   3.286  50.389  1.00  0.00     0.028 A 
HETATM   18  C15 UNL     1      22.795   3.895  49.102  1.00  0.00     0.133 A 
HETATM   19  N2  UNL     1      22.667   3.434  47.803  1.00  0.00    -0.253 NA
HETATM   20  C16 UNL     1      22.355   2.107  47.781  1.00  0.00     0.234 A 
HETATM   21  N3  UNL     1      22.217   1.441  48.938  1.00  0.00    -0.224 NA
HETATM   22  C17 UNL     1      22.351   1.934  50.168  1.00  0.00     0.139 A 
HETATM   23  N4  UNL     1      22.134   0.918  51.174  1.00  0.00    -0.341 N 
HETATM   24  H4  UNL     1      21.982   1.926  54.262  1.00  0.00     0.162 HD
HETATM   25  H12 UNL     1      21.306   0.263  51.019  1.00  0.00     0.164 HD
ENDROOT
TORSDOF 0
ENDMDL
MODEL 8
REMARK VINA RESULT:      -7.1      3.373      5.062
REMARK  0 active torsions:
REMARK  status: ('A' for Active; 'I' for Inactive)
ROOT
HETATM    1  F1  UNL     1      28.088   7.523  47.367  1.00  0.00    -0.205 F 
HETATM    2  C1  UNL     1      27.401   6.826  48.300  1.00  0.00     0.127 C 
HETATM    3  C2  UNL     1      26.615   7.596  49.037  1.00  0.00     0.016 C 
HETATM    4  C3  UNL     1      26.042   7.064  50.083  1.00  0.00     0.046 C 
HETATM    5  C4  UNL     1      25.334   5.793  49.678  1.00  0.00     0.144 C 
HETATM    6  C5  UNL     1      26.399   4.868  49.265  1.00  0.00     0.034 C 
HETATM    7  C6  UNL     1      27.420   5.391  48.583  1.00  0.00     0.043 C 
HETATM    8  N1  UNL     1      24.459   6.188  48.564  1.00  0.00    -0.367 N 
HETATM    9  C7  UNL     1      23.621   7.237  49.018  1.00  0.00     0.087 C 
HETATM   10  C8  UNL     1      22.383   7.064  49.436  1.00  0.00     0.032 C 
HETATM   11  C9  UNL     1      21.781   5.706  49.454  1.00  0.00    -0.002 A 
HETATM   12 BR1  UNL     1      19.968   5.469  50.072  1.00  0.00    -0.118 Br
HETATM   13  C10 UNL     1      21.720   4.370  49.273  1.00  0.00     0.115 A 
HETATM   14  C11 UNL     1      21.322   2.973  49.210  1.00  0.00     0.006 C 
HETATM   15  C12 UNL     1      22.172   2.221  48.616  1.00  0.00    -0.028 C 
HETATM   16  C13 UNL     1      23.475   2.484  48.816  1.00  0.00     0.028 C 
HETATM   17  C14 UNL     1      23.725   2.955  50.222  1.00  0.00     0.028 A 
HETATM   18  C15 UNL     1      23.449   1.809  51.032  1.00  0.00     0.133 A 
HETATM   19  N2  UNL     1      23.490   1.562  52.393  1.00  0.00    -0.253 NA
HETATM   20  C16 UNL     1      23.882   2.669  53.083  1.00  0.00     0.234 A 
HETATM   21  N3  UNL     1      24.167   3.798  52.415  1.00  0.00    -0.224 NA
HETATM   22  C17 UNL     1      24.112   3.986  51.098  1.00  0.00     0.139 A 
HETATM   23  N4  UNL     1      24.494   5.333  50.737  1.00  0.00    -0.341 N 
HETATM   24  H4  UNL     1      24.047   6.198  47.634  1.00  0.00     0.162 HD
HETATM   25  H12 UNL     1      24.096   6.119  51.339  1.00  0.00     0.164 HD
ENDROOT
TORSDOF 0
ENDMDL
MODEL 9
REMARK VINA RESULT:      -7.0      2.943      5.212
REMARK  0 active torsions:
REMARK  status: ('A' for Active; 'I' for Inactive)
ROOT
HETATM    1  F1  UNL     1      22.404   1.158  53.591  1.00  0.00    -0.205 F 
HETATM    2  C1  UNL     1      23.190   1.859  52.743  1.00  0.00     0.127 C 
HETATM    3  C2  UNL     1      23.088   1.441  51.490  1.00  0.00     0.016 C 
HETATM    4  C3  UNL     1      23.929   1.920  50.614  1.00  0.00     0.046 C 
HETATM    5  C4  UNL     1      23.929   3.428  50.686  1.00  0.00     0.144 C 
HETATM    6  C5  UNL     1      24.470   3.756  52.012  1.00  0.00     0.034 C 
HETATM    7  C6  UNL     1      24.098   2.971  53.026  1.00  0.00     0.043 C 
HETATM    8  N1  UNL     1      22.516   3.811  50.537  1.00  0.00    -0.367 N 
HETATM    9  C7  UNL     1      22.039   3.257  49.323  1.00  0.00     0.087 C 
HETATM   10  C8  UNL     1      21.952   3.926  48.190  1.00  0.00     0.032 C 
HETATM   11  C9  UNL     1      22.366   5.351  48.128  1.00  0.00    -0.002 A 
HETATM   12 BR1  UNL     1      22.235   6.315  46.461  1.00  0.00    -0.118 Br
HETATM   13  C10 UNL     1      22.832   6.532  48.585  1.00  0.00     0.115 A 
HETATM   14  C11 UNL     1      23.284   7.906  48.736  1.00  0.00     0.006 C 
HETATM   15  C12 UNL     1      23.515   8.242  49.950  1.00  0.00    -0.028 C 
HETATM   16  C13 UNL     1      24.071   7.317  50.752  1.00  0.00     0.028 C 
HETATM   17  C14 UNL     1      25.051   6.462  49.997  1.00  0.00     0.028 A 
HETATM   18  C15 UNL     1      26.117   7.356  49.666  1.00  0.00     0.133 A 
HETATM   19  N2  UNL     1      27.318   7.213  48.994  1.00  0.00    -0.253 NA
HETATM   20  C16 UNL     1      27.493   5.931  48.566  1.00  0.00     0.234 A 
HETATM   21  N3  UNL     1      26.549   5.012  48.828  1.00  0.00    -0.224 NA
HETATM   22  C17 UNL     1      25.406   5.202  49.482  1.00  0.00     0.139 A 
HETATM   23  N4  UNL     1      24.639   3.979  49.577  1.00  0.00    -0.341 N 
HETATM   24  H4  UNL     1      21.617   4.236  50.751  1.00  0.00     0.162 HD
HETATM   25  H12 UNL     1      24.579   3.384  48.693  1.00  0.00     0.164 HD
ENDROOT
TORSDOF 0
ENDMDL
