MODEL 1
REMARK VINA RESULT:      -8.8      0.000      0.000
REMARK  3 active torsions:
REMARK  status: ('A' for Active; 'I' for Inactive)
REMARK    1  A    between atoms: C2_2  and  N1_3 
REMARK       I    between atoms: N1_3  and  C3_4 
REMARK    2  A    between atoms: C3_4  and  C4_6 
REMARK    3  A    between atoms: C9_12  and  O2_13 
ROOT
HETATM    1  C4  UNL     1      19.818   4.976  49.731  1.00  0.00     0.258 C 
HETATM    2  N2  UNL     1      19.040   4.355  50.756  1.00  0.00    -0.402 NA
HETATM    3  C5  UNL     1      19.260   3.471  51.583  1.00  0.00     0.276 C 
HETATM    4  C6  UNL     1      19.944   2.459  52.321  1.00  0.00     0.019 C 
HETATM    5  C7  UNL     1      20.418   1.526  53.082  1.00  0.00     0.004 C 
HETATM    6  C8  UNL     1      21.783   1.230  52.685  1.00  0.00     0.032 C 
HETATM    7  C9  UNL     1      22.580   0.329  53.270  1.00  0.00     0.047 C 
HETATM    8  C11 UNL     1      23.991   0.059  52.811  1.00  0.00     0.089 C 
HETATM    9  C12 UNL     1      24.996   0.506  53.776  1.00  0.00     0.092 C 
HETATM   10  C13 UNL     1      25.956  -0.617  54.117  1.00  0.00     0.045 C 
HETATM   11  C14 UNL     1      26.964  -0.747  53.008  1.00  0.00     0.118 C 
HETATM   12  N3  UNL     1      28.159  -0.007  53.200  1.00  0.00    -0.415 N 
HETATM   13  C15 UNL     1      28.993  -0.384  54.281  1.00  0.00     0.143 C 
HETATM   14  C16 UNL     1      28.075   1.391  52.931  1.00  0.00     0.136 C 
HETATM   15  C17 UNL     1      27.114   2.086  53.833  1.00  0.00     0.143 C 
HETATM   16  N4  UNL     1      25.774   1.679  53.450  1.00  0.00    -0.374 N 
HETATM   17  C18 UNL     1      25.035   2.531  52.609  1.00  0.00     0.030 A 
HETATM   18  C19 UNL     1      24.201   3.469  53.202  1.00  0.00     0.031 A 
HETATM   19  C20 UNL     1      23.416   4.308  52.439  1.00  0.00     0.032 A 
HETATM   20  C21 UNL     1      23.433   4.247  51.063  1.00  0.00     0.034 A 
HETATM   21  C22 UNL     1      24.275   3.304  50.449  1.00  0.00     0.032 A 
HETATM   22  C23 UNL     1      25.060   2.466  51.226  1.00  0.00     0.031 A 
HETATM   23  N5  UNL     1      22.697   4.967  50.080  1.00  0.00    -0.325 N 
HETATM   24  C24 UNL     1      21.259   4.882  50.020  1.00  0.00     0.253 C 
HETATM   25  O3  UNL     1      21.599   4.158  50.980  1.00  0.00    -0.270 OA
HETATM   26  H31 UNL     1      23.202   5.570  49.388  1.00  0.00     0.169 HD
ENDROOT
BRANCH   1  27
HETATM   27  C3  UNL     1      19.490   4.467  48.369  1.00  0.00     0.252 C 
HETATM   28  N1  UNL     1      20.462   4.100  47.415  1.00  0.00    -0.336 N 
HETATM   29  H4  UNL     1      21.472   4.175  47.634  1.00  0.00     0.168 HD
HETATM   30  O1  UNL     1      18.303   4.317  47.953  1.00  0.00    -0.270 OA
BRANCH  28  31
HETATM   31  C2  UNL     1      20.025   3.627  46.152  1.00  0.00     0.081 C 
HETATM   32  C1  UNL     1      20.625   3.983  45.050  1.00  0.00     0.030 C 
ENDBRANCH  28  31
ENDBRANCH   1  27
BRANCH   7  33
HETATM   33  O2  UNL     1      21.894  -0.269  54.311  1.00  0.00    -0.360 OA
HETATM   34  C10 UNL     1      21.914  -1.637  54.574  1.00  0.00     0.209 C 
ENDBRANCH   7  33
TORSDOF 3
ENDMDL
MODEL 2
REMARK VINA RESULT:      -8.7      3.428      6.300
REMARK  3 active torsions:
REMARK  status: ('A' for Active; 'I' for Inactive)
REMARK    1  A    between atoms: C2_2  and  N1_3 
REMARK       I    between atoms: N1_3  and  C3_4 
REMARK    2  A    between atoms: C3_4  and  C4_6 
REMARK    3  A    between atoms: C9_12  and  O2_13 
ROOT
HETATM    1  C4  UNL     1      25.925   6.305  48.379  1.00  0.00     0.258 C 
HETATM    2  N2  UNL     1      26.945   5.323  48.572  1.00  0.00    -0.402 NA
HETATM    3  C5  UNL     1      27.014   4.273  49.209  1.00  0.00     0.276 C 
HETATM    4  C6  UNL     1      26.643   3.185  50.055  1.00  0.00     0.019 C 
HETATM    5  C7  UNL     1      26.465   2.135  50.791  1.00  0.00     0.004 C 
HETATM    6  C8  UNL     1      25.134   2.176  51.371  1.00  0.00     0.032 C 
HETATM    7  C9  UNL     1      24.611   1.241  52.170  1.00  0.00     0.047 C 
HETATM    8  C11 UNL     1      23.221   1.338  52.749  1.00  0.00     0.089 C 
HETATM    9  C12 UNL     1      22.304   0.344  52.190  1.00  0.00     0.092 C 
HETATM   10  C13 UNL     1      21.627  -0.448  53.291  1.00  0.00     0.045 C 
HETATM   11  C14 UNL     1      20.509   0.379  53.866  1.00  0.00     0.118 C 
HETATM   12  N3  UNL     1      19.239   0.157  53.273  1.00  0.00    -0.415 N 
HETATM   13  C15 UNL     1      18.655  -1.123  53.439  1.00  0.00     0.143 C 
HETATM   14  C16 UNL     1      19.025   0.784  52.010  1.00  0.00     0.136 C 
HETATM   15  C17 UNL     1      19.963   0.289  50.964  1.00  0.00     0.143 C 
HETATM   16  N4  UNL     1      21.284   0.804  51.275  1.00  0.00    -0.374 N 
HETATM   17  C18 UNL     1      21.723   1.959  50.602  1.00  0.00     0.030 A 
HETATM   18  C19 UNL     1      22.449   1.795  49.430  1.00  0.00     0.031 A 
HETATM   19  C20 UNL     1      22.945   2.881  48.741  1.00  0.00     0.032 A 
HETATM   20  C21 UNL     1      22.739   4.168  49.190  1.00  0.00     0.034 A 
HETATM   21  C22 UNL     1      22.004   4.349  50.374  1.00  0.00     0.032 A 
HETATM   22  C23 UNL     1      21.508   3.249  51.058  1.00  0.00     0.031 A 
HETATM   23  N5  UNL     1      23.179   5.423  48.683  1.00  0.00    -0.325 N 
HETATM   24  C24 UNL     1      24.583   5.732  48.585  1.00  0.00     0.253 C 
HETATM   25  O3  UNL     1      24.526   4.573  49.047  1.00  0.00    -0.270 OA
HETATM   26  H31 UNL     1      22.476   6.136  48.376  1.00  0.00     0.169 HD
ENDROOT
BRANCH   1  27
HETATM   27  C3  UNL     1      26.137   7.529  49.202  1.00  0.00     0.252 C 
HETATM   28  N1  UNL     1      27.410   8.031  49.546  1.00  0.00    -0.336 N 
HETATM   29  H4  UNL     1      28.271   7.550  49.228  1.00  0.00     0.168 HD
HETATM   30  O1  UNL     1      25.186   8.227  49.663  1.00  0.00    -0.270 OA
BRANCH  28  31
HETATM   31  C2  UNL     1      27.483   9.207  50.334  1.00  0.00     0.081 C 
HETATM   32  C1  UNL     1      28.073  10.284  49.892  1.00  0.00     0.030 C 
ENDBRANCH  28  31
ENDBRANCH   1  27
BRANCH   7  33
HETATM   33  O2  UNL     1      25.539   0.232  52.350  1.00  0.00    -0.360 OA
HETATM   34  C10 UNL     1      25.562  -0.619  53.453  1.00  0.00     0.209 C 
ENDBRANCH   7  33
TORSDOF 3
ENDMDL
MODEL 3
REMARK VINA RESULT:      -8.3      2.568      4.924
REMARK  3 active torsions:
REMARK  status: ('A' for Active; 'I' for Inactive)
REMARK    1  A    between atoms: C2_2  and  N1_3 
REMARK       I    between atoms: N1_3  and  C3_4 
REMARK    2  A    between atoms: C3_4  and  C4_6 
REMARK    3  A    between atoms: C9_12  and  O2_13 
ROOT
HETATM    1  C4  UNL     1      16.917   2.512  50.943  1.00  0.00     0.258 C 
HETATM    2  N2  UNL     1      17.504   3.276  49.888  1.00  0.00    -0.402 NA
HETATM    3  C5  UNL     1      18.648   3.654  49.637  1.00  0.00     0.276 C 
HETATM    4  C6  UNL     1      20.054   3.857  49.757  1.00  0.00     0.019 C 
HETATM    5  C7  UNL     1      21.320   4.127  49.716  1.00  0.00     0.004 C 
HETATM    6  C8  UNL     1      21.967   3.574  50.894  1.00  0.00     0.032 C 
HETATM    7  C9  UNL     1      23.273   3.652  51.165  1.00  0.00     0.047 C 
HETATM    8  C11 UNL     1      23.891   3.062  52.409  1.00  0.00     0.089 C 
HETATM    9  C12 UNL     1      24.754   1.915  52.124  1.00  0.00     0.092 C 
HETATM   10  C13 UNL     1      26.126   2.105  52.740  1.00  0.00     0.045 C 
HETATM   11  C14 UNL     1      26.048   1.783  54.207  1.00  0.00     0.118 C 
HETATM   12  N3  UNL     1      26.363   0.440  54.540  1.00  0.00    -0.415 N 
HETATM   13  C15 UNL     1      27.689   0.002  54.304  1.00  0.00     0.143 C 
HETATM   14  C16 UNL     1      25.334  -0.518  54.297  1.00  0.00     0.136 C 
HETATM   15  C17 UNL     1      24.978  -0.615  52.854  1.00  0.00     0.143 C 
HETATM   16  N4  UNL     1      24.276   0.601  52.489  1.00  0.00    -0.374 N 
HETATM   17  C18 UNL     1      22.869   0.573  52.459  1.00  0.00     0.030 A 
HETATM   18  C19 UNL     1      22.247   0.271  51.256  1.00  0.00     0.031 A 
HETATM   19  C20 UNL     1      20.873   0.266  51.145  1.00  0.00     0.032 A 
HETATM   20  C21 UNL     1      20.068   0.561  52.224  1.00  0.00     0.034 A 
HETATM   21  C22 UNL     1      20.684   0.866  53.450  1.00  0.00     0.032 A 
HETATM   22  C23 UNL     1      22.067   0.866  53.550  1.00  0.00     0.031 A 
HETATM   23  N5  UNL     1      18.653   0.658  52.344  1.00  0.00    -0.325 N 
HETATM   24  C24 UNL     1      17.909   1.630  51.583  1.00  0.00     0.253 C 
HETATM   25  O3  UNL     1      19.104   1.787  51.253  1.00  0.00    -0.270 OA
HETATM   26  H31 UNL     1      18.139   0.015  52.992  1.00  0.00     0.169 HD
ENDROOT
BRANCH   1  27
HETATM   27  C3  UNL     1      16.203   3.358  51.940  1.00  0.00     0.252 C 
HETATM   28  N1  UNL     1      14.938   3.037  52.478  1.00  0.00    -0.336 N 
HETATM   29  H4  UNL     1      14.446   2.173  52.189  1.00  0.00     0.168 HD
HETATM   30  O1  UNL     1      16.675   4.443  52.393  1.00  0.00    -0.270 OA
BRANCH  28  31
HETATM   31  C2  UNL     1      14.361   3.922  53.423  1.00  0.00     0.081 C 
HETATM   32  C1  UNL     1      13.138   4.357  53.286  1.00  0.00     0.030 C 
ENDBRANCH  28  31
ENDBRANCH   1  27
BRANCH   7  33
HETATM   33  O2  UNL     1      23.905   4.338  50.145  1.00  0.00    -0.360 OA
HETATM   34  C10 UNL     1      24.762   5.418  50.344  1.00  0.00     0.209 C 
ENDBRANCH   7  33
TORSDOF 3
ENDMDL
MODEL 4
REMARK VINA RESULT:      -8.0      5.172      8.110
REMARK  3 active torsions:
REMARK  status: ('A' for Active; 'I' for Inactive)
REMARK    1  A    between atoms: C2_2  and  N1_3 
REMARK       I    between atoms: N1_3  and  C3_4 
REMARK    2  A    between atoms: C3_4  and  C4_6 
REMARK    3  A    between atoms: C9_12  and  O2_13 
ROOT
HETATM    1  C4  UNL     1      27.282   9.482  47.255  1.00  0.00     0.258 C 
HETATM    2  N2  UNL     1      28.119   8.329  47.149  1.00  0.00    -0.402 NA
HETATM    3  C5  UNL     1      28.058   7.181  47.589  1.00  0.00     0.276 C 
HETATM    4  C6  UNL     1      27.580   6.030  48.283  1.00  0.00     0.019 C 
HETATM    5  C7  UNL     1      27.287   4.905  48.851  1.00  0.00     0.004 C 
HETATM    6  C8  UNL     1      26.049   5.052  49.597  1.00  0.00     0.032 C 
HETATM    7  C9  UNL     1      25.446   4.082  50.291  1.00  0.00     0.047 C 
HETATM    8  C11 UNL     1      24.160   4.294  51.053  1.00  0.00     0.089 C 
HETATM    9  C12 UNL     1      23.027   3.584  50.460  1.00  0.00     0.092 C 
HETATM   10  C13 UNL     1      22.329   2.721  51.493  1.00  0.00     0.045 C 
HETATM   11  C14 UNL     1      21.442   3.596  52.336  1.00  0.00     0.118 C 
HETATM   12  N3  UNL     1      20.101   3.698  51.884  1.00  0.00    -0.415 N 
HETATM   13  C15 UNL     1      19.313   2.521  51.910  1.00  0.00     0.143 C 
HETATM   14  C16 UNL     1      19.882   4.575  50.781  1.00  0.00     0.136 C 
HETATM   15  C17 UNL     1      20.607   4.138  49.555  1.00  0.00     0.143 C 
HETATM   16  N4  UNL     1      22.023   4.365  49.774  1.00  0.00    -0.374 N 
HETATM   17  C18 UNL     1      22.597   5.538  49.250  1.00  0.00     0.030 A 
HETATM   18  C19 UNL     1      23.162   5.479  47.984  1.00  0.00     0.031 A 
HETATM   19  C20 UNL     1      23.778   6.579  47.426  1.00  0.00     0.032 A 
HETATM   20  C21 UNL     1      23.855   7.776  48.105  1.00  0.00     0.034 A 
HETATM   21  C22 UNL     1      23.285   7.850  49.388  1.00  0.00     0.032 A 
HETATM   22  C23 UNL     1      22.667   6.738  49.938  1.00  0.00     0.031 A 
HETATM   23  N5  UNL     1      24.464   9.015  47.761  1.00  0.00    -0.325 N 
HETATM   24  C24 UNL     1      25.885   9.106  47.534  1.00  0.00     0.253 C 
HETATM   25  O3  UNL     1      25.663   7.906  47.801  1.00  0.00    -0.270 OA
HETATM   26  H31 UNL     1      23.877   9.877  47.670  1.00  0.00     0.169 HD
ENDROOT
BRANCH   1  27
HETATM   27  C3  UNL     1      27.794  10.480  48.235  1.00  0.00     0.252 C 
HETATM   28  N1  UNL     1      28.757  11.463  47.923  1.00  0.00    -0.336 N 
HETATM   29  H4  UNL     1      29.155  11.527  46.968  1.00  0.00     0.168 HD
HETATM   30  O1  UNL     1      27.403  10.532  49.439  1.00  0.00    -0.270 OA
BRANCH  28  31
HETATM   31  C2  UNL     1      29.164  12.360  48.942  1.00  0.00     0.081 C 
HETATM   32  C1  UNL     1      30.420  12.664  49.117  1.00  0.00     0.030 C 
ENDBRANCH  28  31
ENDBRANCH   1  27
BRANCH   7  33
HETATM   33  O2  UNL     1      26.187   2.920  50.180  1.00  0.00    -0.360 OA
HETATM   34  C10 UNL     1      26.655   2.187  51.268  1.00  0.00     0.209 C 
ENDBRANCH   7  33
TORSDOF 3
ENDMDL
MODEL 5
REMARK VINA RESULT:      -7.9      2.129      8.390
REMARK  3 active torsions:
REMARK  status: ('A' for Active; 'I' for Inactive)
REMARK    1  A    between atoms: C2_2  and  N1_3 
REMARK       I    between atoms: N1_3  and  C3_4 
REMARK    2  A    between atoms: C3_4  and  C4_6 
REMARK    3  A    between atoms: C9_12  and  O2_13 
ROOT
HETATM    1  C4  UNL     1      25.126   0.253  53.863  1.00  0.00     0.258 C 
HETATM    2  N2  UNL     1      25.459   1.640  53.950  1.00  0.00    -0.402 NA
HETATM    3  C5  UNL     1      25.044   2.658  53.396  1.00  0.00     0.276 C 
HETATM    4  C6  UNL     1      24.281   3.509  52.543  1.00  0.00     0.019 C 
HETATM    5  C7  UNL     1      23.680   4.413  51.838  1.00  0.00     0.004 C 
HETATM    6  C8  UNL     1      22.701   3.775  50.974  1.00  0.00     0.032 C 
HETATM    7  C9  UNL     1      21.889   4.412  50.125  1.00  0.00     0.047 C 
HETATM    8  C11 UNL     1      20.893   3.696  49.247  1.00  0.00     0.089 C 
HETATM    9  C12 UNL     1      19.506   3.955  49.635  1.00  0.00     0.092 C 
HETATM   10  C13 UNL     1      18.694   4.441  48.450  1.00  0.00     0.045 C 
HETATM   11  C14 UNL     1      18.319   3.257  47.602  1.00  0.00     0.118 C 
HETATM   12  N3  UNL     1      17.059   2.680  47.907  1.00  0.00    -0.415 N 
HETATM   13  C15 UNL     1      15.907   3.471  47.677  1.00  0.00     0.143 C 
HETATM   14  C16 UNL     1      17.023   1.839  49.058  1.00  0.00     0.136 C 
HETATM   15  C17 UNL     1      17.355   2.575  50.309  1.00  0.00     0.143 C 
HETATM   16  N4  UNL     1      18.772   2.888  50.276  1.00  0.00    -0.374 N 
HETATM   17  C18 UNL     1      19.656   2.043  50.973  1.00  0.00     0.030 A 
HETATM   18  C19 UNL     1      19.974   2.371  52.284  1.00  0.00     0.031 A 
HETATM   19  C20 UNL     1      20.865   1.612  53.012  1.00  0.00     0.032 A 
HETATM   20  C21 UNL     1      21.471   0.501  52.466  1.00  0.00     0.034 A 
HETATM   21  C22 UNL     1      21.156   0.156  51.141  1.00  0.00     0.032 A 
HETATM   22  C23 UNL     1      20.258   0.926  50.418  1.00  0.00     0.031 A 
HETATM   23  N5  UNL     1      22.437  -0.400  52.997  1.00  0.00    -0.325 N 
HETATM   24  C24 UNL     1      23.744   0.062  53.391  1.00  0.00     0.253 C 
HETATM   25  O3  UNL     1      23.138   1.076  52.985  1.00  0.00    -0.270 OA
HETATM   26  H31 UNL     1      22.199  -1.414  53.105  1.00  0.00     0.169 HD
ENDROOT
BRANCH   1  27
HETATM   27  C3  UNL     1      26.103  -0.525  53.049  1.00  0.00     0.252 C 
HETATM   28  N1  UNL     1      26.762  -1.684  53.511  1.00  0.00    -0.336 N 
HETATM   29  H4  UNL     1      26.584  -2.046  54.466  1.00  0.00     0.168 HD
HETATM   30  O1  UNL     1      26.423  -0.211  51.864  1.00  0.00    -0.270 OA
BRANCH  28  31
HETATM   31  C2  UNL     1      27.668  -2.339  52.641  1.00  0.00     0.081 C 
HETATM   32  C1  UNL     1      28.884  -2.626  53.018  1.00  0.00     0.030 C 
ENDBRANCH  28  31
ENDBRANCH   1  27
BRANCH   7  33
HETATM   33  O2  UNL     1      22.130   5.771  50.206  1.00  0.00    -0.360 OA
HETATM   34  C10 UNL     1      22.156   6.626  49.106  1.00  0.00     0.209 C 
ENDBRANCH   7  33
TORSDOF 3
ENDMDL
MODEL 6
REMARK VINA RESULT:      -7.9      3.856      6.852
REMARK  3 active torsions:
REMARK  status: ('A' for Active; 'I' for Inactive)
REMARK    1  A    between atoms: C2_2  and  N1_3 
REMARK       I    between atoms: N1_3  and  C3_4 
REMARK    2  A    between atoms: C3_4  and  C4_6 
REMARK    3  A    between atoms: C9_12  and  O2_13 
ROOT
HETATM    1  C4  UNL     1      25.856   8.560  49.416  1.00  0.00     0.258 C 
HETATM    2  N2  UNL     1      25.107   8.598  48.200  1.00  0.00    -0.402 NA
HETATM    3  C5  UNL     1      24.297   7.840  47.668  1.00  0.00     0.276 C 
HETATM    4  C6  UNL     1      23.455   6.710  47.449  1.00  0.00     0.019 C 
HETATM    5  C7  UNL     1      22.642   5.763  47.105  1.00  0.00     0.004 C 
HETATM    6  C8  UNL     1      22.676   4.713  48.108  1.00  0.00     0.032 C 
HETATM    7  C9  UNL     1      21.946   3.593  48.079  1.00  0.00     0.047 C 
HETATM    8  C11 UNL     1      22.025   2.532  49.148  1.00  0.00     0.089 C 
HETATM    9  C12 UNL     1      20.806   2.447  49.953  1.00  0.00     0.092 C 
HETATM   10  C13 UNL     1      20.278   1.026  49.986  1.00  0.00     0.045 C 
HETATM   11  C14 UNL     1      21.084   0.232  50.978  1.00  0.00     0.118 C 
HETATM   12  N3  UNL     1      20.545   0.195  52.290  1.00  0.00    -0.415 N 
HETATM   13  C15 UNL     1      19.301  -0.459  52.466  1.00  0.00     0.143 C 
HETATM   14  C16 UNL     1      20.757   1.362  53.083  1.00  0.00     0.136 C 
HETATM   15  C17 UNL     1      20.110   2.570  52.499  1.00  0.00     0.143 C 
HETATM   16  N4  UNL     1      20.855   2.940  51.311  1.00  0.00    -0.374 N 
HETATM   17  C18 UNL     1      21.819   3.960  51.420  1.00  0.00     0.030 A 
HETATM   18  C19 UNL     1      21.424   5.262  51.150  1.00  0.00     0.031 A 
HETATM   19  C20 UNL     1      22.325   6.305  51.198  1.00  0.00     0.032 A 
HETATM   20  C21 UNL     1      23.649   6.091  51.515  1.00  0.00     0.034 A 
HETATM   21  C22 UNL     1      24.062   4.777  51.794  1.00  0.00     0.032 A 
HETATM   22  C23 UNL     1      23.147   3.737  51.744  1.00  0.00     0.031 A 
HETATM   23  N5  UNL     1      24.755   6.984  51.587  1.00  0.00    -0.325 N 
HETATM   24  C24 UNL     1      25.200   7.710  50.424  1.00  0.00     0.253 C 
HETATM   25  O3  UNL     1      24.221   7.033  50.044  1.00  0.00    -0.270 OA
HETATM   26  H31 UNL     1      25.256   7.120  52.497  1.00  0.00     0.169 HD
ENDROOT
BRANCH   1  27
HETATM   27  C3  UNL     1      27.280   8.172  49.205  1.00  0.00     0.252 C 
HETATM   28  N1  UNL     1      27.686   6.901  48.745  1.00  0.00    -0.336 N 
HETATM   29  H4  UNL     1      26.985   6.169  48.531  1.00  0.00     0.168 HD
HETATM   30  O1  UNL     1      28.251   8.956  49.421  1.00  0.00    -0.270 OA
BRANCH  28  31
HETATM   31  C2  UNL     1      29.072   6.652  48.582  1.00  0.00     0.081 C 
HETATM   32  C1  UNL     1      29.512   5.482  48.207  1.00  0.00     0.030 C 
ENDBRANCH  28  31
ENDBRANCH   1  27
BRANCH   7  33
HETATM   33  O2  UNL     1      21.156   3.601  46.944  1.00  0.00    -0.360 OA
HETATM   34  C10 UNL     1      19.772   3.440  46.956  1.00  0.00     0.209 C 
ENDBRANCH   7  33
TORSDOF 3
ENDMDL
MODEL 7
REMARK VINA RESULT:      -7.8      5.957      8.202
REMARK  3 active torsions:
REMARK  status: ('A' for Active; 'I' for Inactive)
REMARK    1  A    between atoms: C2_2  and  N1_3 
REMARK       I    between atoms: N1_3  and  C3_4 
REMARK    2  A    between atoms: C3_4  and  C4_6 
REMARK    3  A    between atoms: C9_12  and  O2_13 
ROOT
HETATM    1  C4  UNL     1      22.369   4.787  49.737  1.00  0.00     0.258 C 
HETATM    2  N2  UNL     1      23.373   3.831  50.083  1.00  0.00    -0.402 NA
HETATM    3  C5  UNL     1      24.592   3.770  49.919  1.00  0.00     0.276 C 
HETATM    4  C6  UNL     1      25.914   4.123  49.519  1.00  0.00     0.019 C 
HETATM    5  C7  UNL     1      27.165   4.294  49.231  1.00  0.00     0.004 C 
HETATM    6  C8  UNL     1      27.322   5.541  48.502  1.00  0.00     0.032 C 
HETATM    7  C9  UNL     1      28.483   6.038  48.064  1.00  0.00     0.047 C 
HETATM    8  C11 UNL     1      28.587   7.338  47.305  1.00  0.00     0.089 C 
HETATM    9  C12 UNL     1      29.255   8.390  48.072  1.00  0.00     0.092 C 
HETATM   10  C13 UNL     1      30.400   8.992  47.282  1.00  0.00     0.045 C 
HETATM   11  C14 UNL     1      29.839   9.967  46.283  1.00  0.00     0.118 C 
HETATM   12  N3  UNL     1      29.776  11.311  46.732  1.00  0.00    -0.415 N 
HETATM   13  C15 UNL     1      31.002  11.969  46.996  1.00  0.00     0.143 C 
HETATM   14  C16 UNL     1      28.695  11.622  47.610  1.00  0.00     0.136 C 
HETATM   15  C17 UNL     1      28.761  10.855  48.885  1.00  0.00     0.143 C 
HETATM   16  N4  UNL     1      28.445   9.471  48.586  1.00  0.00    -0.374 N 
HETATM   17  C18 UNL     1      27.130   9.025  48.812  1.00  0.00     0.030 A 
HETATM   18  C19 UNL     1      26.837   8.457  50.045  1.00  0.00     0.031 A 
HETATM   19  C20 UNL     1      25.580   7.962  50.320  1.00  0.00     0.032 A 
HETATM   20  C21 UNL     1      24.571   8.012  49.383  1.00  0.00     0.034 A 
HETATM   21  C22 UNL     1      24.853   8.587  48.132  1.00  0.00     0.032 A 
HETATM   22  C23 UNL     1      26.120   9.083  47.867  1.00  0.00     0.031 A 
HETATM   23  N5  UNL     1      23.229   7.538  49.419  1.00  0.00    -0.325 N 
HETATM   24  C24 UNL     1      22.942   6.135  49.585  1.00  0.00     0.253 C 
HETATM   25  O3  UNL     1      24.187   6.228  49.605  1.00  0.00    -0.270 OA
HETATM   26  H31 UNL     1      22.435   8.215  49.326  1.00  0.00     0.169 HD
ENDROOT
BRANCH   1  27
HETATM   27  C3  UNL     1      21.576   4.384  48.541  1.00  0.00     0.252 C 
HETATM   28  N1  UNL     1      22.151   4.003  47.310  1.00  0.00    -0.336 N 
HETATM   29  H4  UNL     1      23.180   3.991  47.190  1.00  0.00     0.168 HD
HETATM   30  O1  UNL     1      20.309   4.346  48.531  1.00  0.00    -0.270 OA
BRANCH  28  31
HETATM   31  C2  UNL     1      21.289   3.638  46.246  1.00  0.00     0.081 C 
HETATM   32  C1  UNL     1      21.519   4.028  45.022  1.00  0.00     0.030 C 
ENDBRANCH  28  31
ENDBRANCH   1  27
BRANCH   7  33
HETATM   33  O2  UNL     1      29.505   5.176  48.420  1.00  0.00    -0.360 OA
HETATM   34  C10 UNL     1      30.737   5.118  47.772  1.00  0.00     0.209 C 
ENDBRANCH   7  33
TORSDOF 3
ENDMDL
MODEL 8
REMARK VINA RESULT:      -7.6     10.071     13.741
REMARK  3 active torsions:
REMARK  status: ('A' for Active; 'I' for Inactive)
REMARK    1  A    between atoms: C2_2  and  N1_3 
REMARK       I    between atoms: N1_3  and  C3_4 
REMARK    2  A    between atoms: C3_4  and  C4_6 
REMARK    3  A    between atoms: C9_12  and  O2_13 
ROOT
HETATM    1  C4  UNL     1      34.046   5.889  48.861  1.00  0.00     0.258 C 
HETATM    2  N2  UNL     1      34.937   6.896  48.378  1.00  0.00    -0.402 NA
HETATM    3  C5  UNL     1      34.785   7.957  47.772  1.00  0.00     0.276 C 
HETATM    4  C6  UNL     1      34.149   9.046  47.107  1.00  0.00     0.019 C 
HETATM    5  C7  UNL     1      33.732  10.102  46.484  1.00  0.00     0.004 C 
HETATM    6  C8  UNL     1      32.287  10.038  46.348  1.00  0.00     0.032 C 
HETATM    7  C9  UNL     1      31.524  10.972  45.771  1.00  0.00     0.047 C 
HETATM    8  C11 UNL     1      30.024  10.851  45.653  1.00  0.00     0.089 C 
HETATM    9  C12 UNL     1      29.311  11.815  46.491  1.00  0.00     0.092 C 
HETATM   10  C13 UNL     1      28.310  12.606  45.672  1.00  0.00     0.045 C 
HETATM   11  C14 UNL     1      27.083  11.762  45.459  1.00  0.00     0.118 C 
HETATM   12  N3  UNL     1      26.058  11.947  46.423  1.00  0.00    -0.415 N 
HETATM   13  C15 UNL     1      25.429  13.215  46.473  1.00  0.00     0.143 C 
HETATM   14  C16 UNL     1      26.261  11.298  47.677  1.00  0.00     0.136 C 
HETATM   15  C17 UNL     1      27.470  11.800  48.387  1.00  0.00     0.143 C 
HETATM   16  N4  UNL     1      28.636  11.320  47.669  1.00  0.00    -0.374 N 
HETATM   17  C18 UNL     1      29.284  10.166  48.148  1.00  0.00     0.030 A 
HETATM   18  C19 UNL     1      30.336  10.331  49.038  1.00  0.00     0.031 A 
HETATM   19  C20 UNL     1      31.043   9.247  49.515  1.00  0.00     0.032 A 
HETATM   20  C21 UNL     1      30.730   7.963  49.127  1.00  0.00     0.034 A 
HETATM   21  C22 UNL     1      29.664   7.781  48.229  1.00  0.00     0.032 A 
HETATM   22  C23 UNL     1      28.960   8.878  47.756  1.00  0.00     0.031 A 
HETATM   23  N5  UNL     1      31.327   6.711  49.446  1.00  0.00    -0.325 N 
HETATM   24  C24 UNL     1      32.698   6.433  49.096  1.00  0.00     0.253 C 
HETATM   25  O3  UNL     1      32.478   7.597  48.697  1.00  0.00    -0.270 OA
HETATM   26  H31 UNL     1      30.768   5.979  49.944  1.00  0.00     0.169 HD
ENDROOT
BRANCH   1  27
HETATM   27  C3  UNL     1      34.012   4.681  47.988  1.00  0.00     0.252 C 
HETATM   28  N1  UNL     1      33.046   3.659  48.100  1.00  0.00    -0.336 N 
HETATM   29  H4  UNL     1      32.301   3.714  48.818  1.00  0.00     0.168 HD
HETATM   30  O1  UNL     1      34.853   4.471  47.064  1.00  0.00    -0.270 OA
BRANCH  28  31
HETATM   31  C2  UNL     1      33.118   2.560  47.208  1.00  0.00     0.081 C 
HETATM   32  C1  UNL     1      32.057   2.116  46.592  1.00  0.00     0.030 C 
ENDBRANCH  28  31
ENDBRANCH   1  27
BRANCH   7  33
HETATM   33  O2  UNL     1      32.332  12.004  45.330  1.00  0.00    -0.360 OA
HETATM   34  C10 UNL     1      32.247  12.574  44.061  1.00  0.00     0.209 C 
ENDBRANCH   7  33
TORSDOF 3
ENDMDL
MODEL 9
REMARK VINA RESULT:      -7.5      3.684      5.525
REMARK  3 active torsions:
REMARK  status: ('A' for Active; 'I' for Inactive)
REMARK    1  A    between atoms: C2_2  and  N1_3 
REMARK       I    between atoms: N1_3  and  C3_4 
REMARK    2  A    between atoms: C3_4  and  C4_6 
REMARK    3  A    between atoms: C9_12  and  O2_13 
ROOT
HETATM    1  C4  UNL     1      15.672  -0.266  51.034  1.00  0.00     0.258 C 
HETATM    2  N2  UNL     1      16.238  -0.840  52.214  1.00  0.00    -0.402 NA
HETATM    3  C5  UNL     1      17.367  -0.855  52.703  1.00  0.00     0.276 C 
HETATM    4  C6  UNL     1      18.762  -0.614  52.874  1.00  0.00     0.019 C 
HETATM    5  C7  UNL     1      20.014  -0.483  53.178  1.00  0.00     0.004 C 
HETATM    6  C8  UNL     1      20.685   0.271  52.133  1.00  0.00     0.032 C 
HETATM    7  C9  UNL     1      21.979   0.605  52.132  1.00  0.00     0.047 C 
HETATM    8  C11 UNL     1      22.626   1.387  51.015  1.00  0.00     0.089 C 
HETATM    9  C12 UNL     1      23.021   2.736  51.422  1.00  0.00     0.092 C 
HETATM   10  C13 UNL     1      24.480   2.992  51.102  1.00  0.00     0.045 C 
HETATM   11  C14 UNL     1      24.606   3.311  49.637  1.00  0.00     0.118 C 
HETATM   12  N3  UNL     1      24.555   4.694  49.323  1.00  0.00    -0.415 N 
HETATM   13  C15 UNL     1      25.608   5.511  49.802  1.00  0.00     0.143 C 
HETATM   14  C16 UNL     1      23.256   5.283  49.317  1.00  0.00     0.136 C 
HETATM   15  C17 UNL     1      22.604   5.230  50.656  1.00  0.00     0.143 C 
HETATM   16  N4  UNL     1      22.248   3.848  50.919  1.00  0.00    -0.374 N 
HETATM   17  C18 UNL     1      20.924   3.443  50.665  1.00  0.00     0.030 A 
HETATM   18  C19 UNL     1      20.010   3.509  51.707  1.00  0.00     0.031 A 
HETATM   19  C20 UNL     1      18.708   3.089  51.541  1.00  0.00     0.032 A 
HETATM   20  C21 UNL     1      18.267   2.589  50.335  1.00  0.00     0.034 A 
HETATM   21  C22 UNL     1      19.181   2.519  49.270  1.00  0.00     0.032 A 
HETATM   22  C23 UNL     1      20.488   2.945  49.449  1.00  0.00     0.031 A 
HETATM   23  N5  UNL     1      17.004   2.065  49.938  1.00  0.00    -0.325 N 
HETATM   24  C24 UNL     1      16.455   0.893  50.572  1.00  0.00     0.253 C 
HETATM   25  O3  UNL     1      17.548   1.102  51.140  1.00  0.00    -0.270 OA
HETATM   26  H31 UNL     1      16.461   2.536  49.176  1.00  0.00     0.169 HD
ENDROOT
BRANCH   1  27
HETATM   27  C3  UNL     1      15.467  -1.266  49.947  1.00  0.00     0.252 C 
HETATM   28  N1  UNL     1      15.948  -1.102  48.631  1.00  0.00    -0.336 N 
HETATM   29  H4  UNL     1      16.478  -0.253  48.364  1.00  0.00     0.168 HD
HETATM   30  O1  UNL     1      14.842  -2.354  50.117  1.00  0.00    -0.270 OA
BRANCH  28  31
HETATM   31  C2  UNL     1      15.691  -2.126  47.685  1.00  0.00     0.081 C 
HETATM   32  C1  UNL     1      15.596  -1.864  46.410  1.00  0.00     0.030 C 
ENDBRANCH  28  31
ENDBRANCH   1  27
BRANCH   7  33
HETATM   33  O2  UNL     1      22.570   0.121  53.284  1.00  0.00    -0.360 OA
HETATM   34  C10 UNL     1      23.885  -0.335  53.354  1.00  0.00     0.209 C 
ENDBRANCH   7  33
TORSDOF 3
ENDMDL
