MODEL 1
REMARK VINA RESULT:      -9.1      0.000      0.000
REMARK  1 active torsions:
REMARK  status: ('A' for Active; 'I' for Inactive)
REMARK    1  A    between atoms: C10_11  and  O1_12 
ROOT
HETATM    1  C1  UNL     1      20.717   0.232  51.208  1.00  0.00     0.039 C 
HETATM    2  C2  UNL     1      20.690   1.443  51.786  1.00  0.00     0.021 C 
HETATM    3  C3  UNL     1      20.059   2.578  51.046  1.00  0.00     0.097 C 
HETATM    4  C4  UNL     1      21.035   3.677  50.782  1.00  0.00    -0.026 C 
HETATM    5  C5  UNL     1      21.518   4.197  51.957  1.00  0.00     0.010 C 
HETATM    6  C6  UNL     1      22.750   5.065  52.070  1.00  0.00     0.001 C 
HETATM    7  C7  UNL     1      23.854   5.159  51.270  1.00  0.00     0.011 C 
HETATM    8  C8  UNL     1      23.875   4.445  49.951  1.00  0.00    -0.014 C 
HETATM    9  C9  UNL     1      24.438   3.253  50.080  1.00  0.00     0.129 C 
HETATM   10  N1  UNL     1      24.976   2.581  51.152  1.00  0.00    -0.236 NA
HETATM   11  C10 UNL     1      26.102   2.504  51.702  1.00  0.00     0.174 C 
HETATM   12  C11 UNL     1      26.096   1.595  52.852  1.00  0.00     0.042 C 
HETATM   13  C12 UNL     1      27.166   1.352  53.586  1.00  0.00    -0.013 C 
HETATM   14  C13 UNL     1      28.577   1.800  53.581  1.00  0.00     0.037 C 
HETATM   15  C14 UNL     1      24.881   0.883  53.249  1.00  0.00     0.091 A 
HETATM   16  C15 UNL     1      24.882  -0.361  53.845  1.00  0.00     0.053 A 
HETATM   17  C16 UNL     1      23.698  -0.990  54.186  1.00  0.00     0.139 A 
HETATM   18  N2  UNL     1      22.543  -0.312  53.900  1.00  0.00    -0.075 NA
HETATM   19  C17 UNL     1      22.574   0.897  53.320  1.00  0.00     0.727 A 
HETATM   20  N3  UNL     1      23.722   1.557  52.966  1.00  0.00    -0.062 NA
HETATM   21  N4  UNL     1      21.291   1.492  53.074  1.00  0.00    -0.192 N 
HETATM   22  C18 UNL     1      23.403   4.608  48.521  1.00  0.00     0.139 C 
HETATM   23  C19 UNL     1      22.859   5.927  48.227  1.00  0.00     0.003 C 
HETATM   24  C20 UNL     1      21.573   6.264  48.445  1.00  0.00     0.001 C 
HETATM   25  C21 UNL     1      20.732   5.232  49.107  1.00  0.00     0.029 C 
HETATM   26  C22 UNL     1      21.407   4.098  49.388  1.00  0.00     0.035 C 
HETATM   27  N5  UNL     1      22.287   3.641  48.312  1.00  0.00    -0.377 N 
HETATM   28  H16 UNL     1      21.067   1.872  54.013  1.00  0.00     0.184 HD
HETATM   29  H21 UNL     1      22.313   2.919  47.557  1.00  0.00     0.160 HD
ENDROOT
BRANCH  11  30
HETATM   30  O1  UNL     1      27.168   3.232  51.208  1.00  0.00    -0.344 OA
HETATM   31  H9  UNL     1      27.068   4.225  50.932  1.00  0.00     0.219 HD
ENDBRANCH  11  30
TORSDOF 1
ENDMDL
MODEL 2
REMARK VINA RESULT:      -9.0      2.055      3.389
REMARK  1 active torsions:
REMARK  status: ('A' for Active; 'I' for Inactive)
REMARK    1  A    between atoms: C10_11  and  O1_12 
ROOT
HETATM    1  C1  UNL     1      19.402   2.006  49.274  1.00  0.00     0.039 C 
HETATM    2  C2  UNL     1      19.714   3.016  50.101  1.00  0.00     0.021 C 
HETATM    3  C3  UNL     1      20.420   4.209  49.542  1.00  0.00     0.097 C 
HETATM    4  C4  UNL     1      21.755   4.413  50.183  1.00  0.00    -0.026 C 
HETATM    5  C5  UNL     1      21.622   4.633  51.532  1.00  0.00     0.010 C 
HETATM    6  C6  UNL     1      22.751   4.537  52.532  1.00  0.00     0.001 C 
HETATM    7  C7  UNL     1      23.920   3.830  52.496  1.00  0.00     0.011 C 
HETATM    8  C8  UNL     1      24.322   3.128  51.233  1.00  0.00    -0.014 C 
HETATM    9  C9  UNL     1      23.909   1.869  51.251  1.00  0.00     0.129 C 
HETATM   10  N1  UNL     1      23.208   1.126  52.172  1.00  0.00    -0.236 NA
HETATM   11  C10 UNL     1      23.489   0.416  53.168  1.00  0.00     0.174 C 
HETATM   12  C11 UNL     1      22.295  -0.159  53.794  1.00  0.00     0.042 C 
HETATM   13  C12 UNL     1      22.343  -0.942  54.856  1.00  0.00    -0.013 C 
HETATM   14  C13 UNL     1      23.412  -1.487  55.723  1.00  0.00     0.037 C 
HETATM   15  C14 UNL     1      20.959   0.100  53.258  1.00  0.00     0.091 A 
HETATM   16  C15 UNL     1      19.913  -0.796  53.341  1.00  0.00     0.053 A 
HETATM   17  C16 UNL     1      18.674  -0.498  52.802  1.00  0.00     0.139 A 
HETATM   18  N2  UNL     1      18.553   0.720  52.190  1.00  0.00    -0.075 NA
HETATM   19  C17 UNL     1      19.588   1.571  52.125  1.00  0.00     0.727 A 
HETATM   20  N3  UNL     1      20.831   1.319  52.644  1.00  0.00    -0.062 NA
HETATM   21  N4  UNL     1      19.322   2.811  51.452  1.00  0.00    -0.192 N 
HETATM   22  C18 UNL     1      24.992   3.400  49.902  1.00  0.00     0.139 C 
HETATM   23  C19 UNL     1      25.584   4.727  49.801  1.00  0.00     0.003 C 
HETATM   24  C20 UNL     1      24.896   5.819  49.415  1.00  0.00     0.001 C 
HETATM   25  C21 UNL     1      23.441   5.624  49.182  1.00  0.00     0.029 C 
HETATM   26  C22 UNL     1      23.035   4.356  49.398  1.00  0.00     0.035 C 
HETATM   27  N5  UNL     1      23.933   3.337  48.854  1.00  0.00    -0.377 N 
HETATM   28  H16 UNL     1      18.843   3.343  52.203  1.00  0.00     0.184 HD
HETATM   29  H21 UNL     1      23.997   2.685  48.040  1.00  0.00     0.160 HD
ENDROOT
BRANCH  11  30
HETATM   30  O1  UNL     1      24.807   0.254  53.555  1.00  0.00    -0.344 OA
HETATM   31  H9  UNL     1      25.488   1.031  53.510  1.00  0.00     0.219 HD
ENDBRANCH  11  30
TORSDOF 1
ENDMDL
MODEL 3
REMARK VINA RESULT:      -8.8      2.337      4.732
REMARK  1 active torsions:
REMARK  status: ('A' for Active; 'I' for Inactive)
REMARK    1  A    between atoms: C10_11  and  O1_12 
ROOT
HETATM    1  C1  UNL     1      25.289   2.492  53.677  1.00  0.00     0.039 C 
HETATM    2  C2  UNL     1      25.156   2.288  52.358  1.00  0.00     0.021 C 
HETATM    3  C3  UNL     1      25.483   3.408  51.423  1.00  0.00     0.097 C 
HETATM    4  C4  UNL     1      24.298   3.812  50.607  1.00  0.00    -0.026 C 
HETATM    5  C5  UNL     1      23.860   2.768  49.830  1.00  0.00     0.010 C 
HETATM    6  C6  UNL     1      22.510   2.709  49.154  1.00  0.00     0.001 C 
HETATM    7  C7  UNL     1      21.326   3.317  49.466  1.00  0.00     0.011 C 
HETATM    8  C8  UNL     1      21.292   4.361  50.543  1.00  0.00    -0.014 C 
HETATM    9  C9  UNL     1      20.975   3.815  51.707  1.00  0.00     0.129 C 
HETATM   10  N1  UNL     1      20.691   2.526  52.092  1.00  0.00    -0.236 NA
HETATM   11  C10 UNL     1      19.666   1.803  52.158  1.00  0.00     0.174 C 
HETATM   12  C11 UNL     1      19.965   0.461  52.664  1.00  0.00     0.042 C 
HETATM   13  C12 UNL     1      19.045  -0.472  52.823  1.00  0.00    -0.013 C 
HETATM   14  C13 UNL     1      17.583  -0.566  52.605  1.00  0.00     0.037 C 
HETATM   15  C14 UNL     1      21.326   0.079  53.040  1.00  0.00     0.091 A 
HETATM   16  C15 UNL     1      21.619  -0.835  54.032  1.00  0.00     0.053 A 
HETATM   17  C16 UNL     1      22.929  -1.146  54.351  1.00  0.00     0.139 A 
HETATM   18  N2  UNL     1      23.901  -0.500  53.634  1.00  0.00    -0.075 NA
HETATM   19  C17 UNL     1      23.584   0.384  52.675  1.00  0.00     0.727 A 
HETATM   20  N3  UNL     1      22.304   0.721  52.326  1.00  0.00    -0.062 NA
HETATM   21  N4  UNL     1      24.702   0.988  52.006  1.00  0.00    -0.192 N 
HETATM   22  C18 UNL     1      21.566   5.835  50.756  1.00  0.00     0.139 C 
HETATM   23  C19 UNL     1      21.822   6.571  49.525  1.00  0.00     0.003 C 
HETATM   24  C20 UNL     1      23.041   6.664  48.957  1.00  0.00     0.001 C 
HETATM   25  C21 UNL     1      24.125   5.881  49.608  1.00  0.00     0.029 C 
HETATM   26  C22 UNL     1      23.704   5.190  50.687  1.00  0.00     0.035 C 
HETATM   27  N5  UNL     1      22.810   5.939  51.570  1.00  0.00    -0.377 N 
HETATM   28  H16 UNL     1      24.954   0.241  51.331  1.00  0.00     0.184 HD
HETATM   29  H21 UNL     1      22.835   6.447  52.483  1.00  0.00     0.160 HD
ENDROOT
BRANCH  11  30
HETATM   30  O1  UNL     1      18.436   2.307  51.774  1.00  0.00    -0.344 OA
HETATM   31  H9  UNL     1      18.304   3.307  51.546  1.00  0.00     0.219 HD
ENDBRANCH  11  30
TORSDOF 1
ENDMDL
MODEL 4
REMARK VINA RESULT:      -8.6      2.318      4.955
REMARK  1 active torsions:
REMARK  status: ('A' for Active; 'I' for Inactive)
REMARK    1  A    between atoms: C10_11  and  O1_12 
ROOT
HETATM    1  C1  UNL     1      25.493   2.403  53.381  1.00  0.00     0.039 C 
HETATM    2  C2  UNL     1      25.415   2.167  52.063  1.00  0.00     0.021 C 
HETATM    3  C3  UNL     1      26.274   2.968  51.138  1.00  0.00     0.097 C 
HETATM    4  C4  UNL     1      25.457   3.763  50.172  1.00  0.00    -0.026 C 
HETATM    5  C5  UNL     1      24.694   2.938  49.381  1.00  0.00     0.010 C 
HETATM    6  C6  UNL     1      23.519   3.394  48.549  1.00  0.00     0.001 C 
HETATM    7  C7  UNL     1      22.681   4.464  48.695  1.00  0.00     0.011 C 
HETATM    8  C8  UNL     1      22.989   5.510  49.724  1.00  0.00    -0.014 C 
HETATM    9  C9  UNL     1      22.361   5.243  50.860  1.00  0.00     0.129 C 
HETATM   10  N1  UNL     1      21.520   4.226  51.249  1.00  0.00    -0.236 NA
HETATM   11  C10 UNL     1      20.285   4.007  51.213  1.00  0.00     0.174 C 
HETATM   12  C11 UNL     1      19.936   2.708  51.796  1.00  0.00     0.042 C 
HETATM   13  C12 UNL     1      18.696   2.261  51.872  1.00  0.00    -0.013 C 
HETATM   14  C13 UNL     1      17.361   2.768  51.482  1.00  0.00     0.037 C 
HETATM   15  C14 UNL     1      20.963   1.824  52.347  1.00  0.00     0.091 A 
HETATM   16  C15 UNL     1      20.744   0.955  53.396  1.00  0.00     0.053 A 
HETATM   17  C16 UNL     1      21.761   0.152  53.882  1.00  0.00     0.139 A 
HETATM   18  N2  UNL     1      22.978   0.272  53.268  1.00  0.00    -0.075 NA
HETATM   19  C17 UNL     1      23.161   1.126  52.249  1.00  0.00     0.727 A 
HETATM   20  N3  UNL     1      22.184   1.938  51.736  1.00  0.00    -0.062 NA
HETATM   21  N4  UNL     1      24.487   1.152  51.701  1.00  0.00    -0.192 N 
HETATM   22  C18 UNL     1      23.841   6.747  49.921  1.00  0.00     0.139 C 
HETATM   23  C19 UNL     1      24.503   7.206  48.707  1.00  0.00     0.003 C 
HETATM   24  C20 UNL     1      25.694   6.735  48.289  1.00  0.00     0.001 C 
HETATM   25  C21 UNL     1      26.275   5.627  49.092  1.00  0.00     0.029 C 
HETATM   26  C22 UNL     1      25.500   5.264  50.134  1.00  0.00     0.035 C 
HETATM   27  N5  UNL     1      24.928   6.388  50.877  1.00  0.00    -0.377 N 
HETATM   28  H16 UNL     1      24.462   0.317  51.086  1.00  0.00     0.184 HD
HETATM   29  H21 UNL     1      25.077   6.910  51.769  1.00  0.00     0.160 HD
ENDROOT
BRANCH  11  30
HETATM   30  O1  UNL     1      19.428   4.945  50.667  1.00  0.00    -0.344 OA
HETATM   31  H9  UNL     1      18.677   4.678  50.007  1.00  0.00     0.219 HD
ENDBRANCH  11  30
TORSDOF 1
ENDMDL
MODEL 5
REMARK VINA RESULT:      -8.6      2.187      4.470
REMARK  1 active torsions:
REMARK  status: ('A' for Active; 'I' for Inactive)
REMARK    1  A    between atoms: C10_11  and  O1_12 
ROOT
HETATM    1  C1  UNL     1      24.632   5.266  50.521  1.00  0.00     0.039 C 
HETATM    2  C2  UNL     1      24.369   4.351  49.575  1.00  0.00     0.021 C 
HETATM    3  C3  UNL     1      23.473   4.731  48.440  1.00  0.00     0.097 C 
HETATM    4  C4  UNL     1      22.249   3.875  48.391  1.00  0.00    -0.026 C 
HETATM    5  C5  UNL     1      22.581   2.555  48.203  1.00  0.00     0.010 C 
HETATM    6  C6  UNL     1      21.647   1.393  48.442  1.00  0.00     0.001 C 
HETATM    7  C7  UNL     1      20.558   1.274  49.260  1.00  0.00     0.011 C 
HETATM    8  C8  UNL     1      20.020   2.488  49.957  1.00  0.00    -0.014 C 
HETATM    9  C9  UNL     1      20.545   2.597  51.169  1.00  0.00     0.129 C 
HETATM   10  N1  UNL     1      21.454   1.839  51.868  1.00  0.00    -0.236 NA
HETATM   11  C10 UNL     1      21.408   0.845  52.634  1.00  0.00     0.174 C 
HETATM   12  C11 UNL     1      22.737   0.448  53.108  1.00  0.00     0.042 C 
HETATM   13  C12 UNL     1      22.938  -0.569  53.926  1.00  0.00    -0.013 C 
HETATM   14  C13 UNL     1      22.081  -1.569  54.603  1.00  0.00     0.037 C 
HETATM   15  C14 UNL     1      23.937   1.179  52.700  1.00  0.00     0.091 A 
HETATM   16  C15 UNL     1      25.060   1.309  53.490  1.00  0.00     0.053 A 
HETATM   17  C16 UNL     1      26.161   2.025  53.054  1.00  0.00     0.139 A 
HETATM   18  N2  UNL     1      26.066   2.589  51.810  1.00  0.00    -0.075 NA
HETATM   19  C17 UNL     1      24.960   2.446  51.065  1.00  0.00     0.727 A 
HETATM   20  N3  UNL     1      23.849   1.746  51.456  1.00  0.00    -0.062 NA
HETATM   21  N4  UNL     1      24.995   3.092  49.783  1.00  0.00    -0.192 N 
HETATM   22  C18 UNL     1      19.118   3.679  49.710  1.00  0.00     0.139 C 
HETATM   23  C19 UNL     1      18.396   3.619  48.446  1.00  0.00     0.003 C 
HETATM   24  C20 UNL     1      18.907   4.058  47.279  1.00  0.00     0.001 C 
HETATM   25  C21 UNL     1      20.316   4.531  47.321  1.00  0.00     0.029 C 
HETATM   26  C22 UNL     1      20.868   4.445  48.549  1.00  0.00     0.035 C 
HETATM   27  N5  UNL     1      19.991   4.886  49.634  1.00  0.00    -0.377 N 
HETATM   28  H16 UNL     1      25.540   2.403  49.231  1.00  0.00     0.184 HD
HETATM   29  H21 UNL     1      19.854   5.710  50.262  1.00  0.00     0.160 HD
ENDROOT
BRANCH  11  30
HETATM   30  O1  UNL     1      20.193   0.260  52.939  1.00  0.00    -0.344 OA
HETATM   31  H9  UNL     1      19.313   0.803  52.947  1.00  0.00     0.219 HD
ENDBRANCH  11  30
TORSDOF 1
ENDMDL
MODEL 6
REMARK VINA RESULT:      -8.5      1.986      3.617
REMARK  1 active torsions:
REMARK  status: ('A' for Active; 'I' for Inactive)
REMARK    1  A    between atoms: C10_11  and  O1_12 
ROOT
HETATM    1  C1  UNL     1      22.275  -1.234  52.648  1.00  0.00     0.039 C 
HETATM    2  C2  UNL     1      21.798  -0.084  53.146  1.00  0.00     0.021 C 
HETATM    3  C3  UNL     1      20.323   0.158  53.106  1.00  0.00     0.097 C 
HETATM    4  C4  UNL     1      19.982   1.367  52.298  1.00  0.00    -0.026 C 
HETATM    5  C5  UNL     1      20.549   2.495  52.839  1.00  0.00     0.010 C 
HETATM    6  C6  UNL     1      20.701   3.812  52.115  1.00  0.00     0.001 C 
HETATM    7  C7  UNL     1      20.782   4.095  50.780  1.00  0.00     0.011 C 
HETATM    8  C8  UNL     1      20.528   3.009  49.777  1.00  0.00    -0.014 C 
HETATM    9  C9  UNL     1      21.667   2.433  49.420  1.00  0.00     0.129 C 
HETATM   10  N1  UNL     1      22.976   2.637  49.788  1.00  0.00    -0.236 NA
HETATM   11  C10 UNL     1      23.923   3.367  49.404  1.00  0.00     0.174 C 
HETATM   12  C11 UNL     1      25.141   3.154  50.192  1.00  0.00     0.042 C 
HETATM   13  C12 UNL     1      26.267   3.806  49.970  1.00  0.00    -0.013 C 
HETATM   14  C13 UNL     1      26.720   4.842  49.015  1.00  0.00     0.037 C 
HETATM   15  C14 UNL     1      25.178   2.177  51.280  1.00  0.00     0.091 A 
HETATM   16  C15 UNL     1      26.311   1.480  51.646  1.00  0.00     0.053 A 
HETATM   17  C16 UNL     1      26.281   0.558  52.677  1.00  0.00     0.139 A 
HETATM   18  N2  UNL     1      25.075   0.383  53.302  1.00  0.00    -0.075 NA
HETATM   19  C17 UNL     1      23.990   1.076  52.924  1.00  0.00     0.727 A 
HETATM   20  N3  UNL     1      23.975   1.998  51.911  1.00  0.00    -0.062 NA
HETATM   21  N4  UNL     1      22.792   0.791  53.663  1.00  0.00    -0.192 N 
HETATM   22  C18 UNL     1      19.386   2.300  49.080  1.00  0.00     0.139 C 
HETATM   23  C19 UNL     1      18.084   2.912  49.311  1.00  0.00     0.003 C 
HETATM   24  C20 UNL     1      17.307   2.623  50.373  1.00  0.00     0.001 C 
HETATM   25  C21 UNL     1      17.895   1.699  51.378  1.00  0.00     0.029 C 
HETATM   26  C22 UNL     1      19.139   1.287  51.056  1.00  0.00     0.035 C 
HETATM   27  N5  UNL     1      19.306   0.924  49.649  1.00  0.00    -0.377 N 
HETATM   28  H16 UNL     1      22.946   1.363  54.515  1.00  0.00     0.184 HD
HETATM   29  H21 UNL     1      19.371   0.071  49.049  1.00  0.00     0.160 HD
ENDROOT
BRANCH  11  30
HETATM   30  O1  UNL     1      23.742   4.241  48.349  1.00  0.00    -0.344 OA
HETATM   31  H9  UNL     1      23.977   3.978  47.376  1.00  0.00     0.219 HD
ENDBRANCH  11  30
TORSDOF 1
ENDMDL
MODEL 7
REMARK VINA RESULT:      -8.3      7.902     10.461
REMARK  1 active torsions:
REMARK  status: ('A' for Active; 'I' for Inactive)
REMARK    1  A    between atoms: C10_11  and  O1_12 
ROOT
HETATM    1  C1  UNL     1      27.635  11.544  46.137  1.00  0.00     0.039 C 
HETATM    2  C2  UNL     1      28.341  11.547  47.278  1.00  0.00     0.021 C 
HETATM    3  C3  UNL     1      29.757  12.024  47.244  1.00  0.00     0.097 C 
HETATM    4  C4  UNL     1      30.712  10.955  47.665  1.00  0.00    -0.026 C 
HETATM    5  C5  UNL     1      30.464  10.557  48.956  1.00  0.00     0.010 C 
HETATM    6  C6  UNL     1      30.994   9.287  49.579  1.00  0.00     0.001 C 
HETATM    7  C7  UNL     1      31.381   8.105  49.011  1.00  0.00     0.011 C 
HETATM    8  C8  UNL     1      31.488   8.002  47.518  1.00  0.00    -0.014 C 
HETATM    9  C9  UNL     1      30.359   7.536  47.004  1.00  0.00     0.129 C 
HETATM   10  N1  UNL     1      29.163   7.152  47.563  1.00  0.00    -0.236 NA
HETATM   11  C10 UNL     1      28.680   6.094  48.036  1.00  0.00     0.174 C 
HETATM   12  C11 UNL     1      27.304   6.274  48.506  1.00  0.00     0.042 C 
HETATM   13  C12 UNL     1      26.589   5.300  49.039  1.00  0.00    -0.013 C 
HETATM   14  C13 UNL     1      26.812   3.868  49.343  1.00  0.00     0.037 C 
HETATM   15  C14 UNL     1      26.628   7.568  48.396  1.00  0.00     0.091 A 
HETATM   16  C15 UNL     1      25.267   7.708  48.219  1.00  0.00     0.053 A 
HETATM   17  C16 UNL     1      24.688   8.960  48.109  1.00  0.00     0.139 A 
HETATM   18  N2  UNL     1      25.536  10.033  48.183  1.00  0.00    -0.075 NA
HETATM   19  C17 UNL     1      26.855   9.864  48.355  1.00  0.00     0.727 A 
HETATM   20  N3  UNL     1      27.471   8.645  48.470  1.00  0.00    -0.062 NA
HETATM   21  N4  UNL     1      27.626  11.074  48.412  1.00  0.00    -0.192 N 
HETATM   22  C18 UNL     1      32.443   8.319  46.386  1.00  0.00     0.139 C 
HETATM   23  C19 UNL     1      33.764   8.742  46.830  1.00  0.00     0.003 C 
HETATM   24  C20 UNL     1      34.070  10.018  47.136  1.00  0.00     0.001 C 
HETATM   25  C21 UNL     1      32.944  10.987  47.092  1.00  0.00     0.029 C 
HETATM   26  C22 UNL     1      31.771  10.421  46.742  1.00  0.00     0.035 C 
HETATM   27  N5  UNL     1      31.868   9.471  45.633  1.00  0.00    -0.377 N 
HETATM   28  H16 UNL     1      27.465  11.363  49.396  1.00  0.00     0.184 HD
HETATM   29  H21 UNL     1      31.665   9.419  44.610  1.00  0.00     0.160 HD
ENDROOT
BRANCH  11  30
HETATM   30  O1  UNL     1      29.438   4.938  48.066  1.00  0.00    -0.344 OA
HETATM   31  H9  UNL     1      30.328   4.856  47.545  1.00  0.00     0.219 HD
ENDBRANCH  11  30
TORSDOF 1
ENDMDL
MODEL 8
REMARK VINA RESULT:      -8.2      9.292     11.505
REMARK  1 active torsions:
REMARK  status: ('A' for Active; 'I' for Inactive)
REMARK    1  A    between atoms: C10_11  and  O1_12 
ROOT
HETATM    1  C1  UNL     1      33.190   9.510  44.105  1.00  0.00     0.039 C 
HETATM    2  C2  UNL     1      31.901   9.138  44.145  1.00  0.00     0.021 C 
HETATM    3  C3  UNL     1      30.896  10.091  44.705  1.00  0.00     0.097 C 
HETATM    4  C4  UNL     1      30.203   9.525  45.901  1.00  0.00    -0.026 C 
HETATM    5  C5  UNL     1      29.517   8.380  45.574  1.00  0.00     0.010 C 
HETATM    6  C6  UNL     1      28.998   7.375  46.576  1.00  0.00     0.001 C 
HETATM    7  C7  UNL     1      29.418   7.075  47.841  1.00  0.00     0.011 C 
HETATM    8  C8  UNL     1      30.452   7.937  48.502  1.00  0.00    -0.014 C 
HETATM    9  C9  UNL     1      31.664   7.440  48.303  1.00  0.00     0.129 C 
HETATM   10  N1  UNL     1      32.125   6.333  47.631  1.00  0.00    -0.236 NA
HETATM   11  C10 UNL     1      32.330   5.125  47.904  1.00  0.00     0.174 C 
HETATM   12  C11 UNL     1      32.849   4.376  46.756  1.00  0.00     0.042 C 
HETATM   13  C12 UNL     1      33.143   3.090  46.805  1.00  0.00    -0.013 C 
HETATM   14  C13 UNL     1      33.092   2.031  47.839  1.00  0.00     0.037 C 
HETATM   15  C14 UNL     1      33.085   5.031  45.469  1.00  0.00     0.091 A 
HETATM   16  C15 UNL     1      34.070   4.646  44.583  1.00  0.00     0.053 A 
HETATM   17  C16 UNL     1      34.253   5.314  43.385  1.00  0.00     0.139 A 
HETATM   18  N2  UNL     1      33.410   6.364  43.138  1.00  0.00    -0.075 NA
HETATM   19  C17 UNL     1      32.461   6.714  44.019  1.00  0.00     0.727 A 
HETATM   20  N3  UNL     1      32.243   6.082  45.215  1.00  0.00    -0.062 NA
HETATM   21  N4  UNL     1      31.650   7.835  43.633  1.00  0.00    -0.192 N 
HETATM   22  C18 UNL     1      30.580   9.235  49.271  1.00  0.00     0.139 C 
HETATM   23  C19 UNL     1      29.302   9.827  49.644  1.00  0.00     0.003 C 
HETATM   24  C20 UNL     1      28.600  10.645  48.836  1.00  0.00     0.001 C 
HETATM   25  C21 UNL     1      29.154  10.846  47.472  1.00  0.00     0.029 C 
HETATM   26  C22 UNL     1      30.298  10.164  47.258  1.00  0.00     0.035 C 
HETATM   27  N5  UNL     1      31.247  10.219  48.370  1.00  0.00    -0.377 N 
HETATM   28  H16 UNL     1      30.979   7.379  42.987  1.00  0.00     0.184 HD
HETATM   29  H21 UNL     1      32.133  10.704  48.638  1.00  0.00     0.160 HD
ENDROOT
BRANCH  11  30
HETATM   30  O1  UNL     1      32.068   4.646  49.175  1.00  0.00    -0.344 OA
HETATM   31  H9  UNL     1      32.720   4.009  49.663  1.00  0.00     0.219 HD
ENDBRANCH  11  30
TORSDOF 1
ENDMDL
MODEL 9
REMARK VINA RESULT:      -8.1      7.847     10.944
REMARK  1 active torsions:
REMARK  status: ('A' for Active; 'I' for Inactive)
REMARK    1  A    between atoms: C10_11  and  O1_12 
ROOT
HETATM    1  C1  UNL     1      26.544   7.256  49.461  1.00  0.00     0.039 C 
HETATM    2  C2  UNL     1      27.165   7.086  48.283  1.00  0.00     0.021 C 
HETATM    3  C3  UNL     1      28.235   6.047  48.180  1.00  0.00     0.097 C 
HETATM    4  C4  UNL     1      29.554   6.645  47.812  1.00  0.00    -0.026 C 
HETATM    5  C5  UNL     1      29.487   7.262  46.587  1.00  0.00     0.010 C 
HETATM    6  C6  UNL     1      30.509   8.246  46.065  1.00  0.00     0.001 C 
HETATM    7  C7  UNL     1      31.376   9.070  46.726  1.00  0.00     0.011 C 
HETATM    8  C8  UNL     1      31.534   8.939  48.212  1.00  0.00    -0.014 C 
HETATM    9  C9  UNL     1      30.725   9.779  48.840  1.00  0.00     0.129 C 
HETATM   10  N1  UNL     1      29.807  10.703  48.398  1.00  0.00    -0.236 NA
HETATM   11  C10 UNL     1      29.825  11.914  48.067  1.00  0.00     0.174 C 
HETATM   12  C11 UNL     1      28.501  12.399  47.668  1.00  0.00     0.042 C 
HETATM   13  C12 UNL     1      28.273  13.641  47.282  1.00  0.00    -0.013 C 
HETATM   14  C13 UNL     1      29.090  14.864  47.113  1.00  0.00     0.037 C 
HETATM   15  C14 UNL     1      27.333  11.517  47.687  1.00  0.00     0.091 A 
HETATM   16  C15 UNL     1      26.048  11.954  47.932  1.00  0.00     0.053 A 
HETATM   17  C16 UNL     1      24.984  11.069  47.950  1.00  0.00     0.139 A 
HETATM   18  N2  UNL     1      25.283   9.754  47.714  1.00  0.00    -0.075 NA
HETATM   19  C17 UNL     1      26.543   9.359  47.478  1.00  0.00     0.727 A 
HETATM   20  N3  UNL     1      27.625  10.200  47.451  1.00  0.00    -0.062 NA
HETATM   21  N4  UNL     1      26.713   7.952  47.250  1.00  0.00    -0.192 N 
HETATM   22  C18 UNL     1      32.271   8.111  49.244  1.00  0.00     0.139 C 
HETATM   23  C19 UNL     1      33.273   7.218  48.677  1.00  0.00     0.003 C 
HETATM   24  C20 UNL     1      32.993   5.981  48.224  1.00  0.00     0.001 C 
HETATM   25  C21 UNL     1      31.558   5.591  48.239  1.00  0.00     0.029 C 
HETATM   26  C22 UNL     1      30.750   6.560  48.717  1.00  0.00     0.035 C 
HETATM   27  N5  UNL     1      31.263   7.236  49.909  1.00  0.00    -0.377 N 
HETATM   28  H16 UNL     1      26.431   7.879  46.254  1.00  0.00     0.184 HD
HETATM   29  H21 UNL     1      31.115   7.247  50.943  1.00  0.00     0.160 HD
ENDROOT
BRANCH  11  30
HETATM   30  O1  UNL     1      31.008  12.627  48.108  1.00  0.00    -0.344 OA
HETATM   31  H9  UNL     1      31.861  12.296  47.624  1.00  0.00     0.219 HD
ENDBRANCH  11  30
TORSDOF 1
ENDMDL
