MODEL 1
REMARK VINA RESULT:      -7.8      0.000      0.000
REMARK  2 active torsions:
REMARK  status: ('A' for Active; 'I' for Inactive)
REMARK    1  A    between atoms: C3_3  and  N1_4 
REMARK    2  A    between atoms: C6_7  and  N2_8 
ROOT
HETATM    1  C1  UNL     1      27.568   4.753  48.867  1.00  0.00     0.014 C 
HETATM    2  C2  UNL     1      26.494   4.305  49.182  1.00  0.00    -0.098 C 
HETATM    3  C3  UNL     1      25.217   3.746  49.550  1.00  0.00     0.217 C 
ENDROOT
BRANCH   3   4
HETATM    4  N1  UNL     1      25.239   2.949  50.767  1.00  0.00    -0.355 N 
HETATM    5  C4  UNL     1      26.469   2.363  51.295  1.00  0.00     0.128 C 
HETATM    6  C5  UNL     1      26.216   1.039  51.917  1.00  0.00     0.067 C 
HETATM    7  C6  UNL     1      25.672   1.009  53.290  1.00  0.00     0.191 C 
HETATM    8  C7  UNL     1      24.673   2.100  53.586  1.00  0.00     0.133 C 
HETATM    9  C15 UNL     1      24.919  -0.316  53.487  1.00  0.00     0.067 C 
HETATM   10  N3  UNL     1      23.774   2.667  52.810  1.00  0.00    -0.245 NA
HETATM   11  C8  UNL     1      23.928   2.812  51.377  1.00  0.00     0.123 C 
HETATM   12  C9  UNL     1      22.905   2.827  50.500  1.00  0.00     0.045 C 
HETATM   13  C10 UNL     1      21.454   2.757  50.252  1.00  0.00     0.180 C 
HETATM   14  N4  UNL     1      20.650   2.591  51.427  1.00  0.00    -0.288 N 
HETATM   15  C11 UNL     1      20.513   1.504  52.106  1.00  0.00     0.058 A 
HETATM   16  O1  UNL     1      19.784   2.533  52.638  1.00  0.00     0.000 OA
HETATM   17  C12 UNL     1      21.219   0.227  51.718  1.00  0.00     0.103 C 
HETATM   18  C13 UNL     1      22.217  -0.064  52.818  1.00  0.00    -0.023 A 
HETATM   19 BR1  UNL     1      22.175  -0.487  54.663  1.00  0.00    -0.126 Br
HETATM   20  C14 UNL     1      23.513  -0.160  53.035  1.00  0.00     0.090 A 
HETATM   21  H14 UNL     1      19.455   2.483  53.610  1.00  0.00     0.000 HD
BRANCH   7  22
HETATM   22  N2  UNL     1      26.728   1.003  54.274  1.00  0.00     0.093 N 
HETATM   23  H8  UNL     1      27.506   0.344  54.059  1.00  0.00     0.314 HD
HETATM   24  H9  UNL     1      26.353   0.832  55.247  1.00  0.00     0.314 HD
ENDBRANCH   7  22
ENDBRANCH   3   4
TORSDOF 2
ENDMDL
MODEL 2
REMARK VINA RESULT:      -7.5      1.481      1.734
REMARK  2 active torsions:
REMARK  status: ('A' for Active; 'I' for Inactive)
REMARK    1  A    between atoms: C3_3  and  N1_4 
REMARK    2  A    between atoms: C6_7  and  N2_8 
ROOT
HETATM    1  C1  UNL     1      25.173   5.747  48.908  1.00  0.00     0.014 C 
HETATM    2  C2  UNL     1      24.753   4.666  49.237  1.00  0.00    -0.098 C 
HETATM    3  C3  UNL     1      24.272   3.362  49.621  1.00  0.00     0.217 C 
ENDROOT
BRANCH   3   4
HETATM    4  N1  UNL     1      24.915   2.810  50.803  1.00  0.00    -0.355 N 
HETATM    5  C4  UNL     1      26.366   2.801  50.971  1.00  0.00     0.128 C 
HETATM    6  C5  UNL     1      26.823   1.579  51.679  1.00  0.00     0.067 C 
HETATM    7  C6  UNL     1      26.704   1.543  53.151  1.00  0.00     0.191 C 
HETATM    8  C7  UNL     1      25.467   2.218  53.690  1.00  0.00     0.133 C 
HETATM    9  C15 UNL     1      26.611   0.076  53.598  1.00  0.00     0.067 C 
HETATM   10  N3  UNL     1      24.252   2.297  53.191  1.00  0.00    -0.245 NA
HETATM   11  C8  UNL     1      23.966   2.286  51.770  1.00  0.00     0.123 C 
HETATM   12  C9  UNL     1      22.834   1.798  51.227  1.00  0.00     0.045 C 
HETATM   13  C10 UNL     1      21.517   1.163  51.411  1.00  0.00     0.180 C 
HETATM   14  N4  UNL     1      21.172   0.879  52.773  1.00  0.00    -0.288 N 
HETATM   15  C11 UNL     1      21.652  -0.074  53.495  1.00  0.00     0.058 A 
HETATM   16  O1  UNL     1      20.737   0.677  54.183  1.00  0.00     0.000 OA
HETATM   17  C12 UNL     1      22.680  -1.041  52.958  1.00  0.00     0.103 C 
HETATM   18  C13 UNL     1      23.956  -0.784  53.732  1.00  0.00    -0.023 A 
HETATM   19 BR1  UNL     1      24.554  -0.929  55.522  1.00  0.00    -0.126 Br
HETATM   20  C14 UNL     1      25.193  -0.364  53.567  1.00  0.00     0.090 A 
HETATM   21  H14 UNL     1      20.714   0.646  55.210  1.00  0.00     0.000 HD
BRANCH   7  22
HETATM   22  N2  UNL     1      27.889   2.067  53.788  1.00  0.00     0.093 N 
HETATM   23  H8  UNL     1      28.333   2.857  53.274  1.00  0.00     0.314 HD
HETATM   24  H9  UNL     1      28.595   1.306  53.983  1.00  0.00     0.314 HD
ENDBRANCH   7  22
ENDBRANCH   3   4
TORSDOF 2
ENDMDL
MODEL 3
REMARK VINA RESULT:      -7.4      2.553      5.059
REMARK  2 active torsions:
REMARK  status: ('A' for Active; 'I' for Inactive)
REMARK    1  A    between atoms: C3_3  and  N1_4 
REMARK    2  A    between atoms: C6_7  and  N2_8 
ROOT
HETATM    1  C1  UNL     1      18.881   2.930  51.671  1.00  0.00     0.014 C 
HETATM    2  C2  UNL     1      19.819   2.184  51.547  1.00  0.00    -0.098 C 
HETATM    3  C3  UNL     1      20.945   1.299  51.375  1.00  0.00     0.217 C 
ENDROOT
BRANCH   3   4
HETATM    4  N1  UNL     1      22.239   1.962  51.403  1.00  0.00    -0.355 N 
HETATM    5  C4  UNL     1      22.589   3.033  50.473  1.00  0.00     0.128 C 
HETATM    6  C5  UNL     1      24.022   2.974  50.092  1.00  0.00     0.067 C 
HETATM    7  C6  UNL     1      25.015   3.535  51.031  1.00  0.00     0.191 C 
HETATM    8  C7  UNL     1      24.689   3.307  52.487  1.00  0.00     0.133 C 
HETATM    9  C15 UNL     1      26.364   2.840  50.788  1.00  0.00     0.067 C 
HETATM   10  N3  UNL     1      24.104   2.290  53.081  1.00  0.00    -0.245 NA
HETATM   11  C8  UNL     1      23.116   1.446  52.440  1.00  0.00     0.123 C 
HETATM   12  C9  UNL     1      22.926   0.144  52.729  1.00  0.00     0.045 C 
HETATM   13  C10 UNL     1      23.300  -1.041  53.521  1.00  0.00     0.180 C 
HETATM   14  N4  UNL     1      24.363  -0.826  54.458  1.00  0.00    -0.288 N 
HETATM   15  C11 UNL     1      25.615  -0.711  54.174  1.00  0.00     0.058 A 
HETATM   16  O1  UNL     1      25.385  -0.605  55.519  1.00  0.00     0.000 OA
HETATM   17  C12 UNL     1      26.120  -0.792  52.753  1.00  0.00     0.103 C 
HETATM   18  C13 UNL     1      26.655   0.582  52.408  1.00  0.00    -0.023 A 
HETATM   19 BR1  UNL     1      28.054   1.720  52.986  1.00  0.00    -0.126 Br
HETATM   20  C14 UNL     1      26.437   1.599  51.601  1.00  0.00     0.090 A 
HETATM   21  H14 UNL     1      26.091  -0.175  56.130  1.00  0.00     0.000 HD
BRANCH   7  22
HETATM   22  N2  UNL     1      25.250   4.936  50.774  1.00  0.00     0.093 N 
HETATM   23  H8  UNL     1      26.022   5.348  51.340  1.00  0.00     0.314 HD
HETATM   24  H9  UNL     1      24.366   5.505  50.878  1.00  0.00     0.314 HD
ENDBRANCH   7  22
ENDBRANCH   3   4
TORSDOF 2
ENDMDL
MODEL 4
REMARK VINA RESULT:      -7.1      2.338      4.510
REMARK  2 active torsions:
REMARK  status: ('A' for Active; 'I' for Inactive)
REMARK    1  A    between atoms: C3_3  and  N1_4 
REMARK    2  A    between atoms: C6_7  and  N2_8 
ROOT
HETATM    1  C1  UNL     1      26.946  -1.734  52.701  1.00  0.00     0.014 C 
HETATM    2  C2  UNL     1      26.408  -0.692  52.985  1.00  0.00    -0.098 C 
HETATM    3  C3  UNL     1      25.761   0.557  53.299  1.00  0.00     0.217 C 
ENDROOT
BRANCH   3   4
HETATM    4  N1  UNL     1      24.311   0.528  53.179  1.00  0.00    -0.355 N 
HETATM    5  C4  UNL     1      23.494  -0.497  53.823  1.00  0.00     0.128 C 
HETATM    6  C5  UNL     1      22.324  -0.864  52.986  1.00  0.00     0.067 C 
HETATM    7  C6  UNL     1      21.143   0.023  53.015  1.00  0.00     0.191 C 
HETATM    8  C7  UNL     1      21.473   1.492  53.114  1.00  0.00     0.133 C 
HETATM    9  C15 UNL     1      20.373  -0.147  51.696  1.00  0.00     0.067 C 
HETATM   10  N3  UNL     1      22.477   2.177  52.612  1.00  0.00    -0.245 NA
HETATM   11  C8  UNL     1      23.789   1.613  52.366  1.00  0.00     0.123 C 
HETATM   12  C9  UNL     1      24.622   2.024  51.390  1.00  0.00     0.045 C 
HETATM   13  C10 UNL     1      24.890   2.926  50.256  1.00  0.00     0.180 C 
HETATM   14  N4  UNL     1      23.831   3.844  49.954  1.00  0.00    -0.288 N 
HETATM   15  C11 UNL     1      22.720   3.556  49.369  1.00  0.00     0.058 A 
HETATM   16  O1  UNL     1      22.798   4.884  49.691  1.00  0.00     0.000 OA
HETATM   17  C12 UNL     1      22.398   2.152  48.916  1.00  0.00     0.103 C 
HETATM   18  C13 UNL     1      21.238   1.681  49.767  1.00  0.00    -0.023 A 
HETATM   19 BR1  UNL     1      19.426   2.155  50.039  1.00  0.00    -0.126 Br
HETATM   20  C14 UNL     1      20.926   0.780  50.675  1.00  0.00     0.090 A 
HETATM   21  H14 UNL     1      21.945   5.455  49.732  1.00  0.00     0.000 HD
BRANCH   7  22
HETATM   22  N2  UNL     1      20.220  -0.365  54.054  1.00  0.00     0.093 N 
HETATM   23  H8  UNL     1      20.678  -0.742  54.911  1.00  0.00     0.314 HD
HETATM   24  H9  UNL     1      19.490  -1.039  53.695  1.00  0.00     0.314 HD
ENDBRANCH   7  22
ENDBRANCH   3   4
TORSDOF 2
ENDMDL
MODEL 5
REMARK VINA RESULT:      -7.1      3.221      6.217
REMARK  2 active torsions:
REMARK  status: ('A' for Active; 'I' for Inactive)
REMARK    1  A    between atoms: C3_3  and  N1_4 
REMARK    2  A    between atoms: C6_7  and  N2_8 
ROOT
HETATM    1  C1  UNL     1      19.417   0.246  51.662  1.00  0.00     0.014 C 
HETATM    2  C2  UNL     1      20.345   0.774  52.221  1.00  0.00    -0.098 C 
HETATM    3  C3  UNL     1      21.470   1.401  52.870  1.00  0.00     0.217 C 
ENDROOT
BRANCH   3   4
HETATM    4  N1  UNL     1      21.823   2.706  52.333  1.00  0.00    -0.355 N 
HETATM    5  C4  UNL     1      20.815   3.688  51.941  1.00  0.00     0.128 C 
HETATM    6  C5  UNL     1      21.247   4.465  50.753  1.00  0.00     0.067 C 
HETATM    7  C6  UNL     1      22.186   5.587  50.960  1.00  0.00     0.191 C 
HETATM    8  C7  UNL     1      23.227   5.337  52.023  1.00  0.00     0.133 C 
HETATM    9  C15 UNL     1      22.964   5.819  49.656  1.00  0.00     0.067 C 
HETATM   10  N3  UNL     1      23.844   4.227  52.369  1.00  0.00    -0.245 NA
HETATM   11  C8  UNL     1      23.258   2.909  52.237  1.00  0.00     0.123 C 
HETATM   12  C9  UNL     1      23.963   1.782  52.015  1.00  0.00     0.045 C 
HETATM   13  C10 UNL     1      25.268   1.130  51.807  1.00  0.00     0.180 C 
HETATM   14  N4  UNL     1      26.393   2.018  51.826  1.00  0.00    -0.288 N 
HETATM   15  C11 UNL     1      26.733   2.834  50.888  1.00  0.00     0.058 A 
HETATM   16  O1  UNL     1      27.589   2.897  51.955  1.00  0.00     0.000 OA
HETATM   17  C12 UNL     1      25.943   2.949  49.607  1.00  0.00     0.103 C 
HETATM   18  C13 UNL     1      25.331   4.334  49.602  1.00  0.00    -0.023 A 
HETATM   19 BR1  UNL     1      25.937   6.126  49.550  1.00  0.00    -0.126 Br
HETATM   20  C14 UNL     1      24.164   4.944  49.631  1.00  0.00     0.090 A 
HETATM   21  H14 UNL     1      28.200   3.714  52.078  1.00  0.00     0.000 HD
BRANCH   7  22
HETATM   22  N2  UNL     1      21.483   6.821  51.215  1.00  0.00     0.093 N 
HETATM   23  H8  UNL     1      20.460   6.776  51.020  1.00  0.00     0.314 HD
HETATM   24  H9  UNL     1      21.923   7.634  50.704  1.00  0.00     0.314 HD
ENDBRANCH   7  22
ENDBRANCH   3   4
TORSDOF 2
ENDMDL
MODEL 6
REMARK VINA RESULT:      -6.9      1.091      1.142
REMARK  2 active torsions:
REMARK  status: ('A' for Active; 'I' for Inactive)
REMARK    1  A    between atoms: C3_3  and  N1_4 
REMARK    2  A    between atoms: C6_7  and  N2_8 
ROOT
HETATM    1  C1  UNL     1      25.613   6.758  48.964  1.00  0.00     0.014 C 
HETATM    2  C2  UNL     1      25.122   5.657  48.974  1.00  0.00    -0.098 C 
HETATM    3  C3  UNL     1      24.559   4.330  48.984  1.00  0.00     0.217 C 
ENDROOT
BRANCH   3   4
HETATM    4  N1  UNL     1      24.679   3.637  50.258  1.00  0.00    -0.355 N 
HETATM    5  C4  UNL     1      25.972   3.357  50.876  1.00  0.00     0.128 C 
HETATM    6  C5  UNL     1      25.964   2.053  51.586  1.00  0.00     0.067 C 
HETATM    7  C6  UNL     1      25.365   2.001  52.935  1.00  0.00     0.191 C 
HETATM    8  C7  UNL     1      24.148   2.876  53.109  1.00  0.00     0.133 C 
HETATM    9  C15 UNL     1      24.891   0.564  53.202  1.00  0.00     0.067 C 
HETATM   10  N3  UNL     1      23.195   3.190  52.258  1.00  0.00    -0.245 NA
HETATM   11  C8  UNL     1      23.393   3.270  50.825  1.00  0.00     0.123 C 
HETATM   12  C9  UNL     1      22.437   3.013  49.911  1.00  0.00     0.045 C 
HETATM   13  C10 UNL     1      21.047   2.626  49.612  1.00  0.00     0.180 C 
HETATM   14  N4  UNL     1      20.233   2.374  50.764  1.00  0.00    -0.288 N 
HETATM   15  C11 UNL     1      20.285   1.329  51.517  1.00  0.00     0.058 A 
HETATM   16  O1  UNL     1      19.333   2.216  51.941  1.00  0.00     0.000 OA
HETATM   17  C12 UNL     1      21.259   0.205  51.254  1.00  0.00     0.103 C 
HETATM   18  C13 UNL     1      22.234   0.202  52.412  1.00  0.00    -0.023 A 
HETATM   19 BR1  UNL     1      22.181  -0.098  54.280  1.00  0.00    -0.126 Br
HETATM   20  C14 UNL     1      23.509   0.393  52.685  1.00  0.00     0.090 A 
HETATM   21  H14 UNL     1      18.970   2.163  52.900  1.00  0.00     0.000 HD
BRANCH   7  22
HETATM   22  N2  UNL     1      26.345   2.280  53.957  1.00  0.00     0.093 N 
HETATM   23  H8  UNL     1      25.942   2.665  54.838  1.00  0.00     0.314 HD
HETATM   24  H9  UNL     1      27.116   2.905  53.597  1.00  0.00     0.314 HD
ENDBRANCH   7  22
ENDBRANCH   3   4
TORSDOF 2
ENDMDL
MODEL 7
REMARK VINA RESULT:      -6.7      2.781      4.589
REMARK  2 active torsions:
REMARK  status: ('A' for Active; 'I' for Inactive)
REMARK    1  A    between atoms: C3_3  and  N1_4 
REMARK    2  A    between atoms: C6_7  and  N2_8 
ROOT
HETATM    1  C1  UNL     1      26.167  -0.839  53.857  1.00  0.00     0.014 C 
HETATM    2  C2  UNL     1      25.048  -0.521  53.540  1.00  0.00    -0.098 C 
HETATM    3  C3  UNL     1      23.709  -0.124  53.180  1.00  0.00     0.217 C 
ENDROOT
BRANCH   3   4
HETATM    4  N1  UNL     1      23.618   1.192  52.568  1.00  0.00    -0.355 N 
HETATM    5  C4  UNL     1      24.591   2.248  52.834  1.00  0.00     0.128 C 
HETATM    6  C5  UNL     1      23.949   3.586  52.857  1.00  0.00     0.067 C 
HETATM    7  C6  UNL     1      23.667   4.243  51.564  1.00  0.00     0.191 C 
HETATM    8  C7  UNL     1      23.232   3.299  50.471  1.00  0.00     0.133 C 
HETATM    9  C15 UNL     1      22.501   5.225  51.761  1.00  0.00     0.067 C 
HETATM   10  N3  UNL     1      22.510   2.200  50.528  1.00  0.00    -0.245 NA
HETATM   11  C8  UNL     1      22.474   1.325  51.682  1.00  0.00     0.123 C 
HETATM   12  C9  UNL     1      21.410   0.578  52.036  1.00  0.00     0.045 C 
HETATM   13  C10 UNL     1      20.026   0.146  51.770  1.00  0.00     0.180 C 
HETATM   14  N4  UNL     1      19.423   0.739  50.613  1.00  0.00    -0.288 N 
HETATM   15  C11 UNL     1      18.987   1.948  50.518  1.00  0.00     0.058 A 
HETATM   16  O1  UNL     1      18.812   1.250  49.354  1.00  0.00     0.000 OA
HETATM   17  C12 UNL     1      19.069   2.917  51.673  1.00  0.00     0.103 C 
HETATM   18  C13 UNL     1      20.040   4.001  51.256  1.00  0.00    -0.023 A 
HETATM   19 BR1  UNL     1      20.136   5.354  49.935  1.00  0.00    -0.126 Br
HETATM   20  C14 UNL     1      21.213   4.510  51.571  1.00  0.00     0.090 A 
HETATM   21  H14 UNL     1      18.652   1.751  48.472  1.00  0.00     0.000 HD
BRANCH   7  22
HETATM   22  N2  UNL     1      24.782   5.049  51.129  1.00  0.00     0.093 N 
HETATM   23  H8  UNL     1      25.436   4.557  50.484  1.00  0.00     0.314 HD
HETATM   24  H9  UNL     1      25.307   5.462  51.948  1.00  0.00     0.314 HD
ENDBRANCH   7  22
ENDBRANCH   3   4
TORSDOF 2
ENDMDL
MODEL 8
REMARK VINA RESULT:      -6.5      3.582      5.396
REMARK  2 active torsions:
REMARK  status: ('A' for Active; 'I' for Inactive)
REMARK    1  A    between atoms: C3_3  and  N1_4 
REMARK    2  A    between atoms: C6_7  and  N2_8 
ROOT
HETATM    1  C1  UNL     1      25.898   0.227  52.993  1.00  0.00     0.014 C 
HETATM    2  C2  UNL     1      24.863   0.633  52.525  1.00  0.00    -0.098 C 
HETATM    3  C3  UNL     1      23.621   1.129  51.988  1.00  0.00     0.217 C 
ENDROOT
BRANCH   3   4
HETATM    4  N1  UNL     1      23.617   2.555  51.703  1.00  0.00    -0.355 N 
HETATM    5  C4  UNL     1      23.899   3.558  52.728  1.00  0.00     0.128 C 
HETATM    6  C5  UNL     1      23.083   4.782  52.529  1.00  0.00     0.067 C 
HETATM    7  C6  UNL     1      23.534   5.761  51.519  1.00  0.00     0.191 C 
HETATM    8  C7  UNL     1      24.145   5.144  50.285  1.00  0.00     0.133 C 
HETATM    9  C15 UNL     1      22.313   6.557  51.032  1.00  0.00     0.067 C 
HETATM   10  N3  UNL     1      23.852   4.025  49.657  1.00  0.00    -0.245 NA
HETATM   11  C8  UNL     1      23.310   2.854  50.315  1.00  0.00     0.123 C 
HETATM   12  C9  UNL     1      22.491   1.962  49.725  1.00  0.00     0.045 C 
HETATM   13  C10 UNL     1      21.755   1.524  48.525  1.00  0.00     0.180 C 
HETATM   14  N4  UNL     1      21.902   2.380  47.385  1.00  0.00    -0.288 N 
HETATM   15  C11 UNL     1      21.344   3.530  47.220  1.00  0.00     0.058 A 
HETATM   16  O1  UNL     1      22.128   3.186  46.152  1.00  0.00     0.000 OA
HETATM   17  C12 UNL     1      20.430   4.128  48.262  1.00  0.00     0.103 C 
HETATM   18  C13 UNL     1      21.137   5.355  48.800  1.00  0.00    -0.023 A 
HETATM   19 BR1  UNL     1      21.711   7.034  48.141  1.00  0.00    -0.126 Br
HETATM   20  C14 UNL     1      21.668   5.835  49.905  1.00  0.00     0.090 A 
HETATM   21  H14 UNL     1      22.447   3.907  45.494  1.00  0.00     0.000 HD
BRANCH   7  22
HETATM   22  N2  UNL     1      24.427   6.738  52.096  1.00  0.00     0.093 N 
HETATM   23  H8  UNL     1      24.496   6.689  53.135  1.00  0.00     0.314 HD
HETATM   24  H9  UNL     1      24.186   7.718  51.784  1.00  0.00     0.314 HD
ENDBRANCH   7  22
ENDBRANCH   3   4
TORSDOF 2
ENDMDL
MODEL 9
REMARK VINA RESULT:      -6.5      2.148      3.745
REMARK  2 active torsions:
REMARK  status: ('A' for Active; 'I' for Inactive)
REMARK    1  A    between atoms: C3_3  and  N1_4 
REMARK    2  A    between atoms: C6_7  and  N2_8 
ROOT
HETATM    1  C1  UNL     1      20.182   3.316  47.046  1.00  0.00     0.014 C 
HETATM    2  C2  UNL     1      20.192   3.363  48.251  1.00  0.00    -0.098 C 
HETATM    3  C3  UNL     1      20.207   3.394  49.692  1.00  0.00     0.217 C 
ENDROOT
BRANCH   3   4
HETATM    4  N1  UNL     1      21.533   3.279  50.280  1.00  0.00    -0.355 N 
HETATM    5  C4  UNL     1      22.723   3.835  49.640  1.00  0.00     0.128 C 
HETATM    6  C5  UNL     1      23.912   2.975  49.863  1.00  0.00     0.067 C 
HETATM    7  C6  UNL     1      24.618   3.087  51.156  1.00  0.00     0.191 C 
HETATM    8  C7  UNL     1      23.711   3.314  52.340  1.00  0.00     0.133 C 
HETATM    9  C15 UNL     1      25.346   1.762  51.431  1.00  0.00     0.067 C 
HETATM   10  N3  UNL     1      22.497   2.868  52.583  1.00  0.00    -0.245 NA
HETATM   11  C8  UNL     1      21.531   2.567  51.546  1.00  0.00     0.123 C 
HETATM   12  C9  UNL     1      20.572   1.626  51.650  1.00  0.00     0.045 C 
HETATM   13  C10 UNL     1      19.917   0.574  52.448  1.00  0.00     0.180 C 
HETATM   14  N4  UNL     1      20.488   0.360  53.745  1.00  0.00    -0.288 N 
HETATM   15  C11 UNL     1      21.600  -0.244  53.995  1.00  0.00     0.058 A 
HETATM   16  O1  UNL     1      20.987   0.193  55.139  1.00  0.00     0.000 OA
HETATM   17  C12 UNL     1      22.461  -0.816  52.895  1.00  0.00     0.103 C 
HETATM   18  C13 UNL     1      23.739  -0.003  52.883  1.00  0.00    -0.023 A 
HETATM   19 BR1  UNL     1      25.198   0.318  54.045  1.00  0.00    -0.126 Br
HETATM   20  C14 UNL     1      24.426   0.824  52.123  1.00  0.00     0.090 A 
HETATM   21  H14 UNL     1      21.527   0.288  56.007  1.00  0.00     0.000 HD
BRANCH   7  22
HETATM   22  N2  UNL     1      25.651   4.093  51.105  1.00  0.00     0.093 N 
HETATM   23  H8  UNL     1      26.027   4.364  52.039  1.00  0.00     0.314 HD
HETATM   24  H9  UNL     1      25.338   4.947  50.568  1.00  0.00     0.314 HD
ENDBRANCH   7  22
ENDBRANCH   3   4
TORSDOF 2
ENDMDL
