MODEL 1
REMARK VINA RESULT:      -7.6      0.000      0.000
REMARK  6 active torsions:
REMARK  status: ('A' for Active; 'I' for Inactive)
REMARK    1  A    between atoms: C2_2  and  N1_3 
REMARK    2  A    between atoms: N2_6  and  C5_7 
REMARK    3  A    between atoms: C8_10  and  N3_11 
REMARK    4  A    between atoms: N3_11  and  C9_12 
REMARK    5  A    between atoms: C11_14  and  N4_15 
REMARK    6  A    between atoms: N4_15  and  C13_17 
ROOT
HETATM    1  C5  UNL     1      23.884  -0.550  53.705  1.00  0.00     0.030 A 
HETATM    2  C6  UNL     1      23.286  -1.190  54.767  1.00  0.00     0.031 A 
HETATM    3  C7  UNL     1      21.936  -1.203  54.955  1.00  0.00     0.032 A 
HETATM    4  C8  UNL     1      21.179  -0.528  54.011  1.00  0.00     0.033 A 
HETATM    5  C15 UNL     1      21.739   0.125  52.932  1.00  0.00     0.032 A 
HETATM    6  C16 UNL     1      23.126   0.128  52.754  1.00  0.00     0.031 A 
ENDROOT
BRANCH   4   7
HETATM    7  N3  UNL     1      19.769  -0.530  54.153  1.00  0.00    -0.341 N 
HETATM    8  H12 UNL     1      19.326  -0.155  55.026  1.00  0.00     0.167 HD
BRANCH   7   9
HETATM    9  C9  UNL     1      18.631  -0.935  53.390  1.00  0.00     0.133 A 
HETATM   10  C10 UNL     1      17.849  -2.081  53.540  1.00  0.00     0.101 A 
HETATM   11  C11 UNL     1      16.779  -2.260  52.687  1.00  0.00     0.136 A 
HETATM   12  N5  UNL     1      16.509  -1.328  51.728  1.00  0.00    -0.224 NA
HETATM   13  C14 UNL     1      17.278  -0.238  51.609  1.00  0.00     0.237 A 
HETATM   14  N6  UNL     1      18.330  -0.025  52.421  1.00  0.00    -0.224 NA
BRANCH  11  15
HETATM   15  N4  UNL     1      16.010  -3.443  52.874  1.00  0.00    -0.314 N 
HETATM   16  C12 UNL     1      14.671  -3.649  52.360  1.00  0.00     0.160 C 
BRANCH  15  17
HETATM   17  C13 UNL     1      16.563  -4.524  53.615  1.00  0.00     0.356 C 
HETATM   18  O1  UNL     1      16.060  -5.077  54.653  1.00  0.00    -0.283 OA
ENDBRANCH  15  17
ENDBRANCH  11  15
ENDBRANCH   7   9
ENDBRANCH   4   7
BRANCH   1  19
HETATM   19  N2  UNL     1      25.302  -0.634  53.673  1.00  0.00    -0.378 N 
HETATM   20  C4  UNL     1      26.270  -1.160  52.741  1.00  0.00     0.142 C 
HETATM   21  C3  UNL     1      27.494  -0.371  52.541  1.00  0.00     0.136 C 
HETATM   22  N1  UNL     1      27.796   0.690  53.425  1.00  0.00    -0.410 N 
HETATM   23  C18 UNL     1      26.697   1.174  54.212  1.00  0.00     0.136 C 
HETATM   24  C17 UNL     1      25.995  -0.052  54.810  1.00  0.00     0.142 C 
BRANCH  22  25
HETATM   25  C2  UNL     1      29.024   0.569  54.169  1.00  0.00     0.112 C 
HETATM   26  C1  UNL     1      29.827  -0.662  53.810  1.00  0.00     0.026 C 
ENDBRANCH  22  25
ENDBRANCH   1  19
TORSDOF 6
ENDMDL
MODEL 2
REMARK VINA RESULT:      -7.3      2.088      2.836
REMARK  6 active torsions:
REMARK  status: ('A' for Active; 'I' for Inactive)
REMARK    1  A    between atoms: C2_2  and  N1_3 
REMARK    2  A    between atoms: N2_6  and  C5_7 
REMARK    3  A    between atoms: C8_10  and  N3_11 
REMARK    4  A    between atoms: N3_11  and  C9_12 
REMARK    5  A    between atoms: C11_14  and  N4_15 
REMARK    6  A    between atoms: N4_15  and  C13_17 
ROOT
HETATM    1  C5  UNL     1      23.917  -0.538  53.708  1.00  0.00     0.030 A 
HETATM    2  C6  UNL     1      23.261  -1.213  54.713  1.00  0.00     0.031 A 
HETATM    3  C7  UNL     1      21.906  -1.196  54.852  1.00  0.00     0.032 A 
HETATM    4  C8  UNL     1      21.204  -0.452  53.917  1.00  0.00     0.033 A 
HETATM    5  C15 UNL     1      21.822   0.239  52.895  1.00  0.00     0.032 A 
HETATM    6  C16 UNL     1      23.214   0.209  52.767  1.00  0.00     0.031 A 
ENDROOT
BRANCH   4   7
HETATM    7  N3  UNL     1      19.790  -0.419  54.008  1.00  0.00    -0.341 N 
HETATM    8  H12 UNL     1      19.325  -0.134  54.904  1.00  0.00     0.167 HD
BRANCH   7   9
HETATM    9  C9  UNL     1      18.671  -0.690  53.163  1.00  0.00     0.133 A 
HETATM   10  C10 UNL     1      18.327  -0.082  51.955  1.00  0.00     0.101 A 
HETATM   11  C11 UNL     1      17.195  -0.522  51.299  1.00  0.00     0.136 A 
HETATM   12  N5  UNL     1      16.444  -1.525  51.834  1.00  0.00    -0.224 NA
HETATM   13  C14 UNL     1      16.799  -2.090  52.996  1.00  0.00     0.237 A 
HETATM   14  N6  UNL     1      17.895  -1.692  53.667  1.00  0.00    -0.224 NA
BRANCH  11  15
HETATM   15  N4  UNL     1      16.882   0.128  50.072  1.00  0.00    -0.314 N 
HETATM   16  C12 UNL     1      16.087  -0.452  49.008  1.00  0.00     0.160 C 
BRANCH  15  17
HETATM   17  C13 UNL     1      17.369   1.443  49.835  1.00  0.00     0.356 C 
HETATM   18  O1  UNL     1      16.672   2.484  49.580  1.00  0.00    -0.283 OA
ENDBRANCH  15  17
ENDBRANCH  11  15
ENDBRANCH   7   9
ENDBRANCH   4   7
BRANCH   1  19
HETATM   19  N2  UNL     1      25.332  -0.663  53.722  1.00  0.00    -0.378 N 
HETATM   20  C4  UNL     1      26.308  -1.285  52.861  1.00  0.00     0.142 C 
HETATM   21  C3  UNL     1      27.559  -0.547  52.636  1.00  0.00     0.136 C 
HETATM   22  N1  UNL     1      27.869   0.571  53.442  1.00  0.00    -0.410 N 
HETATM   23  C18 UNL     1      26.764   1.144  54.159  1.00  0.00     0.136 C 
HETATM   24  C17 UNL     1      26.012  -0.012  54.830  1.00  0.00     0.142 C 
BRANCH  22  25
HETATM   25  C2  UNL     1      29.072   0.476  54.228  1.00  0.00     0.112 C 
HETATM   26  C1  UNL     1      29.928  -0.722  53.877  1.00  0.00     0.026 C 
ENDBRANCH  22  25
ENDBRANCH   1  19
TORSDOF 6
ENDMDL
MODEL 3
REMARK VINA RESULT:      -7.2      8.219     10.930
REMARK  6 active torsions:
REMARK  status: ('A' for Active; 'I' for Inactive)
REMARK    1  A    between atoms: C2_2  and  N1_3 
REMARK    2  A    between atoms: N2_6  and  C5_7 
REMARK    3  A    between atoms: C8_10  and  N3_11 
REMARK    4  A    between atoms: N3_11  and  C9_12 
REMARK    5  A    between atoms: C11_14  and  N4_15 
REMARK    6  A    between atoms: N4_15  and  C13_17 
ROOT
HETATM    1  C5  UNL     1      27.991   7.095  48.280  1.00  0.00     0.030 A 
HETATM    2  C6  UNL     1      28.576   5.850  48.227  1.00  0.00     0.031 A 
HETATM    3  C7  UNL     1      27.929   4.713  48.608  1.00  0.00     0.032 A 
HETATM    4  C8  UNL     1      26.629   4.871  49.062  1.00  0.00     0.033 A 
HETATM    5  C15 UNL     1      26.005   6.100  49.130  1.00  0.00     0.032 A 
HETATM    6  C16 UNL     1      26.685   7.256  48.734  1.00  0.00     0.031 A 
ENDROOT
BRANCH   4   7
HETATM    7  N3  UNL     1      25.908   3.715  49.452  1.00  0.00    -0.341 N 
HETATM    8  H12 UNL     1      25.343   3.182  48.747  1.00  0.00     0.167 HD
BRANCH   7   9
HETATM    9  C9  UNL     1      25.679   2.966  50.647  1.00  0.00     0.133 A 
HETATM   10  C10 UNL     1      26.617   2.475  51.556  1.00  0.00     0.101 A 
HETATM   11  C11 UNL     1      26.159   1.783  52.660  1.00  0.00     0.136 A 
HETATM   12  N5  UNL     1      24.821   1.594  52.838  1.00  0.00    -0.224 NA
HETATM   13  C14 UNL     1      23.944   2.078  51.947  1.00  0.00     0.237 A 
HETATM   14  N6  UNL     1      24.349   2.759  50.859  1.00  0.00    -0.224 NA
BRANCH  11  15
HETATM   15  N4  UNL     1      27.150   1.299  53.559  1.00  0.00    -0.314 N 
HETATM   16  C12 UNL     1      26.919   0.303  54.586  1.00  0.00     0.160 C 
BRANCH  15  17
HETATM   17  C13 UNL     1      28.476   1.807  53.476  1.00  0.00     0.356 C 
HETATM   18  O1  UNL     1      29.069   2.544  54.336  1.00  0.00    -0.283 OA
ENDBRANCH  15  17
ENDBRANCH  11  15
ENDBRANCH   7   9
ENDBRANCH   4   7
BRANCH   1  19
HETATM   19  N2  UNL     1      28.817   8.168  47.849  1.00  0.00    -0.378 N 
HETATM   20  C4  UNL     1      29.066   8.818  46.585  1.00  0.00     0.142 C 
HETATM   21  C3  UNL     1      29.206  10.280  46.609  1.00  0.00     0.136 C 
HETATM   22  N1  UNL     1      29.355  10.951  47.844  1.00  0.00    -0.410 N 
HETATM   23  C18 UNL     1      28.964  10.204  49.007  1.00  0.00     0.136 C 
HETATM   24  C17 UNL     1      29.603   8.814  48.887  1.00  0.00     0.142 C 
BRANCH  22  25
HETATM   25  C2  UNL     1      30.577  11.691  48.024  1.00  0.00     0.112 C 
HETATM   26  C1  UNL     1      30.563  12.590  49.241  1.00  0.00     0.026 C 
ENDBRANCH  22  25
ENDBRANCH   1  19
TORSDOF 6
ENDMDL
MODEL 4
REMARK VINA RESULT:      -7.1      1.901      2.766
REMARK  6 active torsions:
REMARK  status: ('A' for Active; 'I' for Inactive)
REMARK    1  A    between atoms: C2_2  and  N1_3 
REMARK    2  A    between atoms: N2_6  and  C5_7 
REMARK    3  A    between atoms: C8_10  and  N3_11 
REMARK    4  A    between atoms: N3_11  and  C9_12 
REMARK    5  A    between atoms: C11_14  and  N4_15 
REMARK    6  A    between atoms: N4_15  and  C13_17 
ROOT
HETATM    1  C5  UNL     1      22.894   0.032  53.321  1.00  0.00     0.030 A 
HETATM    2  C6  UNL     1      22.699  -0.703  54.470  1.00  0.00     0.031 A 
HETATM    3  C7  UNL     1      21.521  -1.323  54.759  1.00  0.00     0.032 A 
HETATM    4  C8  UNL     1      20.507  -1.176  53.826  1.00  0.00     0.033 A 
HETATM    5  C15 UNL     1      20.659  -0.449  52.664  1.00  0.00     0.032 A 
HETATM    6  C16 UNL     1      21.876   0.180  52.383  1.00  0.00     0.031 A 
ENDROOT
BRANCH   4   7
HETATM    7  N3  UNL     1      19.267  -1.818  54.074  1.00  0.00    -0.341 N 
HETATM    8  H12 UNL     1      19.149  -2.430  54.916  1.00  0.00     0.167 HD
BRANCH   7   9
HETATM    9  C9  UNL     1      17.982  -1.905  53.457  1.00  0.00     0.133 A 
HETATM   10  C10 UNL     1      17.266  -0.905  52.798  1.00  0.00     0.101 A 
HETATM   11  C11 UNL     1      16.034  -1.227  52.262  1.00  0.00     0.136 A 
HETATM   12  N5  UNL     1      15.547  -2.494  52.386  1.00  0.00    -0.224 NA
HETATM   13  C14 UNL     1      16.258  -3.433  53.025  1.00  0.00     0.237 A 
HETATM   14  N6  UNL     1      17.463  -3.162  53.560  1.00  0.00    -0.224 NA
BRANCH  11  15
HETATM   15  N4  UNL     1      15.338  -0.176  51.600  1.00  0.00    -0.314 N 
HETATM   16  C12 UNL     1      15.698   0.367  50.306  1.00  0.00     0.160 C 
BRANCH  15  17
HETATM   17  C13 UNL     1      14.202   0.410  52.225  1.00  0.00     0.356 C 
HETATM   18  O1  UNL     1      14.021   0.582  53.479  1.00  0.00    -0.283 OA
ENDBRANCH  15  17
ENDBRANCH  11  15
ENDBRANCH   7   9
ENDBRANCH   4   7
BRANCH   1  19
HETATM   19  N2  UNL     1      24.184   0.613  53.189  1.00  0.00    -0.378 N 
HETATM   20  C4  UNL     1      24.691   1.962  53.124  1.00  0.00     0.142 C 
HETATM   21  C3  UNL     1      25.940   2.235  53.848  1.00  0.00     0.136 C 
HETATM   22  N1  UNL     1      26.715   1.161  54.341  1.00  0.00    -0.410 N 
HETATM   23  C18 UNL     1      26.034  -0.099  54.446  1.00  0.00     0.136 C 
HETATM   24  C17 UNL     1      25.293  -0.324  53.121  1.00  0.00     0.142 C 
BRANCH  22  25
HETATM   25  C2  UNL     1      28.052   1.046  53.816  1.00  0.00     0.112 C 
HETATM   26  C1  UNL     1      28.721   2.381  53.576  1.00  0.00     0.026 C 
ENDBRANCH  22  25
ENDBRANCH   1  19
TORSDOF 6
ENDMDL
MODEL 5
REMARK VINA RESULT:      -7.0      6.968      9.851
REMARK  6 active torsions:
REMARK  status: ('A' for Active; 'I' for Inactive)
REMARK    1  A    between atoms: C2_2  and  N1_3 
REMARK    2  A    between atoms: N2_6  and  C5_7 
REMARK    3  A    between atoms: C8_10  and  N3_11 
REMARK    4  A    between atoms: N3_11  and  C9_12 
REMARK    5  A    between atoms: C11_14  and  N4_15 
REMARK    6  A    between atoms: N4_15  and  C13_17 
ROOT
HETATM    1  C5  UNL     1      26.429   5.653  49.210  1.00  0.00     0.030 A 
HETATM    2  C6  UNL     1      27.036   4.429  49.038  1.00  0.00     0.031 A 
HETATM    3  C7  UNL     1      26.556   3.281  49.593  1.00  0.00     0.032 A 
HETATM    4  C8  UNL     1      25.405   3.406  50.357  1.00  0.00     0.033 A 
HETATM    5  C15 UNL     1      24.766   4.613  50.554  1.00  0.00     0.032 A 
HETATM    6  C16 UNL     1      25.273   5.780  49.975  1.00  0.00     0.031 A 
ENDROOT
BRANCH   4   7
HETATM    7  N3  UNL     1      24.856   2.237  50.940  1.00  0.00    -0.341 N 
HETATM    8  H12 UNL     1      23.920   1.881  50.629  1.00  0.00     0.167 HD
BRANCH   7   9
HETATM    9  C9  UNL     1      25.220   1.286  51.942  1.00  0.00     0.133 A 
HETATM   10  C10 UNL     1      26.497   0.933  52.381  1.00  0.00     0.101 A 
HETATM   11  C11 UNL     1      26.608  -0.012  53.381  1.00  0.00     0.136 A 
HETATM   12  N5  UNL     1      25.486  -0.575  53.913  1.00  0.00    -0.224 NA
HETATM   13  C14 UNL     1      24.273  -0.217  53.471  1.00  0.00     0.237 A 
HETATM   14  N6  UNL     1      24.121   0.701  52.498  1.00  0.00    -0.224 NA
BRANCH  11  15
HETATM   15  N4  UNL     1      27.928  -0.342  53.796  1.00  0.00    -0.314 N 
HETATM   16  C12 UNL     1      28.678   0.369  54.812  1.00  0.00     0.160 C 
BRANCH  15  17
HETATM   17  C13 UNL     1      28.594  -1.445  53.192  1.00  0.00     0.356 C 
HETATM   18  O1  UNL     1      28.158  -2.642  53.092  1.00  0.00    -0.283 OA
ENDBRANCH  15  17
ENDBRANCH  11  15
ENDBRANCH   7   9
ENDBRANCH   4   7
BRANCH   1  19
HETATM   19  N2  UNL     1      27.074   6.741  48.562  1.00  0.00    -0.378 N 
HETATM   20  C4  UNL     1      28.361   6.939  47.942  1.00  0.00     0.142 C 
HETATM   21  C3  UNL     1      28.385   7.725  46.701  1.00  0.00     0.136 C 
HETATM   22  N1  UNL     1      27.241   8.458  46.313  1.00  0.00    -0.410 N 
HETATM   23  C18 UNL     1      26.011   8.069  46.946  1.00  0.00     0.136 C 
HETATM   24  C17 UNL     1      26.292   7.961  48.450  1.00  0.00     0.142 C 
BRANCH  22  25
HETATM   25  C2  UNL     1      27.403   9.885  46.207  1.00  0.00     0.112 C 
HETATM   26  C1  UNL     1      26.153  10.600  45.743  1.00  0.00     0.026 C 
ENDBRANCH  22  25
ENDBRANCH   1  19
TORSDOF 6
ENDMDL
MODEL 6
REMARK VINA RESULT:      -6.9      6.748      9.170
REMARK  6 active torsions:
REMARK  status: ('A' for Active; 'I' for Inactive)
REMARK    1  A    between atoms: C2_2  and  N1_3 
REMARK    2  A    between atoms: N2_6  and  C5_7 
REMARK    3  A    between atoms: C8_10  and  N3_11 
REMARK    4  A    between atoms: N3_11  and  C9_12 
REMARK    5  A    between atoms: C11_14  and  N4_15 
REMARK    6  A    between atoms: N4_15  and  C13_17 
ROOT
HETATM    1  C5  UNL     1      26.834   6.031  49.095  1.00  0.00     0.030 A 
HETATM    2  C6  UNL     1      27.210   4.717  48.922  1.00  0.00     0.031 A 
HETATM    3  C7  UNL     1      26.442   3.669  49.334  1.00  0.00     0.032 A 
HETATM    4  C8  UNL     1      25.243   3.994  49.948  1.00  0.00     0.033 A 
HETATM    5  C15 UNL     1      24.829   5.296  50.141  1.00  0.00     0.032 A 
HETATM    6  C16 UNL     1      25.630   6.358  49.711  1.00  0.00     0.031 A 
ENDROOT
BRANCH   4   7
HETATM    7  N3  UNL     1      24.400   2.937  50.378  1.00  0.00    -0.341 N 
HETATM    8  H12 UNL     1      23.503   2.740  49.873  1.00  0.00     0.167 HD
BRANCH   7   9
HETATM    9  C9  UNL     1      24.390   1.947  51.407  1.00  0.00     0.133 A 
HETATM   10  C10 UNL     1      25.462   1.217  51.920  1.00  0.00     0.101 A 
HETATM   11  C11 UNL     1      25.214   0.313  52.934  1.00  0.00     0.136 A 
HETATM   12  N5  UNL     1      23.947   0.153  53.408  1.00  0.00    -0.224 NA
HETATM   13  C14 UNL     1      22.937   0.869  52.895  1.00  0.00     0.237 A 
HETATM   14  N6  UNL     1      23.136   1.760  51.907  1.00  0.00    -0.224 NA
BRANCH  11  15
HETATM   15  N4  UNL     1      26.337  -0.411  53.425  1.00  0.00    -0.314 N 
HETATM   16  C12 UNL     1      26.913  -1.577  52.786  1.00  0.00     0.160 C 
BRANCH  15  17
HETATM   17  C13 UNL     1      26.965   0.010  54.630  1.00  0.00     0.356 C 
HETATM   18  O1  UNL     1      27.430   1.173  54.886  1.00  0.00    -0.283 OA
ENDBRANCH  15  17
ENDBRANCH  11  15
ENDBRANCH   7   9
ENDBRANCH   4   7
BRANCH   1  19
HETATM   19  N2  UNL     1      27.762   6.991  48.609  1.00  0.00    -0.378 N 
HETATM   20  C4  UNL     1      27.934   8.414  48.773  1.00  0.00     0.142 C 
HETATM   21  C3  UNL     1      29.311   8.902  48.923  1.00  0.00     0.136 C 
HETATM   22  N1  UNL     1      30.395   8.039  48.646  1.00  0.00    -0.410 N 
HETATM   23  C18 UNL     1      30.082   6.638  48.621  1.00  0.00     0.136 C 
HETATM   24  C17 UNL     1      28.822   6.472  47.761  1.00  0.00     0.142 C 
BRANCH  22  25
HETATM   25  C2  UNL     1      31.280   8.446  47.584  1.00  0.00     0.112 C 
HETATM   26  C1  UNL     1      32.348   7.424  47.266  1.00  0.00     0.026 C 
ENDBRANCH  22  25
ENDBRANCH   1  19
TORSDOF 6
ENDMDL
MODEL 7
REMARK VINA RESULT:      -6.9      7.214     11.669
REMARK  6 active torsions:
REMARK  status: ('A' for Active; 'I' for Inactive)
REMARK    1  A    between atoms: C2_2  and  N1_3 
REMARK    2  A    between atoms: N2_6  and  C5_7 
REMARK    3  A    between atoms: C8_10  and  N3_11 
REMARK    4  A    between atoms: N3_11  and  C9_12 
REMARK    5  A    between atoms: C11_14  and  N4_15 
REMARK    6  A    between atoms: N4_15  and  C13_17 
ROOT
HETATM    1  C5  UNL     1      24.295   3.198  51.184  1.00  0.00     0.030 A 
HETATM    2  C6  UNL     1      25.526   2.583  51.189  1.00  0.00     0.031 A 
HETATM    3  C7  UNL     1      26.545   2.963  50.367  1.00  0.00     0.032 A 
HETATM    4  C8  UNL     1      26.278   4.018  49.509  1.00  0.00     0.033 A 
HETATM    5  C15 UNL     1      25.058   4.662  49.472  1.00  0.00     0.032 A 
HETATM    6  C16 UNL     1      24.025   4.259  50.323  1.00  0.00     0.031 A 
ENDROOT
BRANCH   4   7
HETATM    7  N3  UNL     1      27.312   4.463  48.647  1.00  0.00    -0.341 N 
HETATM    8  H12 UNL     1      27.617   3.869  47.839  1.00  0.00     0.167 HD
BRANCH   7   9
HETATM    9  C9  UNL     1      28.171   5.597  48.527  1.00  0.00     0.133 A 
HETATM   10  C10 UNL     1      27.822   6.944  48.423  1.00  0.00     0.101 A 
HETATM   11  C11 UNL     1      28.834   7.878  48.330  1.00  0.00     0.136 A 
HETATM   12  N5  UNL     1      30.136   7.474  48.341  1.00  0.00    -0.224 NA
HETATM   13  C14 UNL     1      30.441   6.174  48.442  1.00  0.00     0.237 A 
HETATM   14  N6  UNL     1      29.485   5.231  48.536  1.00  0.00    -0.224 NA
BRANCH  11  15
HETATM   15  N4  UNL     1      28.432   9.239  48.224  1.00  0.00    -0.314 N 
HETATM   16  C12 UNL     1      28.288   9.964  46.977  1.00  0.00     0.160 C 
BRANCH  15  17
HETATM   17  C13 UNL     1      28.143   9.976  49.406  1.00  0.00     0.356 C 
HETATM   18  O1  UNL     1      27.221   9.728  50.256  1.00  0.00    -0.283 OA
ENDBRANCH  15  17
ENDBRANCH  11  15
ENDBRANCH   7   9
ENDBRANCH   4   7
BRANCH   1  19
HETATM   19  N2  UNL     1      23.352   2.665  52.103  1.00  0.00    -0.378 N 
HETATM   20  C4  UNL     1      21.937   2.838  52.327  1.00  0.00     0.142 C 
HETATM   21  C3  UNL     1      21.166   1.632  52.657  1.00  0.00     0.136 C 
HETATM   22  N1  UNL     1      21.842   0.438  52.995  1.00  0.00    -0.410 N 
HETATM   23  C18 UNL     1      23.224   0.377  52.611  1.00  0.00     0.136 C 
HETATM   24  C17 UNL     1      23.874   1.695  53.052  1.00  0.00     0.142 C 
BRANCH  22  25
HETATM   25  C2  UNL     1      21.592  -0.084  54.315  1.00  0.00     0.112 C 
HETATM   26  C1  UNL     1      21.371  -1.580  54.338  1.00  0.00     0.026 C 
ENDBRANCH  22  25
ENDBRANCH   1  19
TORSDOF 6
ENDMDL
MODEL 8
REMARK VINA RESULT:      -6.8      1.816      2.174
REMARK  6 active torsions:
REMARK  status: ('A' for Active; 'I' for Inactive)
REMARK    1  A    between atoms: C2_2  and  N1_3 
REMARK    2  A    between atoms: N2_6  and  C5_7 
REMARK    3  A    between atoms: C8_10  and  N3_11 
REMARK    4  A    between atoms: N3_11  and  C9_12 
REMARK    5  A    between atoms: C11_14  and  N4_15 
REMARK    6  A    between atoms: N4_15  and  C13_17 
ROOT
HETATM    1  C5  UNL     1      22.836  -0.201  53.371  1.00  0.00     0.030 A 
HETATM    2  C6  UNL     1      22.642  -1.128  54.370  1.00  0.00     0.031 A 
HETATM    3  C7  UNL     1      21.423  -1.669  54.648  1.00  0.00     0.032 A 
HETATM    4  C8  UNL     1      20.366  -1.233  53.865  1.00  0.00     0.033 A 
HETATM    5  C15 UNL     1      20.518  -0.306  52.854  1.00  0.00     0.032 A 
HETATM    6  C16 UNL     1      21.777   0.238  52.582  1.00  0.00     0.031 A 
ENDROOT
BRANCH   4   7
HETATM    7  N3  UNL     1      19.081  -1.780  54.104  1.00  0.00    -0.341 N 
HETATM    8  H12 UNL     1      18.894  -2.323  54.981  1.00  0.00     0.167 HD
BRANCH   7   9
HETATM    9  C9  UNL     1      17.816  -1.834  53.442  1.00  0.00     0.133 A 
HETATM   10  C10 UNL     1      17.038  -2.953  53.147  1.00  0.00     0.101 A 
HETATM   11  C11 UNL     1      15.830  -2.761  52.506  1.00  0.00     0.136 A 
HETATM   12  N5  UNL     1      15.427  -1.501  52.178  1.00  0.00    -0.224 NA
HETATM   13  C14 UNL     1      16.196  -0.445  52.474  1.00  0.00     0.237 A 
HETATM   14  N6  UNL     1      17.379  -0.589  53.099  1.00  0.00    -0.224 NA
BRANCH  11  15
HETATM   15  N4  UNL     1      15.070  -3.930  52.222  1.00  0.00    -0.314 N 
HETATM   16  C12 UNL     1      15.221  -5.200  52.904  1.00  0.00     0.160 C 
BRANCH  15  17
HETATM   17  C13 UNL     1      14.082  -3.889  51.200  1.00  0.00     0.356 C 
HETATM   18  O1  UNL     1      14.252  -4.149  49.960  1.00  0.00    -0.283 OA
ENDBRANCH  15  17
ENDBRANCH  11  15
ENDBRANCH   7   9
ENDBRANCH   4   7
BRANCH   1  19
HETATM   19  N2  UNL     1      24.174   0.259  53.227  1.00  0.00    -0.378 N 
HETATM   20  C4  UNL     1      25.469  -0.375  53.180  1.00  0.00     0.142 C 
HETATM   21  C3  UNL     1      26.433   0.161  52.209  1.00  0.00     0.136 C 
HETATM   22  N1  UNL     1      26.173   1.393  51.569  1.00  0.00    -0.410 N 
HETATM   23  C18 UNL     1      24.809   1.840  51.614  1.00  0.00     0.136 C 
HETATM   24  C17 UNL     1      24.333   1.695  53.065  1.00  0.00     0.142 C 
BRANCH  22  25
HETATM   25  C2  UNL     1      27.127   2.447  51.803  1.00  0.00     0.112 C 
HETATM   26  C1  UNL     1      27.982   2.224  53.031  1.00  0.00     0.026 C 
ENDBRANCH  22  25
ENDBRANCH   1  19
TORSDOF 6
ENDMDL
MODEL 9
REMARK VINA RESULT:      -6.8      7.675     12.705
REMARK  6 active torsions:
REMARK  status: ('A' for Active; 'I' for Inactive)
REMARK    1  A    between atoms: C2_2  and  N1_3 
REMARK    2  A    between atoms: N2_6  and  C5_7 
REMARK    3  A    between atoms: C8_10  and  N3_11 
REMARK    4  A    between atoms: N3_11  and  C9_12 
REMARK    5  A    between atoms: C11_14  and  N4_15 
REMARK    6  A    between atoms: N4_15  and  C13_17 
ROOT
HETATM    1  C5  UNL     1      25.200   4.103  49.995  1.00  0.00     0.030 A 
HETATM    2  C6  UNL     1      25.025   5.462  49.863  1.00  0.00     0.031 A 
HETATM    3  C7  UNL     1      25.947   6.271  49.268  1.00  0.00     0.032 A 
HETATM    4  C8  UNL     1      27.092   5.650  48.795  1.00  0.00     0.033 A 
HETATM    5  C15 UNL     1      27.306   4.292  48.908  1.00  0.00     0.032 A 
HETATM    6  C16 UNL     1      26.349   3.477  49.520  1.00  0.00     0.031 A 
ENDROOT
BRANCH   4   7
HETATM    7  N3  UNL     1      28.072   6.446  48.152  1.00  0.00    -0.341 N 
HETATM    8  H12 UNL     1      27.827   6.993  47.291  1.00  0.00     0.167 HD
BRANCH   7   9
HETATM    9  C9  UNL     1      29.452   6.769  48.328  1.00  0.00     0.133 A 
HETATM   10  C10 UNL     1      30.568   5.959  48.113  1.00  0.00     0.101 A 
HETATM   11  C11 UNL     1      31.820   6.495  48.340  1.00  0.00     0.136 A 
HETATM   12  N5  UNL     1      31.942   7.785  48.763  1.00  0.00    -0.224 NA
HETATM   13  C14 UNL     1      30.853   8.539  48.960  1.00  0.00     0.237 A 
HETATM   14  N6  UNL     1      29.614   8.055  48.751  1.00  0.00    -0.224 NA
BRANCH  11  15
HETATM   15  N4  UNL     1      32.929   5.632  48.109  1.00  0.00    -0.314 N 
HETATM   16  C12 UNL     1      34.304   5.948  48.438  1.00  0.00     0.160 C 
BRANCH  15  17
HETATM   17  C13 UNL     1      32.710   4.359  47.514  1.00  0.00     0.356 C 
HETATM   18  O1  UNL     1      32.626   3.235  48.117  1.00  0.00    -0.283 OA
ENDBRANCH  15  17
ENDBRANCH  11  15
ENDBRANCH   7   9
ENDBRANCH   4   7
BRANCH   1  19
HETATM   19  N2  UNL     1      24.138   3.420  50.647  1.00  0.00    -0.378 N 
HETATM   20  C4  UNL     1      22.834   2.949  50.249  1.00  0.00     0.142 C 
HETATM   21  C3  UNL     1      22.418   1.638  50.766  1.00  0.00     0.136 C 
HETATM   22  N1  UNL     1      23.156   1.026  51.804  1.00  0.00    -0.410 N 
HETATM   23  C18 UNL     1      24.482   1.539  52.008  1.00  0.00     0.136 C 
HETATM   24  C17 UNL     1      24.374   3.070  52.038  1.00  0.00     0.142 C 
BRANCH  22  25
HETATM   25  C2  UNL     1      22.444   0.776  53.031  1.00  0.00     0.112 C 
HETATM   26  C1  UNL     1      22.992  -0.395  53.817  1.00  0.00     0.026 C 
ENDBRANCH  22  25
ENDBRANCH   1  19
TORSDOF 6
ENDMDL
