MODEL 1
REMARK VINA RESULT:      -8.5      0.000      0.000
REMARK  6 active torsions:
REMARK  status: ('A' for Active; 'I' for Inactive)
REMARK    1  A    between atoms: O1_2  and  C2_3 
REMARK    2  A    between atoms: N2_9  and  C7_10 
REMARK    3  A    between atoms: C10_13  and  O2_14 
REMARK    4  A    between atoms: O2_14  and  C11_15 
REMARK    5  A    between atoms: C14_20  and  C15_21 
REMARK    6  A    between atoms: C20_27  and  O4_28 
ROOT
HETATM    1  C7  UNL     1      25.974   4.054  50.023  1.00  0.00     0.035 A 
HETATM    2  C8  UNL     1      27.128   3.887  49.278  1.00  0.00     0.032 A 
HETATM    3  C9  UNL     1      27.570   5.010  48.616  1.00  0.00     0.039 A 
HETATM    4  C10 UNL     1      26.999   6.268  48.612  1.00  0.00     0.077 A 
HETATM    5  C18 UNL     1      25.832   6.338  49.394  1.00  0.00     0.039 A 
HETATM    6  C19 UNL     1      25.319   5.266  50.090  1.00  0.00     0.032 A 
ENDROOT
BRANCH   1   7
HETATM    7  N2  UNL     1      25.457   2.943  50.751  1.00  0.00    -0.316 N 
HETATM    8  C6  UNL     1      26.356   1.884  51.089  1.00  0.00     0.251 C 
HETATM    9  N1  UNL     1      25.837   0.779  51.801  1.00  0.00    -0.383 N 
HETATM   10  C5  UNL     1      25.402   0.235  53.007  1.00  0.00     0.081 C 
HETATM   11  H7  UNL     1      25.652  -0.073  51.165  1.00  0.00     0.160 HD
HETATM   12  C4  UNL     1      24.624  -0.180  53.951  1.00  0.00     0.002 C 
HETATM   13  C3  UNL     1      23.220   0.002  53.653  1.00  0.00     0.080 C 
HETATM   14  C2  UNL     1      21.903   0.066  53.596  1.00  0.00     0.056 C 
HETATM   15  C23 UNL     1      21.510   0.710  52.339  1.00  0.00     0.057 C 
HETATM   16  C22 UNL     1      22.310   1.192  51.388  1.00  0.00     0.142 C 
HETATM   17  O5  UNL     1      23.586   1.466  50.839  1.00  0.00    -0.314 OA
HETATM   18  C20 UNL     1      24.123   2.727  51.231  1.00  0.00     0.378 C 
BRANCH  14  19
HETATM   19  O1  UNL     1      20.676  -0.214  54.235  1.00  0.00    -0.359 OA
HETATM   20  C1  UNL     1      19.599  -0.446  53.315  1.00  0.00     0.209 C 
ENDBRANCH  14  19
BRANCH  18  21
HETATM   21  O4  UNL     1      24.125   2.841  52.644  1.00  0.00    -0.349 OA
HETATM   22  C21 UNL     1      23.619   4.114  52.905  1.00  0.00     0.206 C 
ENDBRANCH  18  21
ENDBRANCH   1   7
BRANCH   4  23
HETATM   23  O2  UNL     1      27.654   7.186  47.871  1.00  0.00    -0.295 OA
BRANCH  23  24
HETATM   24  C11 UNL     1      28.883   7.744  48.004  1.00  0.00     0.157 A 
HETATM   25  N3  UNL     1      28.416   8.475  47.032  1.00  0.00    -0.221 NA
HETATM   26  C12 UNL     1      29.253   9.514  46.474  1.00  0.00     0.229 A 
HETATM   27  N4  UNL     1      30.423   9.701  46.928  1.00  0.00    -0.282 NA
HETATM   28  C13 UNL     1      31.064   8.966  47.998  1.00  0.00     0.167 A 
HETATM   29  C14 UNL     1      30.230   7.896  48.603  1.00  0.00     0.115 A 
BRANCH  29  30
HETATM   30  C15 UNL     1      30.896   6.544  48.561  1.00  0.00    -0.021 A 
HETATM   31  C16 UNL     1      31.085   5.478  47.811  1.00  0.00     0.141 A 
HETATM   32  O3  UNL     1      31.844   4.889  48.786  1.00  0.00    -0.358 OA
HETATM   33  C17 UNL     1      31.736   5.985  49.638  1.00  0.00     0.211 A 
ENDBRANCH  29  30
ENDBRANCH  23  24
ENDBRANCH   4  23
TORSDOF 6
ENDMDL
MODEL 2
REMARK VINA RESULT:      -8.1      2.338      3.687
REMARK  6 active torsions:
REMARK  status: ('A' for Active; 'I' for Inactive)
REMARK    1  A    between atoms: O1_2  and  C2_3 
REMARK    2  A    between atoms: N2_9  and  C7_10 
REMARK    3  A    between atoms: C10_13  and  O2_14 
REMARK    4  A    between atoms: O2_14  and  C11_15 
REMARK    5  A    between atoms: C14_20  and  C15_21 
REMARK    6  A    between atoms: C20_27  and  O4_28 
ROOT
HETATM    1  C7  UNL     1      24.471   3.949  50.071  1.00  0.00     0.035 A 
HETATM    2  C8  UNL     1      25.543   3.096  50.263  1.00  0.00     0.032 A 
HETATM    3  C9  UNL     1      26.731   3.507  49.701  1.00  0.00     0.039 A 
HETATM    4  C10 UNL     1      26.968   4.659  48.976  1.00  0.00     0.077 A 
HETATM    5  C18 UNL     1      25.820   5.458  48.833  1.00  0.00     0.039 A 
HETATM    6  C19 UNL     1      24.593   5.126  49.362  1.00  0.00     0.032 A 
ENDROOT
BRANCH   1   7
HETATM    7  N2  UNL     1      23.207   3.604  50.633  1.00  0.00    -0.316 N 
HETATM    8  C6  UNL     1      22.382   4.660  51.130  1.00  0.00     0.251 C 
HETATM    9  N1  UNL     1      21.134   4.314  51.696  1.00  0.00    -0.383 N 
HETATM   10  C5  UNL     1      19.809   3.925  51.516  1.00  0.00     0.081 C 
HETATM   11  H7  UNL     1      21.154   4.315  52.775  1.00  0.00     0.160 HD
HETATM   12  C4  UNL     1      18.750   3.189  51.441  1.00  0.00     0.002 C 
HETATM   13  C3  UNL     1      19.008   1.791  51.710  1.00  0.00     0.080 C 
HETATM   14  C2  UNL     1      19.008   0.488  51.921  1.00  0.00     0.056 C 
HETATM   15  C23 UNL     1      20.378   0.048  52.196  1.00  0.00     0.057 C 
HETATM   16  C22 UNL     1      21.482   0.794  52.216  1.00  0.00     0.142 C 
HETATM   17  O5  UNL     1      22.170   2.026  52.090  1.00  0.00    -0.314 OA
HETATM   18  C20 UNL     1      22.605   2.308  50.762  1.00  0.00     0.378 C 
BRANCH  14  19
HETATM   19  O1  UNL     1      18.246  -0.698  51.992  1.00  0.00    -0.359 OA
HETATM   20  C1  UNL     1      16.841  -0.460  52.162  1.00  0.00     0.209 C 
ENDBRANCH  14  19
BRANCH  18  21
HETATM   21  O4  UNL     1      21.516   2.222  49.860  1.00  0.00    -0.349 OA
HETATM   22  C21 UNL     1      22.045   1.642  48.707  1.00  0.00     0.206 C 
ENDBRANCH  18  21
ENDBRANCH   1   7
BRANCH   4  23
HETATM   23  O2  UNL     1      28.239   4.806  48.545  1.00  0.00    -0.295 OA
BRANCH  23  24
HETATM   24  C11 UNL     1      28.903   5.875  48.038  1.00  0.00     0.157 A 
HETATM   25  N3  UNL     1      29.878   5.012  48.078  1.00  0.00    -0.221 NA
HETATM   26  C12 UNL     1      31.191   5.419  47.630  1.00  0.00     0.229 A 
HETATM   27  N4  UNL     1      31.381   6.600  47.207  1.00  0.00    -0.282 NA
HETATM   28  C13 UNL     1      30.393   7.654  47.110  1.00  0.00     0.167 A 
HETATM   29  C14 UNL     1      29.029   7.269  47.554  1.00  0.00     0.115 A 
BRANCH  29  30
HETATM   30  C15 UNL     1      28.492   8.172  48.636  1.00  0.00    -0.021 A 
HETATM   31  C16 UNL     1      27.423   8.448  49.352  1.00  0.00     0.141 A 
HETATM   32  O3  UNL     1      28.086   9.444  50.016  1.00  0.00    -0.358 OA
HETATM   33  C17 UNL     1      29.279   9.203  49.339  1.00  0.00     0.211 A 
ENDBRANCH  29  30
ENDBRANCH  23  24
ENDBRANCH   4  23
TORSDOF 6
ENDMDL
MODEL 3
REMARK VINA RESULT:      -8.1      2.158      9.968
REMARK  6 active torsions:
REMARK  status: ('A' for Active; 'I' for Inactive)
REMARK    1  A    between atoms: O1_2  and  C2_3 
REMARK    2  A    between atoms: N2_9  and  C7_10 
REMARK    3  A    between atoms: C10_13  and  O2_14 
REMARK    4  A    between atoms: O2_14  and  C11_15 
REMARK    5  A    between atoms: C14_20  and  C15_21 
REMARK    6  A    between atoms: C20_27  and  O4_28 
ROOT
HETATM    1  C7  UNL     1      26.556   5.636  49.326  1.00  0.00     0.035 A 
HETATM    2  C8  UNL     1      25.404   5.767  50.079  1.00  0.00     0.032 A 
HETATM    3  C9  UNL     1      24.869   4.588  50.549  1.00  0.00     0.039 A 
HETATM    4  C10 UNL     1      25.348   3.307  50.355  1.00  0.00     0.077 A 
HETATM    5  C18 UNL     1      26.519   3.277  49.577  1.00  0.00     0.039 A 
HETATM    6  C19 UNL     1      27.122   4.405  49.067  1.00  0.00     0.032 A 
ENDROOT
BRANCH   1   7
HETATM    7  N2  UNL     1      27.182   6.810  48.813  1.00  0.00    -0.316 N 
HETATM    8  C6  UNL     1      26.771   8.074  49.338  1.00  0.00     0.251 C 
HETATM    9  N1  UNL     1      27.385   9.236  48.821  1.00  0.00    -0.383 N 
HETATM   10  C5  UNL     1      28.490  10.083  48.776  1.00  0.00     0.081 C 
HETATM   11  H7  UNL     1      26.765   9.746  48.099  1.00  0.00     0.160 HD
HETATM   12  C4  UNL     1      29.581  10.650  48.380  1.00  0.00     0.002 C 
HETATM   13  C3  UNL     1      30.092  10.099  47.143  1.00  0.00     0.080 C 
HETATM   14  C2  UNL     1      30.731   9.761  46.039  1.00  0.00     0.056 C 
HETATM   15  C23 UNL     1      30.030   8.642  45.403  1.00  0.00     0.057 C 
HETATM   16  C22 UNL     1      28.936   8.016  45.839  1.00  0.00     0.142 C 
HETATM   17  O5  UNL     1      27.888   7.819  46.770  1.00  0.00    -0.314 OA
HETATM   18  C20 UNL     1      28.216   6.917  47.824  1.00  0.00     0.378 C 
BRANCH  14  19
HETATM   19  O1  UNL     1      31.828  10.006  45.185  1.00  0.00    -0.359 OA
HETATM   20  C1  UNL     1      32.740  10.987  45.701  1.00  0.00     0.209 C 
ENDBRANCH  14  19
BRANCH  18  21
HETATM   21  O4  UNL     1      29.413   7.326  48.463  1.00  0.00    -0.349 OA
HETATM   22  C21 UNL     1      30.217   6.186  48.489  1.00  0.00     0.206 C 
ENDBRANCH  18  21
ENDBRANCH   1   7
BRANCH   4  23
HETATM   23  O2  UNL     1      24.618   2.334  50.938  1.00  0.00    -0.295 OA
BRANCH  23  24
HETATM   24  C11 UNL     1      24.971   1.290  51.728  1.00  0.00     0.157 A 
HETATM   25  N3  UNL     1      23.682   1.282  51.920  1.00  0.00    -0.221 NA
HETATM   26  C12 UNL     1      23.113   0.290  52.805  1.00  0.00     0.229 A 
HETATM   27  N4  UNL     1      23.865  -0.554  53.383  1.00  0.00    -0.282 NA
HETATM   28  C13 UNL     1      25.304  -0.657  53.261  1.00  0.00     0.167 A 
HETATM   29  C14 UNL     1      25.923   0.341  52.351  1.00  0.00     0.115 A 
BRANCH  29  30
HETATM   30  C15 UNL     1      26.995   1.159  53.027  1.00  0.00    -0.021 A 
HETATM   31  C16 UNL     1      27.714   2.257  52.924  1.00  0.00     0.141 A 
HETATM   32  O3  UNL     1      28.356   1.984  54.102  1.00  0.00    -0.358 OA
HETATM   33  C17 UNL     1      27.619   0.824  54.322  1.00  0.00     0.211 A 
ENDBRANCH  29  30
ENDBRANCH  23  24
ENDBRANCH   4  23
TORSDOF 6
ENDMDL
MODEL 4
REMARK VINA RESULT:      -8.1      2.627      9.750
REMARK  6 active torsions:
REMARK  status: ('A' for Active; 'I' for Inactive)
REMARK    1  A    between atoms: O1_2  and  C2_3 
REMARK    2  A    between atoms: N2_9  and  C7_10 
REMARK    3  A    between atoms: C10_13  and  O2_14 
REMARK    4  A    between atoms: O2_14  and  C11_15 
REMARK    5  A    between atoms: C14_20  and  C15_21 
REMARK    6  A    between atoms: C20_27  and  O4_28 
ROOT
HETATM    1  C7  UNL     1      24.578   4.413  50.470  1.00  0.00     0.035 A 
HETATM    2  C8  UNL     1      24.425   3.184  49.854  1.00  0.00     0.032 A 
HETATM    3  C9  UNL     1      23.547   2.321  50.471  1.00  0.00     0.039 A 
HETATM    4  C10 UNL     1      22.813   2.542  51.621  1.00  0.00     0.077 A 
HETATM    5  C18 UNL     1      23.038   3.816  52.173  1.00  0.00     0.039 A 
HETATM    6  C19 UNL     1      23.896   4.741  51.623  1.00  0.00     0.032 A 
ENDROOT
BRANCH   1   7
HETATM    7  N2  UNL     1      25.459   5.371  49.887  1.00  0.00    -0.316 N 
HETATM    8  C6  UNL     1      26.780   4.947  49.543  1.00  0.00     0.251 C 
HETATM    9  N1  UNL     1      27.653   5.901  48.974  1.00  0.00    -0.383 N 
HETATM   10  C5  UNL     1      28.051   6.643  47.865  1.00  0.00     0.081 C 
HETATM   11  H7  UNL     1      28.360   6.293  49.690  1.00  0.00     0.160 HD
HETATM   12  C4  UNL     1      28.197   7.625  47.039  1.00  0.00     0.002 C 
HETATM   13  C3  UNL     1      27.516   8.830  47.462  1.00  0.00     0.080 C 
HETATM   14  C2  UNL     1      26.986  10.024  47.647  1.00  0.00     0.056 C 
HETATM   15  C23 UNL     1      26.198  10.011  48.883  1.00  0.00     0.057 C 
HETATM   16  C22 UNL     1      25.998   8.984  49.708  1.00  0.00     0.142 C 
HETATM   17  O5  UNL     1      26.175   7.636  50.102  1.00  0.00    -0.314 OA
HETATM   18  C20 UNL     1      25.203   6.744  49.562  1.00  0.00     0.378 C 
BRANCH  14  19
HETATM   19  O1  UNL     1      26.834  11.340  47.158  1.00  0.00    -0.359 OA
HETATM   20  C1  UNL     1      26.733  12.322  48.200  1.00  0.00     0.209 C 
ENDBRANCH  14  19
BRANCH  18  21
HETATM   21  O4  UNL     1      25.150   6.874  48.152  1.00  0.00    -0.349 OA
HETATM   22  C21 UNL     1      23.797   6.769  47.829  1.00  0.00     0.206 C 
ENDBRANCH  18  21
ENDBRANCH   1   7
BRANCH   4  23
HETATM   23  O2  UNL     1      22.027   1.512  51.998  1.00  0.00    -0.295 OA
BRANCH  23  24
HETATM   24  C11 UNL     1      22.264   0.437  52.791  1.00  0.00     0.157 A 
HETATM   25  N3  UNL     1      21.208   0.917  53.385  1.00  0.00    -0.221 NA
HETATM   26  C12 UNL     1      20.694   0.238  54.553  1.00  0.00     0.229 A 
HETATM   27  N4  UNL     1      21.270  -0.806  54.988  1.00  0.00    -0.282 NA
HETATM   28  C13 UNL     1      22.444  -1.442  54.429  1.00  0.00     0.167 A 
HETATM   29  C14 UNL     1      22.995  -0.777  53.220  1.00  0.00     0.115 A 
BRANCH  29  30
HETATM   30  C15 UNL     1      24.447  -0.398  53.374  1.00  0.00    -0.021 A 
HETATM   31  C16 UNL     1      25.449   0.220  52.786  1.00  0.00     0.141 A 
HETATM   32  O3  UNL     1      26.278  -0.056  53.840  1.00  0.00    -0.358 OA
HETATM   33  C17 UNL     1      25.273  -0.696  54.561  1.00  0.00     0.211 A 
ENDBRANCH  29  30
ENDBRANCH  23  24
ENDBRANCH   4  23
TORSDOF 6
ENDMDL
MODEL 5
REMARK VINA RESULT:      -8.0      1.443      2.570
REMARK  6 active torsions:
REMARK  status: ('A' for Active; 'I' for Inactive)
REMARK    1  A    between atoms: O1_2  and  C2_3 
REMARK    2  A    between atoms: N2_9  and  C7_10 
REMARK    3  A    between atoms: C10_13  and  O2_14 
REMARK    4  A    between atoms: O2_14  and  C11_15 
REMARK    5  A    between atoms: C14_20  and  C15_21 
REMARK    6  A    between atoms: C20_27  and  O4_28 
ROOT
HETATM    1  C7  UNL     1      25.479   5.309  49.870  1.00  0.00     0.035 A 
HETATM    2  C8  UNL     1      25.380   6.656  49.570  1.00  0.00     0.032 A 
HETATM    3  C9  UNL     1      26.381   7.155  48.766  1.00  0.00     0.039 A 
HETATM    4  C10 UNL     1      27.457   6.471  48.234  1.00  0.00     0.077 A 
HETATM    5  C18 UNL     1      27.471   5.112  48.596  1.00  0.00     0.039 A 
HETATM    6  C19 UNL     1      26.512   4.529  49.394  1.00  0.00     0.032 A 
ENDROOT
BRANCH   1   7
HETATM    7  N2  UNL     1      24.474   4.710  50.686  1.00  0.00    -0.316 N 
HETATM    8  C6  UNL     1      23.575   5.573  51.386  1.00  0.00     0.251 C 
HETATM    9  N1  UNL     1      22.588   4.976  52.202  1.00  0.00    -0.383 N 
HETATM   10  C5  UNL     1      21.370   4.309  52.306  1.00  0.00     0.081 C 
HETATM   11  H7  UNL     1      22.847   4.999  53.249  1.00  0.00     0.160 HD
HETATM   12  C4  UNL     1      20.502   3.362  52.444  1.00  0.00     0.002 C 
HETATM   13  C3  UNL     1      21.105   2.056  52.604  1.00  0.00     0.080 C 
HETATM   14  C2  UNL     1      21.429   0.787  52.768  1.00  0.00     0.056 C 
HETATM   15  C23 UNL     1      22.888   0.656  52.719  1.00  0.00     0.057 C 
HETATM   16  C22 UNL     1      23.784   1.622  52.519  1.00  0.00     0.142 C 
HETATM   17  O5  UNL     1      24.148   2.970  52.284  1.00  0.00    -0.314 OA
HETATM   18  C20 UNL     1      24.207   3.318  50.903  1.00  0.00     0.378 C 
BRANCH  14  19
HETATM   19  O1  UNL     1      20.973  -0.534  52.968  1.00  0.00    -0.359 OA
HETATM   20  C1  UNL     1      21.250  -1.036  54.284  1.00  0.00     0.209 C 
ENDBRANCH  14  19
BRANCH  18  21
HETATM   21  O4  UNL     1      22.988   2.985  50.261  1.00  0.00    -0.349 OA
HETATM   22  C21 UNL     1      23.341   2.683  48.946  1.00  0.00     0.206 C 
ENDBRANCH  18  21
ENDBRANCH   1   7
BRANCH   4  23
HETATM   23  O2  UNL     1      28.285   7.219  47.475  1.00  0.00    -0.295 OA
BRANCH  23  24
HETATM   24  C11 UNL     1      29.508   7.751  47.726  1.00  0.00     0.157 A 
HETATM   25  N3  UNL     1      29.259   8.310  46.576  1.00  0.00    -0.221 NA
HETATM   26  C12 UNL     1      30.244   9.203  46.006  1.00  0.00     0.229 A 
HETATM   27  N4  UNL     1      31.330   9.430  46.622  1.00  0.00    -0.282 NA
HETATM   28  C13 UNL     1      31.732   8.878  47.898  1.00  0.00     0.167 A 
HETATM   29  C14 UNL     1      30.741   7.963  48.520  1.00  0.00     0.115 A 
BRANCH  29  30
HETATM   30  C15 UNL     1      31.316   6.603  48.829  1.00  0.00    -0.021 A 
HETATM   31  C16 UNL     1      31.971   5.911  49.737  1.00  0.00     0.141 A 
HETATM   32  O3  UNL     1      31.941   4.791  48.950  1.00  0.00    -0.358 OA
HETATM   33  C17 UNL     1      31.213   5.425  47.946  1.00  0.00     0.211 A 
ENDBRANCH  29  30
ENDBRANCH  23  24
ENDBRANCH   4  23
TORSDOF 6
ENDMDL
MODEL 6
REMARK VINA RESULT:      -8.0      2.333      9.573
REMARK  6 active torsions:
REMARK  status: ('A' for Active; 'I' for Inactive)
REMARK    1  A    between atoms: O1_2  and  C2_3 
REMARK    2  A    between atoms: N2_9  and  C7_10 
REMARK    3  A    between atoms: C10_13  and  O2_14 
REMARK    4  A    between atoms: O2_14  and  C11_15 
REMARK    5  A    between atoms: C14_20  and  C15_21 
REMARK    6  A    between atoms: C20_27  and  O4_28 
ROOT
HETATM    1  C7  UNL     1      26.382   5.263  49.432  1.00  0.00     0.035 A 
HETATM    2  C8  UNL     1      26.845   3.967  49.293  1.00  0.00     0.032 A 
HETATM    3  C9  UNL     1      26.059   2.995  49.870  1.00  0.00     0.039 A 
HETATM    4  C10 UNL     1      24.876   3.167  50.563  1.00  0.00     0.077 A 
HETATM    5  C18 UNL     1      24.490   4.517  50.653  1.00  0.00     0.039 A 
HETATM    6  C19 UNL     1      25.214   5.552  50.106  1.00  0.00     0.032 A 
ENDROOT
BRANCH   1   7
HETATM    7  N2  UNL     1      27.132   6.328  48.851  1.00  0.00    -0.316 N 
HETATM    8  C6  UNL     1      28.324   5.998  48.134  1.00  0.00     0.251 C 
HETATM    9  N1  UNL     1      29.069   7.057  47.568  1.00  0.00    -0.383 N 
HETATM   10  C5  UNL     1      29.220   8.003  46.558  1.00  0.00     0.081 C 
HETATM   11  H7  UNL     1      29.933   7.316  48.160  1.00  0.00     0.160 HD
HETATM   12  C4  UNL     1      29.199   9.127  45.922  1.00  0.00     0.002 C 
HETATM   13  C3  UNL     1      28.671  10.218  46.712  1.00  0.00     0.080 C 
HETATM   14  C2  UNL     1      28.234  11.347  47.239  1.00  0.00     0.056 C 
HETATM   15  C23 UNL     1      27.755  11.086  48.599  1.00  0.00     0.057 C 
HETATM   16  C22 UNL     1      27.721   9.917  49.238  1.00  0.00     0.142 C 
HETATM   17  O5  UNL     1      27.946   8.521  49.318  1.00  0.00    -0.314 OA
HETATM   18  C20 UNL     1      26.848   7.734  48.861  1.00  0.00     0.378 C 
BRANCH  14  19
HETATM   19  O1  UNL     1      28.012  12.729  47.057  1.00  0.00    -0.359 OA
HETATM   20  C1  UNL     1      26.972  13.251  47.897  1.00  0.00     0.209 C 
ENDBRANCH  14  19
BRANCH  18  21
HETATM   21  O4  UNL     1      26.473   8.130  47.553  1.00  0.00    -0.349 OA
HETATM   22  C21 UNL     1      25.078   8.157  47.569  1.00  0.00     0.206 C 
ENDBRANCH  18  21
ENDBRANCH   1   7
BRANCH   4  23
HETATM   23  O2  UNL     1      24.315   2.028  51.019  1.00  0.00    -0.295 OA
BRANCH  23  24
HETATM   24  C11 UNL     1      24.766   1.080  51.878  1.00  0.00     0.157 A 
HETATM   25  N3  UNL     1      23.491   1.020  52.139  1.00  0.00    -0.221 NA
HETATM   26  C12 UNL     1      23.025   0.084  53.137  1.00  0.00     0.229 A 
HETATM   27  N4  UNL     1      23.851  -0.663  53.745  1.00  0.00    -0.282 NA
HETATM   28  C13 UNL     1      25.286  -0.699  53.556  1.00  0.00     0.167 A 
HETATM   29  C14 UNL     1      25.801   0.244  52.531  1.00  0.00     0.115 A 
BRANCH  29  30
HETATM   30  C15 UNL     1      26.856   1.176  53.073  1.00  0.00    -0.021 A 
HETATM   31  C16 UNL     1      28.151   1.411  53.100  1.00  0.00     0.141 A 
HETATM   32  O3  UNL     1      27.966   2.512  53.892  1.00  0.00    -0.358 OA
HETATM   33  C17 UNL     1      26.581   2.373  53.893  1.00  0.00     0.211 A 
ENDBRANCH  29  30
ENDBRANCH  23  24
ENDBRANCH   4  23
TORSDOF 6
ENDMDL
MODEL 7
REMARK VINA RESULT:      -7.9      1.877      3.058
REMARK  6 active torsions:
REMARK  status: ('A' for Active; 'I' for Inactive)
REMARK    1  A    between atoms: O1_2  and  C2_3 
REMARK    2  A    between atoms: N2_9  and  C7_10 
REMARK    3  A    between atoms: C10_13  and  O2_14 
REMARK    4  A    between atoms: O2_14  and  C11_15 
REMARK    5  A    between atoms: C14_20  and  C15_21 
REMARK    6  A    between atoms: C20_27  and  O4_28 
ROOT
HETATM    1  C7  UNL     1      26.055   6.485  49.365  1.00  0.00     0.035 A 
HETATM    2  C8  UNL     1      26.988   6.267  48.368  1.00  0.00     0.032 A 
HETATM    3  C9  UNL     1      27.918   7.269  48.200  1.00  0.00     0.039 A 
HETATM    4  C10 UNL     1      28.022   8.451  48.908  1.00  0.00     0.077 A 
HETATM    5  C18 UNL     1      27.030   8.582  49.897  1.00  0.00     0.039 A 
HETATM    6  C19 UNL     1      26.063   7.631  50.133  1.00  0.00     0.032 A 
ENDROOT
BRANCH   1   7
HETATM    7  N2  UNL     1      25.064   5.490  49.612  1.00  0.00    -0.316 N 
HETATM    8  C6  UNL     1      23.936   5.433  48.736  1.00  0.00     0.251 C 
HETATM    9  N1  UNL     1      22.952   4.451  48.990  1.00  0.00    -0.383 N 
HETATM   10  C5  UNL     1      22.548   3.120  48.921  1.00  0.00     0.081 C 
HETATM   11  H7  UNL     1      22.084   4.856  49.488  1.00  0.00     0.160 HD
HETATM   12  C4  UNL     1      22.293   1.901  49.260  1.00  0.00     0.002 C 
HETATM   13  C3  UNL     1      22.614   1.616  50.642  1.00  0.00     0.080 C 
HETATM   14  C2  UNL     1      22.823   1.136  51.854  1.00  0.00     0.056 C 
HETATM   15  C23 UNL     1      23.417   2.186  52.687  1.00  0.00     0.057 C 
HETATM   16  C22 UNL     1      23.735   3.428  52.325  1.00  0.00     0.142 C 
HETATM   17  O5  UNL     1      23.822   4.478  51.379  1.00  0.00    -0.314 OA
HETATM   18  C20 UNL     1      25.038   4.485  50.635  1.00  0.00     0.378 C 
BRANCH  14  19
HETATM   19  O1  UNL     1      22.732   0.024  52.718  1.00  0.00    -0.359 OA
HETATM   20  C1  UNL     1      23.955  -0.254  53.416  1.00  0.00     0.209 C 
ENDBRANCH  14  19
BRANCH  18  21
HETATM   21  O4  UNL     1      25.250   3.219  50.034  1.00  0.00    -0.349 OA
HETATM   22  C21 UNL     1      26.590   2.920  50.283  1.00  0.00     0.206 C 
ENDBRANCH  18  21
ENDBRANCH   1   7
BRANCH   4  23
HETATM   23  O2  UNL     1      29.040   9.251  48.528  1.00  0.00    -0.295 OA
BRANCH  23  24
HETATM   24  C11 UNL     1      30.372   9.025  48.412  1.00  0.00     0.157 A 
HETATM   25  N3  UNL     1      30.221   9.919  47.477  1.00  0.00    -0.221 NA
HETATM   26  C12 UNL     1      31.376  10.330  46.709  1.00  0.00     0.229 A 
HETATM   27  N4  UNL     1      32.513   9.820  46.948  1.00  0.00    -0.282 NA
HETATM   28  C13 UNL     1      32.820   8.822  47.950  1.00  0.00     0.167 A 
HETATM   29  C14 UNL     1      31.659   8.382  48.766  1.00  0.00     0.115 A 
BRANCH  29  30
HETATM   30  C15 UNL     1      31.446   6.890  48.719  1.00  0.00    -0.021 A 
HETATM   31  C16 UNL     1      31.349   5.809  49.464  1.00  0.00     0.141 A 
HETATM   32  O3  UNL     1      31.154   5.026  48.357  1.00  0.00    -0.358 OA
HETATM   33  C17 UNL     1      31.201   6.113  47.488  1.00  0.00     0.211 A 
ENDBRANCH  29  30
ENDBRANCH  23  24
ENDBRANCH   4  23
TORSDOF 6
ENDMDL
MODEL 8
REMARK VINA RESULT:      -7.8      2.396      3.786
REMARK  6 active torsions:
REMARK  status: ('A' for Active; 'I' for Inactive)
REMARK    1  A    between atoms: O1_2  and  C2_3 
REMARK    2  A    between atoms: N2_9  and  C7_10 
REMARK    3  A    between atoms: C10_13  and  O2_14 
REMARK    4  A    between atoms: O2_14  and  C11_15 
REMARK    5  A    between atoms: C14_20  and  C15_21 
REMARK    6  A    between atoms: C20_27  and  O4_28 
ROOT
HETATM    1  C7  UNL     1      25.103   3.576  50.223  1.00  0.00     0.035 A 
HETATM    2  C8  UNL     1      24.434   4.750  49.931  1.00  0.00     0.032 A 
HETATM    3  C9  UNL     1      25.173   5.699  49.260  1.00  0.00     0.039 A 
HETATM    4  C10 UNL     1      26.490   5.610  48.852  1.00  0.00     0.077 A 
HETATM    5  C18 UNL     1      27.084   4.382  49.195  1.00  0.00     0.039 A 
HETATM    6  C19 UNL     1      26.420   3.378  49.864  1.00  0.00     0.032 A 
ENDROOT
BRANCH   1   7
HETATM    7  N2  UNL     1      24.405   2.536  50.904  1.00  0.00    -0.316 N 
HETATM    8  C6  UNL     1      25.173   1.584  51.644  1.00  0.00     0.251 C 
HETATM    9  N1  UNL     1      24.478   0.549  52.310  1.00  0.00    -0.383 N 
HETATM   10  C5  UNL     1      23.699   0.136  53.388  1.00  0.00     0.081 C 
HETATM   11  H7  UNL     1      24.514  -0.386  51.772  1.00  0.00     0.160 HD
HETATM   12  C4  UNL     1      22.675  -0.202  54.098  1.00  0.00     0.002 C 
HETATM   13  C3  UNL     1      21.429  -0.142  53.363  1.00  0.00     0.080 C 
HETATM   14  C2  UNL     1      20.194  -0.165  52.898  1.00  0.00     0.056 C 
HETATM   15  C23 UNL     1      20.200   0.290  51.505  1.00  0.00     0.057 C 
HETATM   16  C22 UNL     1      21.247   0.695  50.787  1.00  0.00     0.142 C 
HETATM   17  O5  UNL     1      22.625   0.973  50.621  1.00  0.00    -0.314 OA
HETATM   18  C20 UNL     1      22.991   2.304  50.979  1.00  0.00     0.378 C 
BRANCH  14  19
HETATM   19  O1  UNL     1      18.834  -0.435  53.164  1.00  0.00    -0.359 OA
HETATM   20  C1  UNL     1      18.032  -0.526  51.978  1.00  0.00     0.209 C 
ENDBRANCH  14  19
BRANCH  18  21
HETATM   21  O4  UNL     1      22.553   2.595  52.295  1.00  0.00    -0.349 OA
HETATM   22  C21 UNL     1      21.893   3.819  52.195  1.00  0.00     0.206 C 
ENDBRANCH  18  21
ENDBRANCH   1   7
BRANCH   4  23
HETATM   23  O2  UNL     1      26.959   6.699  48.208  1.00  0.00    -0.295 OA
BRANCH  23  24
HETATM   24  C11 UNL     1      26.589   8.003  48.251  1.00  0.00     0.157 A 
HETATM   25  N3  UNL     1      27.552   8.020  49.130  1.00  0.00    -0.221 NA
HETATM   26  C12 UNL     1      27.874   9.266  49.789  1.00  0.00     0.229 A 
HETATM   27  N4  UNL     1      27.224  10.320  49.512  1.00  0.00    -0.282 NA
HETATM   28  C13 UNL     1      26.137  10.442  48.564  1.00  0.00     0.167 A 
HETATM   29  C14 UNL     1      25.783   9.183  47.859  1.00  0.00     0.115 A 
BRANCH  29  30
HETATM   30  C15 UNL     1      24.331   8.811  48.025  1.00  0.00    -0.021 A 
HETATM   31  C16 UNL     1      23.312   8.860  48.857  1.00  0.00     0.141 A 
HETATM   32  O3  UNL     1      22.503   8.224  47.953  1.00  0.00    -0.358 OA
HETATM   33  C17 UNL     1      23.506   8.159  46.989  1.00  0.00     0.211 A 
ENDBRANCH  29  30
ENDBRANCH  23  24
ENDBRANCH   4  23
TORSDOF 6
ENDMDL
MODEL 9
REMARK VINA RESULT:      -7.8      3.490     11.107
REMARK  6 active torsions:
REMARK  status: ('A' for Active; 'I' for Inactive)
REMARK    1  A    between atoms: O1_2  and  C2_3 
REMARK    2  A    between atoms: N2_9  and  C7_10 
REMARK    3  A    between atoms: C10_13  and  O2_14 
REMARK    4  A    between atoms: O2_14  and  C11_15 
REMARK    5  A    between atoms: C14_20  and  C15_21 
REMARK    6  A    between atoms: C20_27  and  O4_28 
ROOT
HETATM    1  C7  UNL     1      22.357   1.365  52.304  1.00  0.00     0.035 A 
HETATM    2  C8  UNL     1      21.069   1.850  52.442  1.00  0.00     0.032 A 
HETATM    3  C9  UNL     1      20.153   0.955  52.948  1.00  0.00     0.039 A 
HETATM    4  C10 UNL     1      20.374  -0.355  53.327  1.00  0.00     0.077 A 
HETATM    5  C18 UNL     1      21.710  -0.756  53.148  1.00  0.00     0.039 A 
HETATM    6  C19 UNL     1      22.691   0.072  52.650  1.00  0.00     0.032 A 
ENDROOT
BRANCH   1   7
HETATM    7  N2  UNL     1      23.370   2.233  51.799  1.00  0.00    -0.316 N 
HETATM    8  C6  UNL     1      24.723   1.772  51.824  1.00  0.00     0.251 C 
HETATM    9  N1  UNL     1      25.724   2.639  51.332  1.00  0.00    -0.383 N 
HETATM   10  C5  UNL     1      26.377   3.212  50.244  1.00  0.00     0.081 C 
HETATM   11  H7  UNL     1      26.264   3.137  52.123  1.00  0.00     0.160 HD
HETATM   12  C4  UNL     1      26.728   4.064  49.338  1.00  0.00     0.002 C 
HETATM   13  C3  UNL     1      26.001   5.313  49.419  1.00  0.00     0.080 C 
HETATM   14  C2  UNL     1      25.474   6.517  49.306  1.00  0.00     0.056 C 
HETATM   15  C23 UNL     1      24.432   6.681  50.324  1.00  0.00     0.057 C 
HETATM   16  C22 UNL     1      24.027   5.784  51.223  1.00  0.00     0.142 C 
HETATM   17  O5  UNL     1      24.079   4.510  51.839  1.00  0.00    -0.314 OA
HETATM   18  C20 UNL     1      23.227   3.542  51.230  1.00  0.00     0.378 C 
BRANCH  14  19
HETATM   19  O1  UNL     1      25.469   7.746  48.611  1.00  0.00    -0.359 OA
HETATM   20  C1  UNL     1      26.218   7.707  47.387  1.00  0.00     0.209 C 
ENDBRANCH  14  19
BRANCH  18  21
HETATM   21  O4  UNL     1      23.492   3.463  49.840  1.00  0.00    -0.349 OA
HETATM   22  C21 UNL     1      22.238   3.351  49.239  1.00  0.00     0.206 C 
ENDBRANCH  18  21
ENDBRANCH   1   7
BRANCH   4  23
HETATM   23  O2  UNL     1      19.285  -1.002  53.794  1.00  0.00    -0.295 OA
BRANCH  23  24
HETATM   24  C11 UNL     1      18.036  -1.150  53.287  1.00  0.00     0.157 A 
HETATM   25  N3  UNL     1      18.278  -2.383  53.631  1.00  0.00    -0.221 NA
HETATM   26  C12 UNL     1      17.267  -3.387  53.390  1.00  0.00     0.229 A 
HETATM   27  N4  UNL     1      16.165  -3.065  52.849  1.00  0.00    -0.282 NA
HETATM   28  C13 UNL     1      15.768  -1.742  52.417  1.00  0.00     0.167 A 
HETATM   29  C14 UNL     1      16.779  -0.680  52.658  1.00  0.00     0.115 A 
BRANCH  29  30
HETATM   30  C15 UNL     1      17.154   0.063  51.401  1.00  0.00    -0.021 A 
HETATM   31  C16 UNL     1      17.687  -0.078  50.205  1.00  0.00     0.141 A 
HETATM   32  O3  UNL     1      17.520   1.255  49.940  1.00  0.00    -0.358 OA
HETATM   33  C17 UNL     1      16.907   1.499  51.166  1.00  0.00     0.211 A 
ENDBRANCH  29  30
ENDBRANCH  23  24
ENDBRANCH   4  23
TORSDOF 6
ENDMDL
