MODEL 1
REMARK VINA RESULT:      -8.2      0.000      0.000
REMARK  5 active torsions:
REMARK  status: ('A' for Active; 'I' for Inactive)
REMARK    1  A    between atoms: C2_2  and  C3_3 
REMARK       I    between atoms: C3_3  and  N1_5 
REMARK    2  A    between atoms: N1_5  and  C4_6 
REMARK    3  A    between atoms: C7_9  and  N2_10 
REMARK    4  A    between atoms: N2_10  and  C8_11 
REMARK    5  A    between atoms: C16_23  and  O2_24 
ROOT
HETATM    1  C4  UNL     1      24.200   3.260  51.274  1.00  0.00     0.069 A 
HETATM    2  C5  UNL     1      24.775   2.448  52.246  1.00  0.00     0.050 A 
HETATM    3  C6  UNL     1      24.146   1.314  52.696  1.00  0.00     0.041 A 
HETATM    4  C7  UNL     1      24.782   0.559  53.663  1.00  0.00     0.141 A 
HETATM    5  N3  UNL     1      24.178  -0.551  54.112  1.00  0.00    -0.224 NA
HETATM    6  C13 UNL     1      22.977  -0.883  53.600  1.00  0.00     0.236 A 
HETATM    7  N4  UNL     1      22.320  -0.162  52.646  1.00  0.00    -0.241 NA
HETATM    8  C14 UNL     1      22.916   0.971  52.174  1.00  0.00     0.075 A 
HETATM    9  C15 UNL     1      22.343   1.762  51.220  1.00  0.00     0.071 A 
HETATM   10  C16 UNL     1      22.964   2.907  50.757  1.00  0.00     0.097 A 
ENDROOT
BRANCH   4  11
HETATM   11  N2  UNL     1      26.032   0.855  54.231  1.00  0.00    -0.342 N 
HETATM   12  H8  UNL     1      26.323   1.611  54.885  1.00  0.00     0.167 HD
BRANCH  11  13
HETATM   13  C8  UNL     1      27.228   0.107  53.995  1.00  0.00     0.036 A 
HETATM   14  C9  UNL     1      27.137  -0.811  53.026  1.00  0.00     0.030 A 
HETATM   15  C10 UNL     1      28.421  -1.490  52.897  1.00  0.00     0.042 A 
HETATM   16  C11 UNL     1      29.248  -0.969  53.785  1.00  0.00     0.118 A 
HETATM   17  F1  UNL     1      30.553  -1.175  54.146  1.00  0.00    -0.209 F 
HETATM   18  C12 UNL     1      28.587   0.094  54.575  1.00  0.00     0.194 A 
HETATM   19 CL1  UNL     1      29.428   1.627  54.309  1.00  0.00    -0.111 Cl
ENDBRANCH  11  13
ENDBRANCH   4  11
BRANCH   1  20
HETATM   20  N1  UNL     1      24.922   4.435  50.851  1.00  0.00    -0.325 N 
HETATM   21  C3  UNL     1      25.848   4.255  49.797  1.00  0.00     0.221 C 
HETATM   22  O1  UNL     1      25.996   3.108  49.293  1.00  0.00    -0.273 OA
HETATM   23  H6  UNL     1      24.734   5.351  51.328  1.00  0.00     0.169 HD
BRANCH  21  24
HETATM   24  C2  UNL     1      26.619   5.460  49.329  1.00  0.00     0.098 C 
HETATM   25  C1  UNL     1      27.847   5.062  48.565  1.00  0.00     0.014 C 
ENDBRANCH  21  24
ENDBRANCH   1  20
BRANCH  10  26
HETATM   26  O2  UNL     1      22.392   3.729  49.780  1.00  0.00    -0.354 OA
HETATM   27  C17 UNL     1      22.458   3.318  48.408  1.00  0.00     0.210 C 
ENDBRANCH  10  26
TORSDOF 5
ENDMDL
MODEL 2
REMARK VINA RESULT:      -8.2      1.950      2.772
REMARK  5 active torsions:
REMARK  status: ('A' for Active; 'I' for Inactive)
REMARK    1  A    between atoms: C2_2  and  C3_3 
REMARK       I    between atoms: C3_3  and  N1_5 
REMARK    2  A    between atoms: N1_5  and  C4_6 
REMARK    3  A    between atoms: C7_9  and  N2_10 
REMARK    4  A    between atoms: N2_10  and  C8_11 
REMARK    5  A    between atoms: C16_23  and  O2_24 
ROOT
HETATM    1  C4  UNL     1      22.631   0.968  51.740  1.00  0.00     0.069 A 
HETATM    2  C5  UNL     1      23.755   0.770  52.535  1.00  0.00     0.050 A 
HETATM    3  C6  UNL     1      23.721  -0.058  53.629  1.00  0.00     0.041 A 
HETATM    4  C7  UNL     1      24.879  -0.203  54.369  1.00  0.00     0.141 A 
HETATM    5  N3  UNL     1      24.860  -1.010  55.441  1.00  0.00    -0.224 NA
HETATM    6  C13 UNL     1      23.713  -1.644  55.749  1.00  0.00     0.236 A 
HETATM    7  N4  UNL     1      22.552  -1.525  55.042  1.00  0.00    -0.241 NA
HETATM    8  C14 UNL     1      22.548  -0.710  53.948  1.00  0.00     0.075 A 
HETATM    9  C15 UNL     1      21.439  -0.522  53.174  1.00  0.00     0.071 A 
HETATM   10  C16 UNL     1      21.457   0.309  52.069  1.00  0.00     0.097 A 
ENDROOT
BRANCH   4  11
HETATM   11  N2  UNL     1      26.102   0.432  54.095  1.00  0.00    -0.342 N 
HETATM   12  H8  UNL     1      26.342   1.439  54.001  1.00  0.00     0.167 HD
BRANCH  11  13
HETATM   13  C8  UNL     1      27.340  -0.252  53.880  1.00  0.00     0.036 A 
HETATM   14  C9  UNL     1      27.307  -1.196  52.932  1.00  0.00     0.030 A 
HETATM   15  C10 UNL     1      28.629  -1.802  52.823  1.00  0.00     0.042 A 
HETATM   16  C11 UNL     1      29.419  -1.215  53.702  1.00  0.00     0.118 A 
HETATM   17  F1  UNL     1      30.732  -1.337  54.073  1.00  0.00    -0.209 F 
HETATM   18  C12 UNL     1      28.695  -0.174  54.465  1.00  0.00     0.194 A 
HETATM   19 CL1  UNL     1      29.448   1.398  54.167  1.00  0.00    -0.111 Cl
ENDBRANCH  11  13
ENDBRANCH   4  11
BRANCH   1  20
HETATM   20  N1  UNL     1      22.743   1.853  50.606  1.00  0.00    -0.325 N 
HETATM   21  C3  UNL     1      22.457   3.218  50.847  1.00  0.00     0.221 C 
HETATM   22  O1  UNL     1      22.125   3.585  52.007  1.00  0.00    -0.273 OA
HETATM   23  H6  UNL     1      23.026   1.460  49.675  1.00  0.00     0.169 HD
BRANCH  21  24
HETATM   24  C2  UNL     1      22.564   4.171  49.686  1.00  0.00     0.098 C 
HETATM   25  C1  UNL     1      23.860   3.995  48.951  1.00  0.00     0.014 C 
ENDBRANCH  21  24
ENDBRANCH   1  20
BRANCH  10  26
HETATM   26  O2  UNL     1      20.331   0.513  51.265  1.00  0.00    -0.354 OA
HETATM   27  C17 UNL     1      19.032   0.274  51.824  1.00  0.00     0.210 C 
ENDBRANCH  10  26
TORSDOF 5
ENDMDL
MODEL 3
REMARK VINA RESULT:      -8.1      2.105      4.729
REMARK  5 active torsions:
REMARK  status: ('A' for Active; 'I' for Inactive)
REMARK    1  A    between atoms: C2_2  and  C3_3 
REMARK       I    between atoms: C3_3  and  N1_5 
REMARK    2  A    between atoms: N1_5  and  C4_6 
REMARK    3  A    between atoms: C7_9  and  N2_10 
REMARK    4  A    between atoms: N2_10  and  C8_11 
REMARK    5  A    between atoms: C16_23  and  O2_24 
ROOT
HETATM    1  C4  UNL     1      22.911   1.602  52.381  1.00  0.00     0.069 A 
HETATM    2  C5  UNL     1      24.277   1.826  52.518  1.00  0.00     0.050 A 
HETATM    3  C6  UNL     1      25.009   2.418  51.519  1.00  0.00     0.041 A 
HETATM    4  C7  UNL     1      26.361   2.606  51.730  1.00  0.00     0.141 A 
HETATM    5  N3  UNL     1      27.089   3.184  50.761  1.00  0.00    -0.224 NA
HETATM    6  C13 UNL     1      26.468   3.557  49.626  1.00  0.00     0.236 A 
HETATM    7  N4  UNL     1      25.136   3.387  49.384  1.00  0.00    -0.241 NA
HETATM    8  C14 UNL     1      24.376   2.801  50.354  1.00  0.00     0.075 A 
HETATM    9  C15 UNL     1      23.036   2.586  50.211  1.00  0.00     0.071 A 
HETATM   10  C16 UNL     1      22.286   1.991  51.208  1.00  0.00     0.097 A 
ENDROOT
BRANCH   4  11
HETATM   11  N2  UNL     1      27.060   2.239  52.892  1.00  0.00    -0.342 N 
HETATM   12  H8  UNL     1      27.204   2.744  53.790  1.00  0.00     0.167 HD
BRANCH  11  13
HETATM   13  C8  UNL     1      27.757   1.001  53.062  1.00  0.00     0.036 A 
HETATM   14  C9  UNL     1      28.967   1.107  53.623  1.00  0.00     0.030 A 
HETATM   15  C10 UNL     1      29.554  -0.223  53.734  1.00  0.00     0.042 A 
HETATM   16  C11 UNL     1      28.690  -1.091  53.240  1.00  0.00     0.118 A 
HETATM   17  F1  UNL     1      28.657  -2.450  53.067  1.00  0.00    -0.209 F 
HETATM   18  C12 UNL     1      27.462  -0.415  52.763  1.00  0.00     0.194 A 
HETATM   19 CL1  UNL     1      26.074  -1.006  53.685  1.00  0.00    -0.111 Cl
ENDBRANCH  11  13
ENDBRANCH   4  11
BRANCH   1  20
HETATM   20  N1  UNL     1      22.209   0.975  53.474  1.00  0.00    -0.325 N 
HETATM   21  C3  UNL     1      22.233  -0.439  53.504  1.00  0.00     0.221 C 
HETATM   22  O1  UNL     1      22.848  -1.067  52.599  1.00  0.00    -0.273 OA
HETATM   23  H6  UNL     1      21.724   1.576  54.185  1.00  0.00     0.169 HD
BRANCH  21  24
HETATM   24  C2  UNL     1      21.511  -1.129  54.632  1.00  0.00     0.098 C 
HETATM   25  C1  UNL     1      20.159  -1.615  54.200  1.00  0.00     0.014 C 
ENDBRANCH  21  24
ENDBRANCH   1  20
BRANCH  10  26
HETATM   26  O2  UNL     1      20.912   1.762  51.078  1.00  0.00    -0.354 OA
HETATM   27  C17 UNL     1      20.439   1.026  49.942  1.00  0.00     0.210 C 
ENDBRANCH  10  26
TORSDOF 5
ENDMDL
MODEL 4
REMARK VINA RESULT:      -8.0      1.853      2.215
REMARK  5 active torsions:
REMARK  status: ('A' for Active; 'I' for Inactive)
REMARK    1  A    between atoms: C2_2  and  C3_3 
REMARK       I    between atoms: C3_3  and  N1_5 
REMARK    2  A    between atoms: N1_5  and  C4_6 
REMARK    3  A    between atoms: C7_9  and  N2_10 
REMARK    4  A    between atoms: N2_10  and  C8_11 
REMARK    5  A    between atoms: C16_23  and  O2_24 
ROOT
HETATM    1  C4  UNL     1      23.131   1.837  51.254  1.00  0.00     0.069 A 
HETATM    2  C5  UNL     1      24.029   0.970  51.868  1.00  0.00     0.050 A 
HETATM    3  C6  UNL     1      23.685   0.260  52.990  1.00  0.00     0.041 A 
HETATM    4  C7  UNL     1      24.632  -0.581  53.541  1.00  0.00     0.141 A 
HETATM    5  N3  UNL     1      24.309  -1.282  54.639  1.00  0.00    -0.224 NA
HETATM    6  C13 UNL     1      23.074  -1.137  55.155  1.00  0.00     0.236 A 
HETATM    7  N4  UNL     1      22.114  -0.316  54.638  1.00  0.00    -0.241 NA
HETATM    8  C14 UNL     1      22.421   0.407  53.522  1.00  0.00     0.075 A 
HETATM    9  C15 UNL     1      21.532   1.255  52.927  1.00  0.00     0.071 A 
HETATM   10  C16 UNL     1      21.864   1.977  51.796  1.00  0.00     0.097 A 
ENDROOT
BRANCH   4  11
HETATM   11  N2  UNL     1      25.933  -0.774  53.046  1.00  0.00    -0.342 N 
HETATM   12  H8  UNL     1      26.314  -1.482  52.386  1.00  0.00     0.167 HD
BRANCH  11  13
HETATM   13  C8  UNL     1      27.060   0.039  53.388  1.00  0.00     0.036 A 
HETATM   14  C9  UNL     1      28.169  -0.639  53.704  1.00  0.00     0.030 A 
HETATM   15  C10 UNL     1      29.227   0.312  54.027  1.00  0.00     0.042 A 
HETATM   16  C11 UNL     1      28.733   1.529  53.900  1.00  0.00     0.118 A 
HETATM   17  F1  UNL     1      29.212   2.802  54.059  1.00  0.00    -0.209 F 
HETATM   18  C12 UNL     1      27.312   1.491  53.483  1.00  0.00     0.194 A 
HETATM   19 CL1  UNL     1      27.143   2.291  51.915  1.00  0.00    -0.111 Cl
ENDBRANCH  11  13
ENDBRANCH   4  11
BRANCH   1  20
HETATM   20  N1  UNL     1      23.565   2.550  50.077  1.00  0.00    -0.325 N 
HETATM   21  C3  UNL     1      24.182   3.804  50.297  1.00  0.00     0.221 C 
HETATM   22  O1  UNL     1      24.319   4.228  51.477  1.00  0.00    -0.273 OA
HETATM   23  H6  UNL     1      23.411   2.121  49.132  1.00  0.00     0.169 HD
BRANCH  21  24
HETATM   24  C2  UNL     1      24.649   4.576  49.091  1.00  0.00     0.098 C 
HETATM   25  C1  UNL     1      26.117   4.873  49.165  1.00  0.00     0.014 C 
ENDBRANCH  21  24
ENDBRANCH   1  20
BRANCH  10  26
HETATM   26  O2  UNL     1      20.966   2.852  51.173  1.00  0.00    -0.354 OA
HETATM   27  C17 UNL     1      20.756   4.149  51.748  1.00  0.00     0.210 C 
ENDBRANCH  10  26
TORSDOF 5
ENDMDL
MODEL 5
REMARK VINA RESULT:      -7.9      3.433      6.139
REMARK  5 active torsions:
REMARK  status: ('A' for Active; 'I' for Inactive)
REMARK    1  A    between atoms: C2_2  and  C3_3 
REMARK       I    between atoms: C3_3  and  N1_5 
REMARK    2  A    between atoms: N1_5  and  C4_6 
REMARK    3  A    between atoms: C7_9  and  N2_10 
REMARK    4  A    between atoms: N2_10  and  C8_11 
REMARK    5  A    between atoms: C16_23  and  O2_24 
ROOT
HETATM    1  C4  UNL     1      24.866   1.203  53.300  1.00  0.00     0.069 A 
HETATM    2  C5  UNL     1      24.813   2.384  52.567  1.00  0.00     0.050 A 
HETATM    3  C6  UNL     1      23.783   2.643  51.698  1.00  0.00     0.041 A 
HETATM    4  C7  UNL     1      23.802   3.839  51.006  1.00  0.00     0.141 A 
HETATM    5  N3  UNL     1      22.801   4.104  50.153  1.00  0.00    -0.224 NA
HETATM    6  C13 UNL     1      21.819   3.194  50.009  1.00  0.00     0.236 A 
HETATM    7  N4  UNL     1      21.768   2.004  50.676  1.00  0.00    -0.241 NA
HETATM    8  C14 UNL     1      22.776   1.712  51.548  1.00  0.00     0.075 A 
HETATM    9  C15 UNL     1      22.818   0.551  52.263  1.00  0.00     0.071 A 
HETATM   10  C16 UNL     1      23.849   0.276  53.142  1.00  0.00     0.097 A 
ENDROOT
BRANCH   4  11
HETATM   11  N2  UNL     1      24.798   4.824  51.116  1.00  0.00    -0.342 N 
HETATM   12  H8  UNL     1      25.038   5.467  51.898  1.00  0.00     0.167 HD
BRANCH  11  13
HETATM   13  C8  UNL     1      25.738   5.146  50.087  1.00  0.00     0.036 A 
HETATM   14  C9  UNL     1      26.595   4.165  49.779  1.00  0.00     0.030 A 
HETATM   15  C10 UNL     1      27.486   4.631  48.723  1.00  0.00     0.042 A 
HETATM   16  C11 UNL     1      27.148   5.872  48.423  1.00  0.00     0.118 A 
HETATM   17  F1  UNL     1      27.592   6.823  47.543  1.00  0.00    -0.209 F 
HETATM   18  C12 UNL     1      26.009   6.333  49.250  1.00  0.00     0.194 A 
HETATM   19 CL1  UNL     1      24.642   6.719  48.197  1.00  0.00    -0.111 Cl
ENDBRANCH  11  13
ENDBRANCH   4  11
BRANCH   1  20
HETATM   20  N1  UNL     1      25.981   1.003  54.193  1.00  0.00    -0.325 N 
HETATM   21  C3  UNL     1      27.119   0.370  53.641  1.00  0.00     0.221 C 
HETATM   22  O1  UNL     1      27.106   0.020  52.429  1.00  0.00    -0.273 OA
HETATM   23  H6  UNL     1      25.904   1.326  55.188  1.00  0.00     0.169 HD
BRANCH  21  24
HETATM   24  C2  UNL     1      28.302   0.144  54.545  1.00  0.00     0.098 C 
HETATM   25  C1  UNL     1      29.434  -0.513  53.812  1.00  0.00     0.014 C 
ENDBRANCH  21  24
ENDBRANCH   1  20
BRANCH  10  26
HETATM   26  O2  UNL     1      23.909  -0.910  53.882  1.00  0.00    -0.354 OA
HETATM   27  C17 UNL     1      22.876  -1.176  54.841  1.00  0.00     0.210 C 
ENDBRANCH  10  26
TORSDOF 5
ENDMDL
MODEL 6
REMARK VINA RESULT:      -7.9      3.538      6.232
REMARK  5 active torsions:
REMARK  status: ('A' for Active; 'I' for Inactive)
REMARK    1  A    between atoms: C2_2  and  C3_3 
REMARK       I    between atoms: C3_3  and  N1_5 
REMARK    2  A    between atoms: N1_5  and  C4_6 
REMARK    3  A    between atoms: C7_9  and  N2_10 
REMARK    4  A    between atoms: N2_10  and  C8_11 
REMARK    5  A    between atoms: C16_23  and  O2_24 
ROOT
HETATM    1  C4  UNL     1      25.141   2.045  53.436  1.00  0.00     0.069 A 
HETATM    2  C5  UNL     1      24.435   3.143  52.957  1.00  0.00     0.050 A 
HETATM    3  C6  UNL     1      23.187   3.005  52.403  1.00  0.00     0.041 A 
HETATM    4  C7  UNL     1      22.549   4.144  51.950  1.00  0.00     0.141 A 
HETATM    5  N3  UNL     1      21.328   4.024  51.406  1.00  0.00    -0.224 NA
HETATM    6  C13 UNL     1      20.777   2.798  51.326  1.00  0.00     0.236 A 
HETATM    7  N4  UNL     1      21.378   1.653  51.762  1.00  0.00    -0.241 NA
HETATM    8  C14 UNL     1      22.619   1.751  52.319  1.00  0.00     0.075 A 
HETATM    9  C15 UNL     1      23.305   0.667  52.786  1.00  0.00     0.071 A 
HETATM   10  C16 UNL     1      24.562   0.789  53.347  1.00  0.00     0.097 A 
ENDROOT
BRANCH   4  11
HETATM   11  N2  UNL     1      23.073   5.446  52.008  1.00  0.00    -0.342 N 
HETATM   12  H8  UNL     1      23.068   6.150  52.774  1.00  0.00     0.167 HD
BRANCH  11  13
HETATM   13  C8  UNL     1      23.770   6.089  50.936  1.00  0.00     0.036 A 
HETATM   14  C9  UNL     1      24.073   7.374  51.152  1.00  0.00     0.030 A 
HETATM   15  C10 UNL     1      24.776   7.895  49.984  1.00  0.00     0.042 A 
HETATM   16  C11 UNL     1      24.876   6.918  49.101  1.00  0.00     0.118 A 
HETATM   17  F1  UNL     1      25.412   6.783  47.848  1.00  0.00    -0.209 F 
HETATM   18  C12 UNL     1      24.253   5.673  49.604  1.00  0.00     0.194 A 
HETATM   19 CL1  UNL     1      25.485   4.410  49.718  1.00  0.00    -0.111 Cl
ENDBRANCH  11  13
ENDBRANCH   4  11
BRANCH   1  20
HETATM   20  N1  UNL     1      26.448   2.268  54.005  1.00  0.00    -0.325 N 
HETATM   21  C3  UNL     1      27.532   2.286  53.097  1.00  0.00     0.221 C 
HETATM   22  O1  UNL     1      27.312   2.110  51.867  1.00  0.00    -0.273 OA
HETATM   23  H6  UNL     1      26.539   2.406  55.042  1.00  0.00     0.169 HD
BRANCH  21  24
HETATM   24  C2  UNL     1      28.911   2.518  53.656  1.00  0.00     0.098 C 
HETATM   25  C1  UNL     1      29.391   1.332  54.439  1.00  0.00     0.014 C 
ENDBRANCH  21  24
ENDBRANCH   1  20
BRANCH  10  26
HETATM   26  O2  UNL     1      25.279  -0.310  53.831  1.00  0.00    -0.354 OA
HETATM   27  C17 UNL     1      26.071  -1.075  52.912  1.00  0.00     0.210 C 
ENDBRANCH  10  26
TORSDOF 5
ENDMDL
MODEL 7
REMARK VINA RESULT:      -7.8      3.643      6.284
REMARK  5 active torsions:
REMARK  status: ('A' for Active; 'I' for Inactive)
REMARK    1  A    between atoms: C2_2  and  C3_3 
REMARK       I    between atoms: C3_3  and  N1_5 
REMARK    2  A    between atoms: N1_5  and  C4_6 
REMARK    3  A    between atoms: C7_9  and  N2_10 
REMARK    4  A    between atoms: N2_10  and  C8_11 
REMARK    5  A    between atoms: C16_23  and  O2_24 
ROOT
HETATM    1  C4  UNL     1      25.726   0.210  52.893  1.00  0.00     0.069 A 
HETATM    2  C5  UNL     1      25.259   1.089  51.922  1.00  0.00     0.050 A 
HETATM    3  C6  UNL     1      23.925   1.395  51.816  1.00  0.00     0.041 A 
HETATM    4  C7  UNL     1      23.539   2.277  50.825  1.00  0.00     0.141 A 
HETATM    5  N3  UNL     1      22.238   2.586  50.710  1.00  0.00    -0.224 NA
HETATM    6  C13 UNL     1      21.365   2.023  51.566  1.00  0.00     0.236 A 
HETATM    7  N4  UNL     1      21.711   1.149  52.556  1.00  0.00    -0.241 NA
HETATM    8  C14 UNL     1      23.028   0.820  52.691  1.00  0.00     0.075 A 
HETATM    9  C15 UNL     1      23.477  -0.043  53.648  1.00  0.00     0.071 A 
HETATM   10  C16 UNL     1      24.816  -0.362  53.768  1.00  0.00     0.097 A 
ENDROOT
BRANCH   4  11
HETATM   11  N2  UNL     1      24.404   2.895  49.906  1.00  0.00    -0.342 N 
HETATM   12  H8  UNL     1      24.882   2.521  49.061  1.00  0.00     0.167 HD
BRANCH  11  13
HETATM   13  C8  UNL     1      24.814   4.264  49.971  1.00  0.00     0.036 A 
HETATM   14  C9  UNL     1      25.894   4.565  49.240  1.00  0.00     0.030 A 
HETATM   15  C10 UNL     1      26.193   5.983  49.402  1.00  0.00     0.042 A 
HETATM   16  C11 UNL     1      25.294   6.497  50.221  1.00  0.00     0.118 A 
HETATM   17  F1  UNL     1      25.045   7.737  50.748  1.00  0.00    -0.209 F 
HETATM   18  C12 UNL     1      24.326   5.470  50.670  1.00  0.00     0.194 A 
HETATM   19 CL1  UNL     1      22.703   5.926  50.137  1.00  0.00    -0.111 Cl
ENDBRANCH  11  13
ENDBRANCH   4  11
BRANCH   1  20
HETATM   20  N1  UNL     1      27.142  -0.064  52.943  1.00  0.00    -0.325 N 
HETATM   21  C3  UNL     1      27.915   0.788  53.767  1.00  0.00     0.221 C 
HETATM   22  O1  UNL     1      27.347   1.720  54.400  1.00  0.00    -0.273 OA
HETATM   23  H6  UNL     1      27.530  -0.862  52.383  1.00  0.00     0.169 HD
BRANCH  21  24
HETATM   24  C2  UNL     1      29.397   0.531  53.844  1.00  0.00     0.098 C 
HETATM   25  C1  UNL     1      29.725  -0.893  53.507  1.00  0.00     0.014 C 
ENDBRANCH  21  24
ENDBRANCH   1  20
BRANCH  10  26
HETATM   26  O2  UNL     1      25.294  -1.245  54.742  1.00  0.00    -0.354 OA
HETATM   27  C17 UNL     1      25.157  -0.888  56.124  1.00  0.00     0.210 C 
ENDBRANCH  10  26
TORSDOF 5
ENDMDL
MODEL 8
REMARK VINA RESULT:      -7.7      3.462      5.811
REMARK  5 active torsions:
REMARK  status: ('A' for Active; 'I' for Inactive)
REMARK    1  A    between atoms: C2_2  and  C3_3 
REMARK       I    between atoms: C3_3  and  N1_5 
REMARK    2  A    between atoms: N1_5  and  C4_6 
REMARK    3  A    between atoms: C7_9  and  N2_10 
REMARK    4  A    between atoms: N2_10  and  C8_11 
REMARK    5  A    between atoms: C16_23  and  O2_24 
ROOT
HETATM    1  C4  UNL     1      26.274   0.825  52.372  1.00  0.00     0.069 A 
HETATM    2  C5  UNL     1      24.978   0.326  52.444  1.00  0.00     0.050 A 
HETATM    3  C6  UNL     1      24.513  -0.298  53.574  1.00  0.00     0.041 A 
HETATM    4  C7  UNL     1      23.213  -0.767  53.568  1.00  0.00     0.141 A 
HETATM    5  N3  UNL     1      22.745  -1.379  54.667  1.00  0.00    -0.224 NA
HETATM    6  C13 UNL     1      23.563  -1.508  55.729  1.00  0.00     0.236 A 
HETATM    7  N4  UNL     1      24.850  -1.057  55.770  1.00  0.00    -0.241 NA
HETATM    8  C14 UNL     1      25.347  -0.432  54.665  1.00  0.00     0.075 A 
HETATM    9  C15 UNL     1      26.621   0.055  54.604  1.00  0.00     0.071 A 
HETATM   10  C16 UNL     1      27.104   0.685  53.473  1.00  0.00     0.097 A 
ENDROOT
BRANCH   4  11
HETATM   11  N2  UNL     1      22.317  -0.660  52.492  1.00  0.00    -0.342 N 
HETATM   12  H8  UNL     1      22.023  -1.355  51.776  1.00  0.00     0.167 HD
BRANCH  11  13
HETATM   13  C8  UNL     1      21.584   0.524  52.161  1.00  0.00     0.036 A 
HETATM   14  C9  UNL     1      21.054   1.170  53.206  1.00  0.00     0.030 A 
HETATM   15  C10 UNL     1      20.343   2.347  52.722  1.00  0.00     0.042 A 
HETATM   16  C11 UNL     1      20.460   2.381  51.407  1.00  0.00     0.118 A 
HETATM   17  F1  UNL     1      20.029   3.211  50.407  1.00  0.00    -0.209 F 
HETATM   18  C12 UNL     1      21.256   1.236  50.909  1.00  0.00     0.194 A 
HETATM   19 CL1  UNL     1      22.706   1.841  50.099  1.00  0.00    -0.111 Cl
ENDBRANCH  11  13
ENDBRANCH   4  11
BRANCH   1  20
HETATM   20  N1  UNL     1      26.692   1.469  51.150  1.00  0.00    -0.325 N 
HETATM   21  C3  UNL     1      26.148   2.750  50.900  1.00  0.00     0.221 C 
HETATM   22  O1  UNL     1      25.345   3.255  51.732  1.00  0.00    -0.273 OA
HETATM   23  H6  UNL     1      27.365   0.974  50.515  1.00  0.00     0.169 HD
BRANCH  21  24
HETATM   24  C2  UNL     1      26.563   3.452  49.634  1.00  0.00     0.098 C 
HETATM   25  C1  UNL     1      25.706   4.654  49.368  1.00  0.00     0.014 C 
ENDBRANCH  21  24
ENDBRANCH   1  20
BRANCH  10  26
HETATM   26  O2  UNL     1      28.407   1.190  53.393  1.00  0.00    -0.354 OA
HETATM   27  C17 UNL     1      29.502   0.327  53.725  1.00  0.00     0.210 C 
ENDBRANCH  10  26
TORSDOF 5
ENDMDL
MODEL 9
REMARK VINA RESULT:      -7.5      3.214      5.941
REMARK  5 active torsions:
REMARK  status: ('A' for Active; 'I' for Inactive)
REMARK    1  A    between atoms: C2_2  and  C3_3 
REMARK       I    between atoms: C3_3  and  N1_5 
REMARK    2  A    between atoms: N1_5  and  C4_6 
REMARK    3  A    between atoms: C7_9  and  N2_10 
REMARK    4  A    between atoms: N2_10  and  C8_11 
REMARK    5  A    between atoms: C16_23  and  O2_24 
ROOT
HETATM    1  C4  UNL     1      25.007  -0.281  53.529  1.00  0.00     0.069 A 
HETATM    2  C5  UNL     1      24.306   0.395  52.536  1.00  0.00     0.050 A 
HETATM    3  C6  UNL     1      22.940   0.521  52.583  1.00  0.00     0.041 A 
HETATM    4  C7  UNL     1      22.316   1.206  51.558  1.00  0.00     0.141 A 
HETATM    5  N3  UNL     1      20.981   1.336  51.592  1.00  0.00    -0.224 NA
HETATM    6  C13 UNL     1      20.307   0.795  52.624  1.00  0.00     0.236 A 
HETATM    7  N4  UNL     1      20.890   0.112  53.652  1.00  0.00    -0.241 NA
HETATM    8  C14 UNL     1      22.246  -0.033  53.639  1.00  0.00     0.075 A 
HETATM    9  C15 UNL     1      22.926  -0.698  54.619  1.00  0.00     0.071 A 
HETATM   10  C16 UNL     1      24.301  -0.833  54.585  1.00  0.00     0.097 A 
ENDROOT
BRANCH   4  11
HETATM   11  N2  UNL     1      22.966   1.792  50.459  1.00  0.00    -0.342 N 
HETATM   12  H8  UNL     1      23.075   1.465  49.478  1.00  0.00     0.167 HD
BRANCH  11  13
HETATM   13  C8  UNL     1      23.650   3.048  50.496  1.00  0.00     0.036 A 
HETATM   14  C9  UNL     1      23.034   4.005  51.200  1.00  0.00     0.030 A 
HETATM   15  C10 UNL     1      23.840   5.219  51.151  1.00  0.00     0.042 A 
HETATM   16  C11 UNL     1      24.913   4.966  50.424  1.00  0.00     0.118 A 
HETATM   17  F1  UNL     1      26.013   5.676  50.022  1.00  0.00    -0.209 F 
HETATM   18  C12 UNL     1      24.911   3.570  49.932  1.00  0.00     0.194 A 
HETATM   19 CL1  UNL     1      26.321   2.721  50.579  1.00  0.00    -0.111 Cl
ENDBRANCH  11  13
ENDBRANCH   4  11
BRANCH   1  20
HETATM   20  N1  UNL     1      26.442  -0.372  53.411  1.00  0.00    -0.325 N 
HETATM   21  C3  UNL     1      27.186   0.685  53.986  1.00  0.00     0.221 C 
HETATM   22  O1  UNL     1      26.577   1.630  54.558  1.00  0.00    -0.273 OA
HETATM   23  H6  UNL     1      26.864  -1.196  52.918  1.00  0.00     0.169 HD
BRANCH  21  24
HETATM   24  C2  UNL     1      28.687   0.623  53.882  1.00  0.00     0.098 C 
HETATM   25  C1  UNL     1      29.158  -0.769  53.581  1.00  0.00     0.014 C 
ENDBRANCH  21  24
ENDBRANCH   1  20
BRANCH  10  26
HETATM   26  O2  UNL     1      25.013  -1.511  55.580  1.00  0.00    -0.354 OA
HETATM   27  C17 UNL     1      25.187  -0.879  56.856  1.00  0.00     0.210 C 
ENDBRANCH  10  26
TORSDOF 5
ENDMDL
