MODEL 1
REMARK VINA RESULT:      -7.8      0.000      0.000
REMARK  3 active torsions:
REMARK  status: ('A' for Active; 'I' for Inactive)
REMARK    1  A    between atoms: C2_2  and  O1_3 
REMARK    2  A    between atoms: O1_3  and  C3_4 
REMARK    3  A    between atoms: C9_13  and  O2_14 
ROOT
HETATM    1  C3  UNL     1      26.711   1.872  53.951  1.00  0.00     0.261 C 
HETATM    2  N1  UNL     1      25.712   2.924  54.374  1.00  0.00    -0.348 N 
HETATM    3  C4  UNL     1      24.939   3.036  53.121  1.00  0.00     0.119 C 
HETATM    4  N2  UNL     1      24.130   4.103  53.071  1.00  0.00    -0.228 NA
HETATM    5  C5  UNL     1      22.982   4.241  52.176  1.00  0.00     0.231 C 
HETATM    6  N3  UNL     1      22.271   3.330  51.487  1.00  0.00    -0.257 NA
HETATM    7  C6  UNL     1      22.733   1.955  51.534  1.00  0.00     0.213 C 
HETATM    8  C7  UNL     1      24.132   2.074  50.931  1.00  0.00     0.062 C 
HETATM    9  C8  UNL     1      25.018   2.058  51.955  1.00  0.00     0.103 A 
HETATM   10  C9  UNL     1      25.720   0.800  51.549  1.00  0.00     0.148 A 
HETATM   11  C10 UNL     1      26.043   1.194  52.762  1.00  0.00     0.158 A 
HETATM   12  O3  UNL     1      25.006   0.424  53.483  1.00  0.00    -0.366 OA
HETATM   13  C11 UNL     1      24.245  -0.562  52.879  1.00  0.00     0.210 C 
HETATM   14  C12 UNL     1      22.798  -0.626  53.149  1.00  0.00    -0.008 A 
HETATM   15  C13 UNL     1      22.279  -1.346  54.198  1.00  0.00     0.011 A 
HETATM   16  C14 UNL     1      20.955  -1.525  54.546  1.00  0.00     0.001 A 
HETATM   17  C15 UNL     1      20.030  -0.900  53.734  1.00  0.00     0.002 A 
HETATM   18  C16 UNL     1      20.477  -0.158  52.660  1.00  0.00     0.030 A 
HETATM   19  C17 UNL     1      21.811  -0.005  52.350  1.00  0.00     0.038 A 
HETATM   20  N4  UNL     1      21.974   0.881  51.181  1.00  0.00    -0.366 N 
HETATM   21  H7  UNL     1      25.314   3.572  55.060  1.00  0.00     0.163 HD
HETATM   22  H18 UNL     1      21.477   0.494  50.354  1.00  0.00     0.161 HD
ENDROOT
BRANCH   1  23
HETATM   23  O1  UNL     1      26.946   1.010  54.981  1.00  0.00    -0.364 OA
BRANCH  23  24
HETATM   24  C2  UNL     1      28.152   0.314  54.858  1.00  0.00     0.166 C 
HETATM   25  C1  UNL     1      29.250   1.210  54.331  1.00  0.00     0.033 C 
ENDBRANCH  23  24
ENDBRANCH   1  23
BRANCH  10  26
HETATM   26  O2  UNL     1      26.569  -0.232  51.754  1.00  0.00    -0.382 OA
HETATM   27  H11 UNL     1      26.192  -1.073  52.179  1.00  0.00     0.210 HD
ENDBRANCH  10  26
TORSDOF 3
ENDMDL
MODEL 2
REMARK VINA RESULT:      -7.3      2.794      5.807
REMARK  3 active torsions:
REMARK  status: ('A' for Active; 'I' for Inactive)
REMARK    1  A    between atoms: C2_2  and  O1_3 
REMARK    2  A    between atoms: O1_3  and  C3_4 
REMARK    3  A    between atoms: C9_13  and  O2_14 
ROOT
HETATM    1  C3  UNL     1      20.145   2.267  49.686  1.00  0.00     0.261 C 
HETATM    2  N1  UNL     1      21.365   2.343  48.798  1.00  0.00    -0.348 N 
HETATM    3  C4  UNL     1      22.117   3.392  49.516  1.00  0.00     0.119 C 
HETATM    4  N2  UNL     1      23.145   3.901  48.822  1.00  0.00    -0.228 NA
HETATM    5  C5  UNL     1      24.275   4.620  49.408  1.00  0.00     0.231 C 
HETATM    6  N3  UNL     1      24.747   4.670  50.666  1.00  0.00    -0.257 NA
HETATM    7  C6  UNL     1      23.987   3.972  51.688  1.00  0.00     0.213 C 
HETATM    8  C7  UNL     1      22.639   4.688  51.618  1.00  0.00     0.062 C 
HETATM    9  C8  UNL     1      21.794   3.895  50.917  1.00  0.00     0.103 A 
HETATM   10  C9  UNL     1      20.818   3.668  52.029  1.00  0.00     0.148 A 
HETATM   11  C10 UNL     1      20.617   2.867  51.004  1.00  0.00     0.158 A 
HETATM   12  O3  UNL     1      21.469   1.754  51.478  1.00  0.00    -0.366 OA
HETATM   13  C11 UNL     1      21.974   1.688  52.765  1.00  0.00     0.210 C 
HETATM   14  C12 UNL     1      23.374   1.280  52.972  1.00  0.00    -0.008 A 
HETATM   15  C13 UNL     1      23.740  -0.036  53.128  1.00  0.00     0.011 A 
HETATM   16  C14 UNL     1      24.995  -0.558  53.364  1.00  0.00     0.001 A 
HETATM   17  C15 UNL     1      26.021   0.362  53.458  1.00  0.00     0.002 A 
HETATM   18  C16 UNL     1      25.730   1.704  53.311  1.00  0.00     0.030 A 
HETATM   19  C17 UNL     1      24.460   2.181  53.074  1.00  0.00     0.038 A 
HETATM   20  N4  UNL     1      24.476   3.648  52.916  1.00  0.00    -0.366 N 
HETATM   21  H7  UNL     1      21.913   2.050  47.984  1.00  0.00     0.163 HD
HETATM   22  H18 UNL     1      24.855   4.105  53.769  1.00  0.00     0.161 HD
ENDROOT
BRANCH   1  23
HETATM   23  O1  UNL     1      19.744   0.970  49.816  1.00  0.00    -0.364 OA
BRANCH  23  24
HETATM   24  C2  UNL     1      18.388   0.839  50.134  1.00  0.00     0.166 C 
HETATM   25  C1  UNL     1      18.194  -0.045  51.346  1.00  0.00     0.033 C 
ENDBRANCH  23  24
ENDBRANCH   1  23
BRANCH  10  26
HETATM   26  O2  UNL     1      19.762   3.050  52.604  1.00  0.00    -0.382 OA
HETATM   27  H11 UNL     1      18.833   3.327  52.301  1.00  0.00     0.210 HD
ENDBRANCH  10  26
TORSDOF 3
ENDMDL
MODEL 3
REMARK VINA RESULT:      -7.2      2.505      4.744
REMARK  3 active torsions:
REMARK  status: ('A' for Active; 'I' for Inactive)
REMARK    1  A    between atoms: C2_2  and  O1_3 
REMARK    2  A    between atoms: O1_3  and  C3_4 
REMARK    3  A    between atoms: C9_13  and  O2_14 
ROOT
HETATM    1  C3  UNL     1      23.072   5.381  51.192  1.00  0.00     0.261 C 
HETATM    2  N1  UNL     1      22.180   5.121  52.384  1.00  0.00    -0.348 N 
HETATM    3  C4  UNL     1      21.679   3.780  52.019  1.00  0.00     0.119 C 
HETATM    4  N2  UNL     1      20.632   3.370  52.748  1.00  0.00    -0.228 NA
HETATM    5  C5  UNL     1      20.209   1.978  52.894  1.00  0.00     0.231 C 
HETATM    6  N3  UNL     1      20.855   0.819  52.673  1.00  0.00    -0.257 NA
HETATM    7  C6  UNL     1      22.188   0.901  52.105  1.00  0.00     0.213 C 
HETATM    8  C7  UNL     1      21.917   1.598  50.772  1.00  0.00     0.062 C 
HETATM    9  C8  UNL     1      22.259   2.901  50.917  1.00  0.00     0.103 A 
HETATM   10  C9  UNL     1      23.347   2.904  49.891  1.00  0.00     0.148 A 
HETATM   11  C10 UNL     1      23.345   3.990  50.633  1.00  0.00     0.158 A 
HETATM   12  O3  UNL     1      24.279   3.499  51.671  1.00  0.00    -0.366 OA
HETATM   13  C11 UNL     1      25.021   2.340  51.527  1.00  0.00     0.210 C 
HETATM   14  C12 UNL     1      25.138   1.410  52.664  1.00  0.00    -0.008 A 
HETATM   15  C13 UNL     1      26.132   1.524  53.606  1.00  0.00     0.011 A 
HETATM   16  C14 UNL     1      26.384   0.711  54.693  1.00  0.00     0.001 A 
HETATM   17  C15 UNL     1      25.526  -0.358  54.856  1.00  0.00     0.002 A 
HETATM   18  C16 UNL     1      24.501  -0.536  53.949  1.00  0.00     0.030 A 
HETATM   19  C17 UNL     1      24.285   0.302  52.877  1.00  0.00     0.038 A 
HETATM   20  N4  UNL     1      23.090  -0.118  52.121  1.00  0.00    -0.366 N 
HETATM   21  H7  UNL     1      21.763   5.390  53.280  1.00  0.00     0.163 HD
HETATM   22  H18 UNL     1      23.199  -1.091  51.772  1.00  0.00     0.161 HD
ENDROOT
BRANCH   1  23
HETATM   23  O1  UNL     1      24.209   6.017  51.591  1.00  0.00    -0.364 OA
BRANCH  23  24
HETATM   24  C2  UNL     1      24.631   7.009  50.700  1.00  0.00     0.166 C 
HETATM   25  C1  UNL     1      23.510   7.976  50.389  1.00  0.00     0.033 C 
ENDBRANCH  23  24
ENDBRANCH   1  23
BRANCH  10  26
HETATM   26  O2  UNL     1      24.408   3.449  49.253  1.00  0.00    -0.382 OA
HETATM   27  H11 UNL     1      24.836   4.269  49.671  1.00  0.00     0.210 HD
ENDBRANCH  10  26
TORSDOF 3
ENDMDL
MODEL 4
REMARK VINA RESULT:      -7.1      9.633     12.014
REMARK  3 active torsions:
REMARK  status: ('A' for Active; 'I' for Inactive)
REMARK    1  A    between atoms: C2_2  and  O1_3 
REMARK    2  A    between atoms: O1_3  and  C3_4 
REMARK    3  A    between atoms: C9_13  and  O2_14 
ROOT
HETATM    1  C3  UNL     1      29.415   7.874  48.086  1.00  0.00     0.261 C 
HETATM    2  N1  UNL     1      29.551   7.826  46.582  1.00  0.00    -0.348 N 
HETATM    3  C4  UNL     1      30.952   8.275  46.454  1.00  0.00     0.119 C 
HETATM    4  N2  UNL     1      31.307   8.610  45.206  1.00  0.00    -0.228 NA
HETATM    5  C5  UNL     1      32.684   8.684  44.720  1.00  0.00     0.231 C 
HETATM    6  N3  UNL     1      33.830   8.165  45.198  1.00  0.00    -0.257 NA
HETATM    7  C6  UNL     1      33.762   7.467  46.469  1.00  0.00     0.213 C 
HETATM    8  C7  UNL     1      33.271   8.570  47.405  1.00  0.00     0.062 C 
HETATM    9  C8  UNL     1      31.946   8.374  47.605  1.00  0.00     0.103 A 
HETATM   10  C9  UNL     1      32.033   8.136  49.079  1.00  0.00     0.148 A 
HETATM   11  C10 UNL     1      30.855   7.823  48.582  1.00  0.00     0.158 A 
HETATM   12  O3  UNL     1      31.151   6.402  48.300  1.00  0.00    -0.366 OA
HETATM   13  C11 UNL     1      32.282   5.760  48.776  1.00  0.00     0.210 C 
HETATM   14  C12 UNL     1      33.037   4.867  47.879  1.00  0.00    -0.008 A 
HETATM   15  C13 UNL     1      32.746   3.530  47.759  1.00  0.00     0.011 A 
HETATM   16  C14 UNL     1      33.386   2.576  46.994  1.00  0.00     0.001 A 
HETATM   17  C15 UNL     1      34.463   3.022  46.254  1.00  0.00     0.002 A 
HETATM   18  C16 UNL     1      34.816   4.355  46.324  1.00  0.00     0.030 A 
HETATM   19  C17 UNL     1      34.145   5.274  47.100  1.00  0.00     0.038 A 
HETATM   20  N4  UNL     1      34.724   6.620  46.928  1.00  0.00    -0.366 N 
HETATM   21  H7  UNL     1      29.180   7.648  45.644  1.00  0.00     0.163 HD
HETATM   22  H18 UNL     1      35.730   6.625  47.191  1.00  0.00     0.161 HD
ENDROOT
BRANCH   1  23
HETATM   23  O1  UNL     1      28.675   6.815  48.522  1.00  0.00    -0.364 OA
BRANCH  23  24
HETATM   24  C2  UNL     1      27.340   6.865  48.108  1.00  0.00     0.166 C 
HETATM   25  C1  UNL     1      26.519   5.786  48.778  1.00  0.00     0.033 C 
ENDBRANCH  23  24
ENDBRANCH   1  23
BRANCH  10  26
HETATM   26  O2  UNL     1      31.530   7.751  50.275  1.00  0.00    -0.382 OA
HETATM   27  H11 UNL     1      30.536   7.883  50.430  1.00  0.00     0.210 HD
ENDBRANCH  10  26
TORSDOF 3
ENDMDL
MODEL 5
REMARK VINA RESULT:      -6.8      8.289      9.687
REMARK  3 active torsions:
REMARK  status: ('A' for Active; 'I' for Inactive)
REMARK    1  A    between atoms: C2_2  and  O1_3 
REMARK    2  A    between atoms: O1_3  and  C3_4 
REMARK    3  A    between atoms: C9_13  and  O2_14 
ROOT
HETATM    1  C3  UNL     1      32.502   7.554  48.933  1.00  0.00     0.261 C 
HETATM    2  N1  UNL     1      31.775   8.366  49.980  1.00  0.00    -0.348 N 
HETATM    3  C4  UNL     1      30.811   9.070  49.109  1.00  0.00     0.119 C 
HETATM    4  N2  UNL     1      30.185  10.095  49.703  1.00  0.00    -0.228 NA
HETATM    5  C5  UNL     1      28.928  10.685  49.245  1.00  0.00     0.231 C 
HETATM    6  N3  UNL     1      27.968  10.219  48.425  1.00  0.00    -0.257 NA
HETATM    7  C6  UNL     1      28.210   8.941  47.781  1.00  0.00     0.213 C 
HETATM    8  C7  UNL     1      29.475   9.232  46.974  1.00  0.00     0.062 C 
HETATM    9  C8  UNL     1      30.521   8.709  47.657  1.00  0.00     0.103 A 
HETATM   10  C9  UNL     1      30.930   7.724  46.609  1.00  0.00     0.148 A 
HETATM   11  C10 UNL     1      31.529   7.517  47.762  1.00  0.00     0.158 A 
HETATM   12  O3  UNL     1      30.534   6.571  48.314  1.00  0.00    -0.366 OA
HETATM   13  C11 UNL     1      29.530   6.003  47.548  1.00  0.00     0.210 C 
HETATM   14  C12 UNL     1      28.166   5.912  48.097  1.00  0.00    -0.008 A 
HETATM   15  C13 UNL     1      27.742   4.834  48.836  1.00  0.00     0.011 A 
HETATM   16  C14 UNL     1      26.494   4.599  49.376  1.00  0.00     0.001 A 
HETATM   17  C15 UNL     1      25.544   5.574  49.143  1.00  0.00     0.002 A 
HETATM   18  C16 UNL     1      25.897   6.688  48.408  1.00  0.00     0.030 A 
HETATM   19  C17 UNL     1      27.158   6.883  47.888  1.00  0.00     0.038 A 
HETATM   20  N4  UNL     1      27.240   8.184  47.198  1.00  0.00    -0.366 N 
HETATM   21  H7  UNL     1      31.617   8.664  50.947  1.00  0.00     0.163 HD
HETATM   22  H18 UNL     1      26.545   8.235  46.426  1.00  0.00     0.161 HD
ENDROOT
BRANCH   1  23
HETATM   23  O1  UNL     1      32.784   6.312  49.419  1.00  0.00    -0.364 OA
BRANCH  23  24
HETATM   24  C2  UNL     1      33.801   5.660  48.716  1.00  0.00     0.166 C 
HETATM   25  C1  UNL     1      35.037   6.525  48.614  1.00  0.00     0.033 C 
ENDBRANCH  23  24
ENDBRANCH   1  23
BRANCH  10  26
HETATM   26  O2  UNL     1      31.630   6.659  46.156  1.00  0.00    -0.382 OA
HETATM   27  H11 UNL     1      32.603   6.583  46.436  1.00  0.00     0.210 HD
ENDBRANCH  10  26
TORSDOF 3
ENDMDL
MODEL 6
REMARK VINA RESULT:      -6.7      2.914      4.489
REMARK  3 active torsions:
REMARK  status: ('A' for Active; 'I' for Inactive)
REMARK    1  A    between atoms: C2_2  and  O1_3 
REMARK    2  A    between atoms: O1_3  and  C3_4 
REMARK    3  A    between atoms: C9_13  and  O2_14 
ROOT
HETATM    1  C3  UNL     1      22.775   5.299  50.691  1.00  0.00     0.261 C 
HETATM    2  N1  UNL     1      21.678   5.281  51.729  1.00  0.00    -0.348 N 
HETATM    3  C4  UNL     1      20.869   4.162  51.203  1.00  0.00     0.119 C 
HETATM    4  N2  UNL     1      19.651   4.062  51.753  1.00  0.00    -0.228 NA
HETATM    5  C5  UNL     1      18.824   2.856  51.738  1.00  0.00     0.231 C 
HETATM    6  N3  UNL     1      19.131   1.565  51.521  1.00  0.00    -0.257 NA
HETATM    7  C6  UNL     1      20.500   1.262  51.145  1.00  0.00     0.213 C 
HETATM    8  C7  UNL     1      20.646   2.048  49.842  1.00  0.00     0.062 C 
HETATM    9  C8  UNL     1      21.326   3.184  50.128  1.00  0.00     0.103 A 
HETATM   10  C9  UNL     1      22.510   2.893  49.260  1.00  0.00     0.148 A 
HETATM   11  C10 UNL     1      22.713   3.908  50.073  1.00  0.00     0.158 A 
HETATM   12  O3  UNL     1      23.296   3.129  51.188  1.00  0.00    -0.366 OA
HETATM   13  C11 UNL     1      23.682   1.806  51.060  1.00  0.00     0.210 C 
HETATM   14  C12 UNL     1      23.351   0.850  52.132  1.00  0.00    -0.008 A 
HETATM   15  C13 UNL     1      24.182   0.633  53.204  1.00  0.00     0.011 A 
HETATM   16  C14 UNL     1      24.020  -0.250  54.252  1.00  0.00     0.001 A 
HETATM   17  C15 UNL     1      22.873  -1.019  54.220  1.00  0.00     0.002 A 
HETATM   18  C16 UNL     1      21.989  -0.856  53.173  1.00  0.00     0.030 A 
HETATM   19  C17 UNL     1      22.191   0.041  52.146  1.00  0.00     0.038 A 
HETATM   20  N4  UNL     1      21.053   0.020  51.207  1.00  0.00    -0.366 N 
HETATM   21  H7  UNL     1      21.228   5.636  52.578  1.00  0.00     0.163 HD
HETATM   22  H18 UNL     1      20.925  -0.930  50.805  1.00  0.00     0.161 HD
ENDROOT
BRANCH   1  23
HETATM   23  O1  UNL     1      23.975   5.554  51.284  1.00  0.00    -0.364 OA
BRANCH  23  24
HETATM   24  C2  UNL     1      24.696   6.576  50.660  1.00  0.00     0.166 C 
HETATM   25  C1  UNL     1      25.670   6.019  49.646  1.00  0.00     0.033 C 
ENDBRANCH  23  24
ENDBRANCH   1  23
BRANCH  10  26
HETATM   26  O2  UNL     1      23.767   3.116  48.813  1.00  0.00    -0.382 OA
HETATM   27  H11 UNL     1      24.349   3.753  49.346  1.00  0.00     0.210 HD
ENDBRANCH  10  26
TORSDOF 3
ENDMDL
MODEL 7
REMARK VINA RESULT:      -6.5     20.523     22.292
REMARK  3 active torsions:
REMARK  status: ('A' for Active; 'I' for Inactive)
REMARK    1  A    between atoms: C2_2  and  O1_3 
REMARK    2  A    between atoms: O1_3  and  C3_4 
REMARK    3  A    between atoms: C9_13  and  O2_14 
ROOT
HETATM    1  C3  UNL     1      40.171  -4.559  67.984  1.00  0.00     0.261 C 
HETATM    2  N1  UNL     1      41.337  -3.819  68.597  1.00  0.00    -0.348 N 
HETATM    3  C4  UNL     1      41.205  -2.533  67.883  1.00  0.00     0.119 C 
HETATM    4  N2  UNL     1      42.272  -1.731  67.998  1.00  0.00    -0.228 NA
HETATM    5  C5  UNL     1      42.264  -0.288  67.763  1.00  0.00     0.231 C 
HETATM    6  N3  UNL     1      41.258   0.605  67.721  1.00  0.00    -0.257 NA
HETATM    7  C6  UNL     1      39.907   0.087  67.837  1.00  0.00     0.213 C 
HETATM    8  C7  UNL     1      39.821  -0.838  66.624  1.00  0.00     0.062 C 
HETATM    9  C8  UNL     1      39.990  -2.107  67.067  1.00  0.00     0.103 A 
HETATM   10  C9  UNL     1      38.641  -2.608  66.658  1.00  0.00     0.148 A 
HETATM   11  C10 UNL     1      39.279  -3.448  67.446  1.00  0.00     0.158 A 
HETATM   12  O3  UNL     1      38.739  -2.938  68.725  1.00  0.00    -0.366 OA
HETATM   13  C11 UNL     1      37.681  -2.048  68.795  1.00  0.00     0.210 C 
HETATM   14  C12 UNL     1      37.749  -0.917  69.737  1.00  0.00    -0.008 A 
HETATM   15  C13 UNL     1      37.306  -1.014  71.034  1.00  0.00     0.011 A 
HETATM   16  C14 UNL     1      37.273  -0.036  72.007  1.00  0.00     0.001 A 
HETATM   17  C15 UNL     1      37.746   1.205  71.629  1.00  0.00     0.002 A 
HETATM   18  C16 UNL     1      38.209   1.379  70.340  1.00  0.00     0.030 A 
HETATM   19  C17 UNL     1      38.225   0.372  69.400  1.00  0.00     0.038 A 
HETATM   20  N4  UNL     1      38.819   0.849  68.137  1.00  0.00    -0.366 N 
HETATM   21  H7  UNL     1      42.140  -3.758  69.230  1.00  0.00     0.163 HD
HETATM   22  H18 UNL     1      38.283   1.656  67.759  1.00  0.00     0.161 HD
ENDROOT
BRANCH   1  23
HETATM   23  O1  UNL     1      39.549  -5.316  68.933  1.00  0.00    -0.364 OA
BRANCH  23  24
HETATM   24  C2  UNL     1      38.974  -6.483  68.420  1.00  0.00     0.166 C 
HETATM   25  C1  UNL     1      39.826  -7.075  67.321  1.00  0.00     0.033 C 
ENDBRANCH  23  24
ENDBRANCH   1  23
BRANCH  10  26
HETATM   26  O2  UNL     1      37.641  -3.518  66.647  1.00  0.00    -0.382 OA
HETATM   27  H11 UNL     1      36.857  -3.346  66.025  1.00  0.00     0.210 HD
ENDBRANCH  10  26
TORSDOF 3
ENDMDL
MODEL 8
REMARK VINA RESULT:      -6.5     10.756     12.587
REMARK  3 active torsions:
REMARK  status: ('A' for Active; 'I' for Inactive)
REMARK    1  A    between atoms: C2_2  and  O1_3 
REMARK    2  A    between atoms: O1_3  and  C3_4 
REMARK    3  A    between atoms: C9_13  and  O2_14 
ROOT
HETATM    1  C3  UNL     1      34.666   8.969  45.972  1.00  0.00     0.261 C 
HETATM    2  N1  UNL     1      33.955   8.328  44.803  1.00  0.00    -0.348 N 
HETATM    3  C4  UNL     1      33.929   6.929  45.278  1.00  0.00     0.119 C 
HETATM    4  N2  UNL     1      33.602   6.037  44.334  1.00  0.00    -0.228 NA
HETATM    5  C5  UNL     1      33.105   4.686  44.595  1.00  0.00     0.231 C 
HETATM    6  N3  UNL     1      32.560   4.132  45.693  1.00  0.00    -0.257 NA
HETATM    7  C6  UNL     1      32.507   4.949  46.892  1.00  0.00     0.213 C 
HETATM    8  C7  UNL     1      33.988   5.230  47.143  1.00  0.00     0.062 C 
HETATM    9  C8  UNL     1      34.244   6.484  46.701  1.00  0.00     0.103 A 
HETATM   10  C9  UNL     1      34.636   7.053  48.028  1.00  0.00     0.148 A 
HETATM   11  C10 UNL     1      34.459   7.979  47.110  1.00  0.00     0.158 A 
HETATM   12  O3  UNL     1      33.028   8.233  47.386  1.00  0.00    -0.366 OA
HETATM   13  C11 UNL     1      32.379   7.742  48.506  1.00  0.00     0.210 C 
HETATM   14  C12 UNL     1      31.030   7.167  48.366  1.00  0.00    -0.008 A 
HETATM   15  C13 UNL     1      29.892   7.931  48.462  1.00  0.00     0.011 A 
HETATM   16  C14 UNL     1      28.575   7.525  48.389  1.00  0.00     0.001 A 
HETATM   17  C15 UNL     1      28.372   6.173  48.196  1.00  0.00     0.002 A 
HETATM   18  C16 UNL     1      29.469   5.341  48.088  1.00  0.00     0.030 A 
HETATM   19  C17 UNL     1      30.769   5.791  48.166  1.00  0.00     0.038 A 
HETATM   20  N4  UNL     1      31.716   4.678  47.966  1.00  0.00    -0.366 N 
HETATM   21  H7  UNL     1      33.500   8.368  43.886  1.00  0.00     0.163 HD
HETATM   22  H18 UNL     1      31.571   3.939  48.683  1.00  0.00     0.161 HD
ENDROOT
BRANCH   1  23
HETATM   23  O1  UNL     1      34.121  10.191  46.235  1.00  0.00    -0.364 OA
BRANCH  23  24
HETATM   24  C2  UNL     1      33.563  10.804  45.109  1.00  0.00     0.166 C 
HETATM   25  C1  UNL     1      32.448  11.749  45.497  1.00  0.00     0.033 C 
ENDBRANCH  23  24
ENDBRANCH   1  23
BRANCH  10  26
HETATM   26  O2  UNL     1      34.936   8.069  48.868  1.00  0.00    -0.382 OA
HETATM   27  H11 UNL     1      35.026   8.998  48.469  1.00  0.00     0.210 HD
ENDBRANCH  10  26
TORSDOF 3
ENDMDL
MODEL 9
REMARK VINA RESULT:      -6.4      3.239      4.990
REMARK  3 active torsions:
REMARK  status: ('A' for Active; 'I' for Inactive)
REMARK    1  A    between atoms: C2_2  and  O1_3 
REMARK    2  A    between atoms: O1_3  and  C3_4 
REMARK    3  A    between atoms: C9_13  and  O2_14 
ROOT
HETATM    1  C3  UNL     1      24.795   4.797  49.775  1.00  0.00     0.261 C 
HETATM    2  N1  UNL     1      25.275   3.383  49.547  1.00  0.00    -0.348 N 
HETATM    3  C4  UNL     1      25.110   2.852  50.915  1.00  0.00     0.119 C 
HETATM    4  N2  UNL     1      25.716   1.674  51.121  1.00  0.00    -0.228 NA
HETATM    5  C5  UNL     1      25.390   0.743  52.201  1.00  0.00     0.231 C 
HETATM    6  N3  UNL     1      24.302   0.629  52.983  1.00  0.00    -0.257 NA
HETATM    7  C6  UNL     1      23.268   1.637  52.833  1.00  0.00     0.213 C 
HETATM    8  C7  UNL     1      24.023   2.915  53.192  1.00  0.00     0.062 C 
HETATM    9  C8  UNL     1      24.337   3.541  52.033  1.00  0.00     0.103 A 
HETATM   10  C9  UNL     1      23.540   4.781  52.291  1.00  0.00     0.148 A 
HETATM   11  C10 UNL     1      23.964   4.698  51.048  1.00  0.00     0.158 A 
HETATM   12  O3  UNL     1      22.776   4.007  50.500  1.00  0.00    -0.366 OA
HETATM   13  C11 UNL     1      21.594   3.868  51.206  1.00  0.00     0.210 C 
HETATM   14  C12 UNL     1      20.886   2.576  51.185  1.00  0.00    -0.008 A 
HETATM   15  C13 UNL     1      19.951   2.267  50.226  1.00  0.00     0.011 A 
HETATM   16  C14 UNL     1      19.190   1.123  50.104  1.00  0.00     0.001 A 
HETATM   17  C15 UNL     1      19.393   0.160  51.073  1.00  0.00     0.002 A 
HETATM   18  C16 UNL     1      20.318   0.399  52.069  1.00  0.00     0.030 A 
HETATM   19  C17 UNL     1      21.058   1.558  52.151  1.00  0.00     0.038 A 
HETATM   20  N4  UNL     1      21.993   1.498  53.291  1.00  0.00    -0.366 N 
HETATM   21  H7  UNL     1      25.641   2.636  48.950  1.00  0.00     0.163 HD
HETATM   22  H18 UNL     1      21.477   1.363  54.183  1.00  0.00     0.161 HD
ENDROOT
BRANCH   1  23
HETATM   23  O1  UNL     1      24.063   5.220  48.705  1.00  0.00    -0.364 OA
BRANCH  23  24
HETATM   24  C2  UNL     1      24.424   6.494  48.256  1.00  0.00     0.166 C 
HETATM   25  C1  UNL     1      25.904   6.741  48.440  1.00  0.00     0.033 C 
ENDBRANCH  23  24
ENDBRANCH   1  23
BRANCH  10  26
HETATM   26  O2  UNL     1      22.975   5.954  51.926  1.00  0.00    -0.382 OA
HETATM   27  H11 UNL     1      23.320   6.800  52.368  1.00  0.00     0.210 HD
ENDBRANCH  10  26
TORSDOF 3
ENDMDL
