MODEL 1
REMARK VINA RESULT:      -7.2      0.000      0.000
REMARK  5 active torsions:
REMARK  status: ('A' for Active; 'I' for Inactive)
REMARK    1  A    between atoms: C1_2  and  C2_3 
REMARK    2  A    between atoms: C5_6  and  O2_7 
REMARK    3  A    between atoms: O2_7  and  S1_8 
REMARK    4  A    between atoms: S1_8  and  C6_11 
REMARK    5  A    between atoms: C9_14  and  C10_15 
ROOT
HETATM    1  S1  UNL     1      24.421   1.953  52.545  1.00  0.00     0.303 S 
HETATM    2  O3  UNL     1      23.181   1.253  53.012  1.00  0.00    -0.193 OA
HETATM    3  O4  UNL     1      24.548   3.200  53.364  1.00  0.00    -0.193 OA
ENDROOT
BRANCH   1   4
HETATM    4  O2  UNL     1      24.294   2.287  50.877  1.00  0.00    -0.229 OA
BRANCH   4   5
HETATM    5  C5  UNL     1      25.004   3.288  50.264  1.00  0.00     0.089 A 
HETATM    6  C4  UNL     1      26.303   3.121  49.840  1.00  0.00     0.039 A 
HETATM    7  C3  UNL     1      27.080   4.081  49.216  1.00  0.00     0.017 A 
HETATM    8  C2  UNL     1      26.432   5.288  49.036  1.00  0.00     0.002 A 
HETATM    9  C14 UNL     1      25.129   5.562  49.425  1.00  0.00     0.017 A 
HETATM   10  C13 UNL     1      24.425   4.532  50.045  1.00  0.00     0.039 A 
BRANCH   8  11
HETATM   11  C1  UNL     1      27.159   6.374  48.387  1.00  0.00     0.269 C 
HETATM   12  O1  UNL     1      28.270   6.501  47.813  1.00  0.00    -0.301 OA
ENDBRANCH   8  11
ENDBRANCH   4   5
ENDBRANCH   1   4
BRANCH   1  13
HETATM   13  C6  UNL     1      25.853   0.964  52.796  1.00  0.00     0.086 A 
HETATM   14  C7  UNL     1      27.077   1.514  53.136  1.00  0.00     0.027 A 
HETATM   15  C8  UNL     1      28.201   0.777  53.337  1.00  0.00     0.016 A 
HETATM   16  C9  UNL     1      28.128  -0.594  53.194  1.00  0.00     0.002 A 
HETATM   17  C11 UNL     1      26.923  -1.198  52.854  1.00  0.00     0.016 A 
HETATM   18  C12 UNL     1      25.800  -0.401  52.660  1.00  0.00     0.027 A 
BRANCH  16  19
HETATM   19  C10 UNL     1      29.316  -1.444  53.400  1.00  0.00     0.269 C 
HETATM   20  O5  UNL     1      29.190  -2.700  53.465  1.00  0.00    -0.301 OA
ENDBRANCH  16  19
ENDBRANCH   1  13
TORSDOF 5
ENDMDL
MODEL 2
REMARK VINA RESULT:      -6.9      1.125      6.077
REMARK  5 active torsions:
REMARK  status: ('A' for Active; 'I' for Inactive)
REMARK    1  A    between atoms: C1_2  and  C2_3 
REMARK    2  A    between atoms: C5_6  and  O2_7 
REMARK    3  A    between atoms: O2_7  and  S1_8 
REMARK    4  A    between atoms: S1_8  and  C6_11 
REMARK    5  A    between atoms: C9_14  and  C10_15 
ROOT
HETATM    1  S1  UNL     1      23.381   2.800  51.510  1.00  0.00     0.303 S 
HETATM    2  O3  UNL     1      22.199   3.696  51.718  1.00  0.00    -0.193 OA
HETATM    3  O4  UNL     1      22.902   1.631  50.706  1.00  0.00    -0.193 OA
ENDROOT
BRANCH   1   4
HETATM    4  O2  UNL     1      24.013   2.327  53.023  1.00  0.00    -0.229 OA
BRANCH   4   5
HETATM    5  C5  UNL     1      25.139   1.554  53.148  1.00  0.00     0.089 A 
HETATM    6  C4  UNL     1      26.329   2.052  53.630  1.00  0.00     0.039 A 
HETATM    7  C3  UNL     1      27.502   1.337  53.785  1.00  0.00     0.017 A 
HETATM    8  C2  UNL     1      27.400   0.012  53.402  1.00  0.00     0.002 A 
HETATM    9  C14 UNL     1      26.252  -0.589  52.905  1.00  0.00     0.017 A 
HETATM   10  C13 UNL     1      25.119   0.213  52.786  1.00  0.00     0.039 A 
BRANCH   8  11
HETATM   11  C1  UNL     1      28.580  -0.837  53.523  1.00  0.00     0.269 C 
HETATM   12  O1  UNL     1      28.831  -2.060  53.374  1.00  0.00    -0.301 OA
ENDBRANCH   8  11
ENDBRANCH   4   5
ENDBRANCH   1   4
BRANCH   1  13
HETATM   13  C6  UNL     1      24.659   3.614  50.616  1.00  0.00     0.086 A 
HETATM   14  C7  UNL     1      24.647   4.980  50.395  1.00  0.00     0.027 A 
HETATM   15  C8  UNL     1      25.619   5.637  49.709  1.00  0.00     0.016 A 
HETATM   16  C9  UNL     1      26.676   4.911  49.201  1.00  0.00     0.002 A 
HETATM   17  C11 UNL     1      26.738   3.536  49.394  1.00  0.00     0.016 A 
HETATM   18  C12 UNL     1      25.719   2.908  50.104  1.00  0.00     0.027 A 
BRANCH  16  19
HETATM   19  C10 UNL     1      27.760   5.572  48.448  1.00  0.00     0.269 C 
HETATM   20  O5  UNL     1      28.901   5.032  48.380  1.00  0.00    -0.301 OA
ENDBRANCH  16  19
ENDBRANCH   1  13
TORSDOF 5
ENDMDL
MODEL 3
REMARK VINA RESULT:      -6.9      1.955      2.533
REMARK  5 active torsions:
REMARK  status: ('A' for Active; 'I' for Inactive)
REMARK    1  A    between atoms: C1_2  and  C2_3 
REMARK    2  A    between atoms: C5_6  and  O2_7 
REMARK    3  A    between atoms: O2_7  and  S1_8 
REMARK    4  A    between atoms: S1_8  and  C6_11 
REMARK    5  A    between atoms: C9_14  and  C10_15 
ROOT
HETATM    1  S1  UNL     1      22.697   3.676  51.750  1.00  0.00     0.303 S 
HETATM    2  O3  UNL     1      21.241   3.341  51.859  1.00  0.00    -0.193 OA
HETATM    3  O4  UNL     1      22.895   4.980  52.458  1.00  0.00    -0.193 OA
ENDROOT
BRANCH   1   4
HETATM    4  O2  UNL     1      23.141   3.761  50.104  1.00  0.00    -0.229 OA
BRANCH   4   5
HETATM    5  C5  UNL     1      24.375   4.194  49.690  1.00  0.00     0.089 A 
HETATM    6  C4  UNL     1      25.488   3.383  49.708  1.00  0.00     0.039 A 
HETATM    7  C3  UNL     1      26.761   3.748  49.307  1.00  0.00     0.017 A 
HETATM    8  C2  UNL     1      26.850   5.053  48.861  1.00  0.00     0.002 A 
HETATM    9  C14 UNL     1      25.794   5.951  48.802  1.00  0.00     0.017 A 
HETATM   10  C13 UNL     1      24.549   5.492  49.227  1.00  0.00     0.039 A 
BRANCH   8  11
HETATM   11  C1  UNL     1      28.148   5.545  48.413  1.00  0.00     0.269 C 
HETATM   12  O1  UNL     1      29.337   5.141  48.474  1.00  0.00    -0.301 OA
ENDBRANCH   8  11
ENDBRANCH   4   5
ENDBRANCH   1   4
BRANCH   1  13
HETATM   13  C6  UNL     1      23.700   2.456  52.522  1.00  0.00     0.086 A 
HETATM   14  C7  UNL     1      23.384   1.108  52.480  1.00  0.00     0.027 A 
HETATM   15  C8  UNL     1      24.139   0.142  53.068  1.00  0.00     0.016 A 
HETATM   16  C9  UNL     1      25.281   0.516  53.745  1.00  0.00     0.002 A 
HETATM   17  C11 UNL     1      25.645   1.856  53.819  1.00  0.00     0.016 A 
HETATM   18  C12 UNL     1      24.840   2.808  53.201  1.00  0.00     0.027 A 
BRANCH  16  19
HETATM   19  C10 UNL     1      26.139  -0.490  54.402  1.00  0.00     0.269 C 
HETATM   20  O5  UNL     1      26.770  -1.333  53.703  1.00  0.00    -0.301 OA
ENDBRANCH  16  19
ENDBRANCH   1  13
TORSDOF 5
ENDMDL
MODEL 4
REMARK VINA RESULT:      -6.9      3.231      6.911
REMARK  5 active torsions:
REMARK  status: ('A' for Active; 'I' for Inactive)
REMARK    1  A    between atoms: C1_2  and  C2_3 
REMARK    2  A    between atoms: C5_6  and  O2_7 
REMARK    3  A    between atoms: O2_7  and  S1_8 
REMARK    4  A    between atoms: S1_8  and  C6_11 
REMARK    5  A    between atoms: C9_14  and  C10_15 
ROOT
HETATM    1  S1  UNL     1      23.180   3.756  50.031  1.00  0.00     0.303 S 
HETATM    2  O3  UNL     1      22.788   4.320  51.362  1.00  0.00    -0.193 OA
HETATM    3  O4  UNL     1      22.138   4.196  49.049  1.00  0.00    -0.193 OA
ENDROOT
BRANCH   1   4
HETATM    4  O2  UNL     1      23.286   2.056  50.140  1.00  0.00    -0.229 OA
BRANCH   4   5
HETATM    5  C5  UNL     1      22.948   1.363  51.274  1.00  0.00     0.089 A 
HETATM    6  C4  UNL     1      23.872   1.022  52.236  1.00  0.00     0.039 A 
HETATM    7  C3  UNL     1      23.607   0.327  53.402  1.00  0.00     0.017 A 
HETATM    8  C2  UNL     1      22.279  -0.025  53.549  1.00  0.00     0.002 A 
HETATM    9  C14 UNL     1      21.270   0.268  52.644  1.00  0.00     0.017 A 
HETATM   10  C13 UNL     1      21.633   0.973  51.498  1.00  0.00     0.039 A 
BRANCH   8  11
HETATM   11  C1  UNL     1      21.886  -0.762  54.745  1.00  0.00     0.269 C 
HETATM   12  O1  UNL     1      21.753  -1.973  55.057  1.00  0.00    -0.301 OA
ENDBRANCH   8  11
ENDBRANCH   4   5
ENDBRANCH   1   4
BRANCH   1  13
HETATM   13  C6  UNL     1      24.743   4.366  49.506  1.00  0.00     0.086 A 
HETATM   14  C7  UNL     1      24.902   5.645  49.000  1.00  0.00     0.027 A 
HETATM   15  C8  UNL     1      26.096   6.145  48.586  1.00  0.00     0.016 A 
HETATM   16  C9  UNL     1      27.215   5.342  48.671  1.00  0.00     0.002 A 
HETATM   17  C11 UNL     1      27.112   4.049  49.171  1.00  0.00     0.016 A 
HETATM   18  C12 UNL     1      25.867   3.582  49.582  1.00  0.00     0.027 A 
BRANCH  16  19
HETATM   19  C10 UNL     1      28.537   5.832  48.236  1.00  0.00     0.269 C 
HETATM   20  O5  UNL     1      29.589   5.303  48.698  1.00  0.00    -0.301 OA
ENDBRANCH  16  19
ENDBRANCH   1  13
TORSDOF 5
ENDMDL
MODEL 5
REMARK VINA RESULT:      -6.8      1.562      2.219
REMARK  5 active torsions:
REMARK  status: ('A' for Active; 'I' for Inactive)
REMARK    1  A    between atoms: C1_2  and  C2_3 
REMARK    2  A    between atoms: C5_6  and  O2_7 
REMARK    3  A    between atoms: O2_7  and  S1_8 
REMARK    4  A    between atoms: S1_8  and  C6_11 
REMARK    5  A    between atoms: C9_14  and  C10_15 
ROOT
HETATM    1  S1  UNL     1      23.206   2.018  51.708  1.00  0.00     0.303 S 
HETATM    2  O3  UNL     1      22.106   1.003  51.754  1.00  0.00    -0.193 OA
HETATM    3  O4  UNL     1      22.676   3.260  52.358  1.00  0.00    -0.193 OA
ENDROOT
BRANCH   1   4
HETATM    4  O2  UNL     1      23.669   2.286  50.088  1.00  0.00    -0.229 OA
BRANCH   4   5
HETATM    5  C5  UNL     1      24.533   3.284  49.718  1.00  0.00     0.089 A 
HETATM    6  C4  UNL     1      24.102   4.543  49.362  1.00  0.00     0.039 A 
HETATM    7  C3  UNL     1      24.911   5.597  48.980  1.00  0.00     0.017 A 
HETATM    8  C2  UNL     1      26.259   5.290  48.978  1.00  0.00     0.002 A 
HETATM    9  C14 UNL     1      26.799   4.058  49.318  1.00  0.00     0.017 A 
HETATM   10  C13 UNL     1      25.904   3.057  49.690  1.00  0.00     0.039 A 
BRANCH   8  11
HETATM   11  C1  UNL     1      27.206   6.331  48.590  1.00  0.00     0.269 C 
HETATM   12  O1  UNL     1      27.410   7.530  48.908  1.00  0.00    -0.301 OA
ENDBRANCH   8  11
ENDBRANCH   4   5
ENDBRANCH   1   4
BRANCH   1  13
HETATM   13  C6  UNL     1      24.622   1.476  52.598  1.00  0.00     0.086 A 
HETATM   14  C7  UNL     1      24.969   0.139  52.686  1.00  0.00     0.027 A 
HETATM   15  C8  UNL     1      26.057  -0.311  53.366  1.00  0.00     0.016 A 
HETATM   16  C9  UNL     1      26.863   0.608  54.006  1.00  0.00     0.002 A 
HETATM   17  C11 UNL     1      26.561   1.963  53.950  1.00  0.00     0.016 A 
HETATM   18  C12 UNL     1      25.436   2.375  53.241  1.00  0.00     0.027 A 
BRANCH  16  19
HETATM   19  C10 UNL     1      28.057   0.176  54.759  1.00  0.00     0.269 C 
HETATM   20  O5  UNL     1      28.846   1.039  55.237  1.00  0.00    -0.301 OA
ENDBRANCH  16  19
ENDBRANCH   1  13
TORSDOF 5
ENDMDL
MODEL 6
REMARK VINA RESULT:      -6.7      3.474      5.224
REMARK  5 active torsions:
REMARK  status: ('A' for Active; 'I' for Inactive)
REMARK    1  A    between atoms: C1_2  and  C2_3 
REMARK    2  A    between atoms: C5_6  and  O2_7 
REMARK    3  A    between atoms: O2_7  and  S1_8 
REMARK    4  A    between atoms: S1_8  and  C6_11 
REMARK    5  A    between atoms: C9_14  and  C10_15 
ROOT
HETATM    1  S1  UNL     1      25.245  -0.391  53.968  1.00  0.00     0.303 S 
HETATM    2  O3  UNL     1      25.696  -1.022  55.250  1.00  0.00    -0.193 OA
HETATM    3  O4  UNL     1      25.886  -1.163  52.856  1.00  0.00    -0.193 OA
ENDROOT
BRANCH   1   4
HETATM    4  O2  UNL     1      25.694   1.255  53.952  1.00  0.00    -0.229 OA
BRANCH   4   5
HETATM    5  C5  UNL     1      25.592   2.042  52.834  1.00  0.00     0.089 A 
HETATM    6  C4  UNL     1      24.563   2.938  52.649  1.00  0.00     0.039 A 
HETATM    7  C3  UNL     1      24.395   3.762  51.552  1.00  0.00     0.017 A 
HETATM    8  C2  UNL     1      25.383   3.622  50.595  1.00  0.00     0.002 A 
HETATM    9  C14 UNL     1      26.460   2.752  50.681  1.00  0.00     0.017 A 
HETATM   10  C13 UNL     1      26.545   1.961  51.825  1.00  0.00     0.039 A 
BRANCH   8  11
HETATM   11  C1  UNL     1      25.304   4.444  49.393  1.00  0.00     0.269 C 
HETATM   12  O1  UNL     1      24.391   5.026  48.754  1.00  0.00    -0.301 OA
ENDBRANCH   8  11
ENDBRANCH   4   5
ENDBRANCH   1   4
BRANCH   1  13
HETATM   13  C6  UNL     1      23.498  -0.481  53.784  1.00  0.00     0.086 A 
HETATM   14  C7  UNL     1      22.680  -1.003  54.771  1.00  0.00     0.027 A 
HETATM   15  C8  UNL     1      21.328  -1.086  54.658  1.00  0.00     0.016 A 
HETATM   16  C9  UNL     1      20.731  -0.629  53.500  1.00  0.00     0.002 A 
HETATM   17  C11 UNL     1      21.506  -0.095  52.477  1.00  0.00     0.016 A 
HETATM   18  C12 UNL     1      22.887  -0.031  52.640  1.00  0.00     0.027 A 
BRANCH  16  19
HETATM   19  C10 UNL     1      19.268  -0.694  53.323  1.00  0.00     0.269 C 
HETATM   20  O5  UNL     1      18.647  -1.762  53.589  1.00  0.00    -0.301 OA
ENDBRANCH  16  19
ENDBRANCH   1  13
TORSDOF 5
ENDMDL
MODEL 7
REMARK VINA RESULT:      -6.6      1.449      6.724
REMARK  5 active torsions:
REMARK  status: ('A' for Active; 'I' for Inactive)
REMARK    1  A    between atoms: C1_2  and  C2_3 
REMARK    2  A    between atoms: C5_6  and  O2_7 
REMARK    3  A    between atoms: O2_7  and  S1_8 
REMARK    4  A    between atoms: S1_8  and  C6_11 
REMARK    5  A    between atoms: C9_14  and  C10_15 
ROOT
HETATM    1  S1  UNL     1      23.792   3.853  51.428  1.00  0.00     0.303 S 
HETATM    2  O3  UNL     1      22.692   4.735  51.933  1.00  0.00    -0.193 OA
HETATM    3  O4  UNL     1      23.150   2.813  50.561  1.00  0.00    -0.193 OA
ENDROOT
BRANCH   1   4
HETATM    4  O2  UNL     1      24.626   3.166  52.749  1.00  0.00    -0.229 OA
BRANCH   4   5
HETATM    5  C5  UNL     1      25.173   1.909  52.708  1.00  0.00     0.089 A 
HETATM    6  C4  UNL     1      24.539   0.808  53.240  1.00  0.00     0.039 A 
HETATM    7  C3  UNL     1      25.027  -0.486  53.236  1.00  0.00     0.017 A 
HETATM    8  C2  UNL     1      26.263  -0.612  52.631  1.00  0.00     0.002 A 
HETATM    9  C14 UNL     1      26.985   0.428  52.066  1.00  0.00     0.017 A 
HETATM   10  C13 UNL     1      26.412   1.697  52.116  1.00  0.00     0.039 A 
BRANCH   8  11
HETATM   11  C1  UNL     1      26.873  -1.936  52.571  1.00  0.00     0.269 C 
HETATM   12  O1  UNL     1      27.803  -2.530  53.172  1.00  0.00    -0.301 OA
ENDBRANCH   8  11
ENDBRANCH   4   5
ENDBRANCH   1   4
BRANCH   1  13
HETATM   13  C6  UNL     1      24.951   4.756  50.462  1.00  0.00     0.086 A 
HETATM   14  C7  UNL     1      25.844   4.130  49.608  1.00  0.00     0.027 A 
HETATM   15  C8  UNL     1      26.751   4.801  48.849  1.00  0.00     0.016 A 
HETATM   16  C9  UNL     1      26.791   6.177  48.929  1.00  0.00     0.002 A 
HETATM   17  C11 UNL     1      25.917   6.856  49.770  1.00  0.00     0.016 A 
HETATM   18  C12 UNL     1      25.006   6.126  50.527  1.00  0.00     0.027 A 
BRANCH  16  19
HETATM   19  C10 UNL     1      27.755   6.957  48.128  1.00  0.00     0.269 C 
HETATM   20  O5  UNL     1      28.477   7.831  48.685  1.00  0.00    -0.301 OA
ENDBRANCH  16  19
ENDBRANCH   1  13
TORSDOF 5
ENDMDL
MODEL 8
REMARK VINA RESULT:      -6.6      3.568      6.180
REMARK  5 active torsions:
REMARK  status: ('A' for Active; 'I' for Inactive)
REMARK    1  A    between atoms: C1_2  and  C2_3 
REMARK    2  A    between atoms: C5_6  and  O2_7 
REMARK    3  A    between atoms: O2_7  and  S1_8 
REMARK    4  A    between atoms: S1_8  and  C6_11 
REMARK    5  A    between atoms: C9_14  and  C10_15 
ROOT
HETATM    1  S1  UNL     1      24.365   1.893  52.124  1.00  0.00     0.303 S 
HETATM    2  O3  UNL     1      24.741   3.330  51.933  1.00  0.00    -0.193 OA
HETATM    3  O4  UNL     1      23.777   1.423  50.829  1.00  0.00    -0.193 OA
ENDROOT
BRANCH   1   4
HETATM    4  O2  UNL     1      23.262   1.758  53.419  1.00  0.00    -0.229 OA
BRANCH   4   5
HETATM    5  C5  UNL     1      22.081   1.068  53.320  1.00  0.00     0.089 A 
HETATM    6  C4  UNL     1      20.981   1.574  52.664  1.00  0.00     0.039 A 
HETATM    7  C3  UNL     1      19.761   0.938  52.522  1.00  0.00     0.017 A 
HETATM    8  C2  UNL     1      19.712  -0.309  53.115  1.00  0.00     0.002 A 
HETATM    9  C14 UNL     1      20.759  -0.911  53.798  1.00  0.00     0.017 A 
HETATM   10  C13 UNL     1      21.951  -0.194  53.888  1.00  0.00     0.039 A 
BRANCH   8  11
HETATM   11  C1  UNL     1      18.470  -1.070  53.027  1.00  0.00     0.269 C 
HETATM   12  O1  UNL     1      17.369  -1.074  53.633  1.00  0.00    -0.301 OA
ENDBRANCH   8  11
ENDBRANCH   4   5
ENDBRANCH   1   4
BRANCH   1  13
HETATM   13  C6  UNL     1      25.769   0.902  52.498  1.00  0.00     0.086 A 
HETATM   14  C7  UNL     1      25.697  -0.478  52.575  1.00  0.00     0.027 A 
HETATM   15  C8  UNL     1      26.764  -1.270  52.862  1.00  0.00     0.016 A 
HETATM   16  C9  UNL     1      27.987  -0.674  53.092  1.00  0.00     0.002 A 
HETATM   17  C11 UNL     1      28.115   0.709  53.028  1.00  0.00     0.016 A 
HETATM   18  C12 UNL     1      26.994   1.477  52.729  1.00  0.00     0.027 A 
BRANCH  16  19
HETATM   19  C10 UNL     1      29.179  -1.484  53.408  1.00  0.00     0.269 C 
HETATM   20  O5  UNL     1      29.094  -2.745  53.445  1.00  0.00    -0.301 OA
ENDBRANCH  16  19
ENDBRANCH   1  13
TORSDOF 5
ENDMDL
MODEL 9
REMARK VINA RESULT:      -6.6      3.523      6.793
REMARK  5 active torsions:
REMARK  status: ('A' for Active; 'I' for Inactive)
REMARK    1  A    between atoms: C1_2  and  C2_3 
REMARK    2  A    between atoms: C5_6  and  O2_7 
REMARK    3  A    between atoms: O2_7  and  S1_8 
REMARK    4  A    between atoms: S1_8  and  C6_11 
REMARK    5  A    between atoms: C9_14  and  C10_15 
ROOT
HETATM    1  S1  UNL     1      23.648   2.383  52.150  1.00  0.00     0.303 S 
HETATM    2  O3  UNL     1      24.339   2.023  50.870  1.00  0.00    -0.193 OA
HETATM    3  O4  UNL     1      23.247   3.822  52.035  1.00  0.00    -0.193 OA
ENDROOT
BRANCH   1   4
HETATM    4  O2  UNL     1      24.702   2.111  53.464  1.00  0.00    -0.229 OA
BRANCH   4   5
HETATM    5  C5  UNL     1      25.741   1.218  53.409  1.00  0.00     0.089 A 
HETATM    6  C4  UNL     1      25.556  -0.119  53.137  1.00  0.00     0.039 A 
HETATM    7  C3  UNL     1      26.552  -1.075  53.064  1.00  0.00     0.017 A 
HETATM    8  C2  UNL     1      27.820  -0.576  53.295  1.00  0.00     0.002 A 
HETATM    9  C14 UNL     1      28.117   0.750  53.577  1.00  0.00     0.017 A 
HETATM   10  C13 UNL     1      27.047   1.641  53.629  1.00  0.00     0.039 A 
BRANCH   8  11
HETATM   11  C1  UNL     1      28.949  -1.499  53.243  1.00  0.00     0.269 C 
HETATM   12  O1  UNL     1      29.118  -2.729  53.436  1.00  0.00    -0.301 OA
ENDBRANCH   8  11
ENDBRANCH   4   5
ENDBRANCH   1   4
BRANCH   1  13
HETATM   13  C6  UNL     1      22.203   1.413  52.399  1.00  0.00     0.086 A 
HETATM   14  C7  UNL     1      21.951   0.761  53.594  1.00  0.00     0.027 A 
HETATM   15  C8  UNL     1      20.844   0.004  53.816  1.00  0.00     0.016 A 
HETATM   16  C9  UNL     1      19.918  -0.128  52.802  1.00  0.00     0.002 A 
HETATM   17  C11 UNL     1      20.122   0.505  51.581  1.00  0.00     0.016 A 
HETATM   18  C12 UNL     1      21.270   1.270  51.402  1.00  0.00     0.027 A 
BRANCH  16  19
HETATM   19  C10 UNL     1      18.698  -0.937  52.987  1.00  0.00     0.269 C 
HETATM   20  O5  UNL     1      17.754  -0.855  52.152  1.00  0.00    -0.301 OA
ENDBRANCH  16  19
ENDBRANCH   1  13
TORSDOF 5
ENDMDL
