MODEL 1
REMARK VINA RESULT:      -9.9      0.000      0.000
REMARK  3 active torsions:
REMARK  status: ('A' for Active; 'I' for Inactive)
REMARK    1  A    between atoms: O1_1  and  C1_2 
REMARK    2  A    between atoms: C5_6  and  C6_7 
REMARK    3  A    between atoms: C7_9  and  N2_10 
ROOT
HETATM    1  C6  UNL     1      25.651   0.591  52.677  1.00  0.00     0.162 A 
HETATM    2  N1  UNL     1      25.763   1.602  51.883  1.00  0.00    -0.209 NA
HETATM    3  C7  UNL     1      24.855   2.565  51.310  1.00  0.00     0.150 A 
HETATM    4  C12 UNL     1      23.543   2.757  51.452  1.00  0.00     0.194 A 
HETATM    5  O3  UNL     1      22.490   2.184  52.152  1.00  0.00    -0.299 OA
HETATM    6  C13 UNL     1      22.348   1.080  52.989  1.00  0.00     0.194 A 
HETATM    7  N3  UNL     1      21.088   1.005  53.300  1.00  0.00    -0.235 NA
HETATM    8  C14 UNL     1      20.667  -0.057  54.163  1.00  0.00     0.116 A 
HETATM    9  C15 UNL     1      21.498  -0.966  54.660  1.00  0.00    -0.001 A 
HETATM   10  C16 UNL     1      22.943  -1.019  54.405  1.00  0.00     0.092 A 
HETATM   11  C17 UNL     1      23.314   0.111  53.502  1.00  0.00     0.093 A 
HETATM   12  N4  UNL     1      24.603  -0.070  53.374  1.00  0.00    -0.228 NA
ENDROOT
BRANCH   1  13
HETATM   13  C5  UNL     1      26.944  -0.043  52.926  1.00  0.00     0.014 A 
HETATM   14  C4  UNL     1      28.042   0.704  53.301  1.00  0.00     0.015 A 
HETATM   15  C3  UNL     1      29.299   0.199  53.557  1.00  0.00     0.004 A 
HETATM   16  C2  UNL     1      29.413  -1.185  53.411  1.00  0.00     0.036 A 
HETATM   17  C1  UNL     1      28.344  -1.967  53.040  1.00  0.00     0.066 A 
HETATM   18  C18 UNL     1      27.101  -1.407  52.793  1.00  0.00     0.051 A 
BRANCH  17  19
HETATM   19  O1  UNL     1      28.445  -3.334  52.892  1.00  0.00    -0.361 OA
HETATM   20  H1  UNL     1      28.006  -3.859  52.149  1.00  0.00     0.217 HD
ENDBRANCH  17  19
ENDBRANCH   1  13
BRANCH   3  21
HETATM   21  N2  UNL     1      25.406   3.513  50.422  1.00  0.00    -0.360 N 
HETATM   22  C8  UNL     1      24.517   4.567  49.959  1.00  0.00     0.151 C 
HETATM   23  C9  UNL     1      25.274   5.865  50.035  1.00  0.00     0.187 C 
HETATM   24  O2  UNL     1      26.497   5.825  49.423  1.00  0.00    -0.388 OA
HETATM   25  C10 UNL     1      26.881   4.606  48.920  1.00  0.00     0.187 C 
HETATM   26  C11 UNL     1      26.781   3.496  49.955  1.00  0.00     0.151 C 
ENDBRANCH   3  21
TORSDOF 3
ENDMDL
MODEL 2
REMARK VINA RESULT:      -9.7      1.333      5.356
REMARK  3 active torsions:
REMARK  status: ('A' for Active; 'I' for Inactive)
REMARK    1  A    between atoms: O1_1  and  C1_2 
REMARK    2  A    between atoms: C5_6  and  C6_7 
REMARK    3  A    between atoms: C7_9  and  N2_10 
ROOT
HETATM    1  C6  UNL     1      25.959   1.003  52.188  1.00  0.00     0.162 A 
HETATM    2  N1  UNL     1      24.857   0.558  52.691  1.00  0.00    -0.209 NA
HETATM    3  C7  UNL     1      23.464   0.921  52.600  1.00  0.00     0.150 A 
HETATM    4  C12 UNL     1      22.825   1.861  51.902  1.00  0.00     0.194 A 
HETATM    5  O3  UNL     1      23.144   2.866  50.999  1.00  0.00    -0.299 OA
HETATM    6  C13 UNL     1      24.326   3.375  50.469  1.00  0.00     0.194 A 
HETATM    7  N3  UNL     1      23.995   4.375  49.706  1.00  0.00    -0.235 NA
HETATM    8  C14 UNL     1      25.039   5.085  49.030  1.00  0.00     0.116 A 
HETATM    9  C15 UNL     1      26.325   4.772  49.144  1.00  0.00    -0.001 A 
HETATM   10  C16 UNL     1      26.859   3.676  49.962  1.00  0.00     0.092 A 
HETATM   11  C17 UNL     1      25.723   2.981  50.636  1.00  0.00     0.093 A 
HETATM   12  N4  UNL     1      26.350   2.052  51.310  1.00  0.00    -0.228 NA
ENDROOT
BRANCH   1  13
HETATM   13  C5  UNL     1      27.109   0.225  52.639  1.00  0.00     0.014 A 
HETATM   14  C4  UNL     1      28.215   0.842  53.188  1.00  0.00     0.015 A 
HETATM   15  C3  UNL     1      29.346   0.195  53.640  1.00  0.00     0.004 A 
HETATM   16  C2  UNL     1      29.314  -1.195  53.511  1.00  0.00     0.036 A 
HETATM   17  C1  UNL     1      28.233  -1.850  52.970  1.00  0.00     0.066 A 
HETATM   18  C18 UNL     1      27.121  -1.151  52.529  1.00  0.00     0.051 A 
BRANCH  17  19
HETATM   19  O1  UNL     1      28.191  -3.221  52.837  1.00  0.00    -0.361 OA
HETATM   20  H1  UNL     1      27.737  -3.843  53.492  1.00  0.00     0.217 HD
ENDBRANCH  17  19
ENDBRANCH   1  13
BRANCH   3  21
HETATM   21  N2  UNL     1      22.556   0.171  53.378  1.00  0.00    -0.360 N 
HETATM   22  C8  UNL     1      21.215   0.716  53.520  1.00  0.00     0.151 C 
HETATM   23  C9  UNL     1      20.243  -0.416  53.326  1.00  0.00     0.187 C 
HETATM   24  O2  UNL     1      20.512  -1.511  54.102  1.00  0.00    -0.388 OA
HETATM   25  C10 UNL     1      21.657  -1.449  54.859  1.00  0.00     0.187 C 
HETATM   26  C11 UNL     1      22.879  -1.085  54.029  1.00  0.00     0.151 C 
ENDBRANCH   3  21
TORSDOF 3
ENDMDL
MODEL 3
REMARK VINA RESULT:      -9.3      1.973      5.877
REMARK  3 active torsions:
REMARK  status: ('A' for Active; 'I' for Inactive)
REMARK    1  A    between atoms: O1_1  and  C1_2 
REMARK    2  A    between atoms: C5_6  and  C6_7 
REMARK    3  A    between atoms: C7_9  and  N2_10 
ROOT
HETATM    1  C6  UNL     1      23.826   1.056  52.275  1.00  0.00     0.162 A 
HETATM    2  N1  UNL     1      25.048   0.780  52.585  1.00  0.00    -0.209 NA
HETATM    3  C7  UNL     1      26.346   1.258  52.177  1.00  0.00     0.150 A 
HETATM    4  C12 UNL     1      26.725   2.215  51.329  1.00  0.00     0.194 A 
HETATM    5  O3  UNL     1      26.121   3.143  50.492  1.00  0.00    -0.299 OA
HETATM    6  C13 UNL     1      24.810   3.435  50.126  1.00  0.00     0.194 A 
HETATM    7  N3  UNL     1      24.870   4.387  49.242  1.00  0.00    -0.235 NA
HETATM    8  C14 UNL     1      23.642   4.880  48.695  1.00  0.00     0.116 A 
HETATM    9  C15 UNL     1      22.449   4.413  49.044  1.00  0.00    -0.001 A 
HETATM   10  C16 UNL     1      22.213   3.345  50.024  1.00  0.00     0.092 A 
HETATM   11  C17 UNL     1      23.528   2.879  50.553  1.00  0.00     0.093 A 
HETATM   12  N4  UNL     1      23.156   1.949  51.394  1.00  0.00    -0.228 NA
ENDROOT
BRANCH   1  13
HETATM   13  C5  UNL     1      22.881   0.233  53.026  1.00  0.00     0.014 A 
HETATM   14  C4  UNL     1      21.544   0.195  52.686  1.00  0.00     0.015 A 
HETATM   15  C3  UNL     1      20.578  -0.548  53.332  1.00  0.00     0.004 A 
HETATM   16  C2  UNL     1      21.047  -1.303  54.409  1.00  0.00     0.036 A 
HETATM   17  C1  UNL     1      22.371  -1.294  54.782  1.00  0.00     0.066 A 
HETATM   18  C18 UNL     1      23.301  -0.529  54.097  1.00  0.00     0.051 A 
BRANCH  17  19
HETATM   19  O1  UNL     1      22.844  -2.036  55.843  1.00  0.00    -0.361 OA
HETATM   20  H1  UNL     1      22.862  -3.046  55.868  1.00  0.00     0.217 HD
ENDBRANCH  17  19
ENDBRANCH   1  13
BRANCH   3  21
HETATM   21  N2  UNL     1      27.469   0.627  52.755  1.00  0.00    -0.360 N 
HETATM   22  C8  UNL     1      28.518   1.501  53.259  1.00  0.00     0.151 C 
HETATM   23  C9  UNL     1      28.937   0.974  54.604  1.00  0.00     0.187 C 
HETATM   24  O2  UNL     1      29.241  -0.361  54.603  1.00  0.00    -0.388 OA
HETATM   25  C10 UNL     1      29.035  -1.026  53.419  1.00  0.00     0.187 C 
HETATM   26  C11 UNL     1      27.632  -0.810  52.872  1.00  0.00     0.151 C 
ENDBRANCH   3  21
TORSDOF 3
ENDMDL
MODEL 4
REMARK VINA RESULT:      -9.2      2.261      5.321
REMARK  3 active torsions:
REMARK  status: ('A' for Active; 'I' for Inactive)
REMARK    1  A    between atoms: O1_1  and  C1_2 
REMARK    2  A    between atoms: C5_6  and  C6_7 
REMARK    3  A    between atoms: C7_9  and  N2_10 
ROOT
HETATM    1  C6  UNL     1      24.203   0.928  52.768  1.00  0.00     0.162 A 
HETATM    2  N1  UNL     1      23.951   1.708  51.771  1.00  0.00    -0.209 NA
HETATM    3  C7  UNL     1      24.718   2.624  50.962  1.00  0.00     0.150 A 
HETATM    4  C12 UNL     1      26.010   2.952  50.957  1.00  0.00     0.194 A 
HETATM    5  O3  UNL     1      27.159   2.613  51.658  1.00  0.00    -0.299 OA
HETATM    6  C13 UNL     1      27.442   1.797  52.750  1.00  0.00     0.194 A 
HETATM    7  N3  UNL     1      28.712   1.929  52.998  1.00  0.00    -0.235 NA
HETATM    8  C14 UNL     1      29.269   1.186  54.087  1.00  0.00     0.116 A 
HETATM    9  C15 UNL     1      28.555   0.371  54.855  1.00  0.00    -0.001 A 
HETATM   10  C16 UNL     1      27.117   0.114  54.706  1.00  0.00     0.092 A 
HETATM   11  C17 UNL     1      26.601   0.916  53.557  1.00  0.00     0.093 A 
HETATM   12  N4  UNL     1      25.336   0.584  53.555  1.00  0.00    -0.228 NA
ENDROOT
BRANCH   1  13
HETATM   13  C5  UNL     1      23.009   0.208  53.203  1.00  0.00     0.014 A 
HETATM   14  C4  UNL     1      23.080  -0.760  54.184  1.00  0.00     0.015 A 
HETATM   15  C3  UNL     1      22.012  -1.492  54.660  1.00  0.00     0.004 A 
HETATM   16  C2  UNL     1      20.785  -1.186  54.067  1.00  0.00     0.036 A 
HETATM   17  C1  UNL     1      20.670  -0.228  53.087  1.00  0.00     0.066 A 
HETATM   18  C18 UNL     1      21.776   0.478  52.644  1.00  0.00     0.051 A 
BRANCH  17  19
HETATM   19  O1  UNL     1      19.464   0.081  52.495  1.00  0.00    -0.361 OA
HETATM   20  H1  UNL     1      18.664   0.449  52.992  1.00  0.00     0.217 HD
ENDBRANCH  17  19
ENDBRANCH   1  13
BRANCH   3  21
HETATM   21  N2  UNL     1      24.016   3.338  49.967  1.00  0.00    -0.360 N 
HETATM   22  C8  UNL     1      22.910   2.644  49.326  1.00  0.00     0.151 C 
HETATM   23  C9  UNL     1      21.758   3.608  49.242  1.00  0.00     0.187 C 
HETATM   24  O2  UNL     1      22.089   4.815  48.686  1.00  0.00    -0.388 OA
HETATM   25  C10 UNL     1      23.415   4.994  48.378  1.00  0.00     0.187 C 
HETATM   26  C11 UNL     1      24.327   4.696  49.558  1.00  0.00     0.151 C 
ENDBRANCH   3  21
TORSDOF 3
ENDMDL
MODEL 5
REMARK VINA RESULT:      -9.1      1.644      2.173
REMARK  3 active torsions:
REMARK  status: ('A' for Active; 'I' for Inactive)
REMARK    1  A    between atoms: O1_1  and  C1_2 
REMARK    2  A    between atoms: C5_6  and  C6_7 
REMARK    3  A    between atoms: C7_9  and  N2_10 
ROOT
HETATM    1  C6  UNL     1      25.117   1.383  52.939  1.00  0.00     0.162 A 
HETATM    2  N1  UNL     1      25.053   2.528  52.348  1.00  0.00    -0.209 NA
HETATM    3  C7  UNL     1      23.993   3.374  51.855  1.00  0.00     0.150 A 
HETATM    4  C12 UNL     1      22.665   3.259  51.884  1.00  0.00     0.194 A 
HETATM    5  O3  UNL     1      21.722   2.355  52.357  1.00  0.00    -0.299 OA
HETATM    6  C13 UNL     1      21.775   1.107  52.970  1.00  0.00     0.194 A 
HETATM    7  N3  UNL     1      20.545   0.713  53.125  1.00  0.00    -0.235 NA
HETATM    8  C14 UNL     1      20.315  -0.559  53.741  1.00  0.00     0.116 A 
HETATM    9  C15 UNL     1      21.292  -1.353  54.160  1.00  0.00    -0.001 A 
HETATM   10  C16 UNL     1      22.727  -1.055  54.059  1.00  0.00     0.092 A 
HETATM   11  C17 UNL     1      22.895   0.279  53.411  1.00  0.00     0.093 A 
HETATM   12  N4  UNL     1      24.198   0.398  53.394  1.00  0.00    -0.228 NA
ENDROOT
BRANCH   1  13
HETATM   13  C5  UNL     1      26.498   0.996  53.214  1.00  0.00     0.014 A 
HETATM   14  C4  UNL     1      26.934  -0.294  52.989  1.00  0.00     0.015 A 
HETATM   15  C3  UNL     1      28.214  -0.754  53.218  1.00  0.00     0.004 A 
HETATM   16  C2  UNL     1      29.098   0.205  53.715  1.00  0.00     0.036 A 
HETATM   17  C1  UNL     1      28.706   1.502  53.952  1.00  0.00     0.066 A 
HETATM   18  C18 UNL     1      27.406   1.912  53.706  1.00  0.00     0.051 A 
BRANCH  17  19
HETATM   19  O1  UNL     1      29.571   2.456  54.443  1.00  0.00    -0.361 OA
HETATM   20  H1  UNL     1      29.958   2.447  55.377  1.00  0.00     0.217 HD
ENDBRANCH  17  19
ENDBRANCH   1  13
BRANCH   3  21
HETATM   21  N2  UNL     1      24.378   4.568  51.208  1.00  0.00    -0.360 N 
HETATM   22  C8  UNL     1      25.373   4.446  50.154  1.00  0.00     0.151 C 
HETATM   23  C9  UNL     1      24.914   5.291  48.998  1.00  0.00     0.187 C 
HETATM   24  O2  UNL     1      24.590   6.575  49.347  1.00  0.00    -0.388 OA
HETATM   25  C10 UNL     1      24.645   6.867  50.688  1.00  0.00     0.187 C 
HETATM   26  C11 UNL     1      23.847   5.881  51.528  1.00  0.00     0.151 C 
ENDBRANCH   3  21
TORSDOF 3
ENDMDL
MODEL 6
REMARK VINA RESULT:      -8.9      1.593      5.454
REMARK  3 active torsions:
REMARK  status: ('A' for Active; 'I' for Inactive)
REMARK    1  A    between atoms: O1_1  and  C1_2 
REMARK    2  A    between atoms: C5_6  and  C6_7 
REMARK    3  A    between atoms: C7_9  and  N2_10 
ROOT
HETATM    1  C6  UNL     1      24.629   1.960  51.434  1.00  0.00     0.162 A 
HETATM    2  N1  UNL     1      25.669   1.346  51.888  1.00  0.00    -0.209 NA
HETATM    3  C7  UNL     1      25.900   0.220  52.760  1.00  0.00     0.150 A 
HETATM    4  C12 UNL     1      25.071  -0.618  53.383  1.00  0.00     0.194 A 
HETATM    5  O3  UNL     1      23.701  -0.812  53.498  1.00  0.00    -0.299 OA
HETATM    6  C13 UNL     1      22.569  -0.145  53.039  1.00  0.00     0.194 A 
HETATM    7  N3  UNL     1      21.540  -0.771  53.528  1.00  0.00    -0.235 NA
HETATM    8  C14 UNL     1      20.234  -0.282  53.204  1.00  0.00     0.116 A 
HETATM    9  C15 UNL     1      20.023   0.777  52.432  1.00  0.00    -0.001 A 
HETATM   10  C16 UNL     1      21.074   1.589  51.805  1.00  0.00     0.092 A 
HETATM   11  C17 UNL     1      22.404   1.027  52.182  1.00  0.00     0.093 A 
HETATM   12  N4  UNL     1      23.217   1.841  51.560  1.00  0.00    -0.228 NA
ENDROOT
BRANCH   1  13
HETATM   13  C5  UNL     1      24.998   3.070  50.561  1.00  0.00     0.014 A 
HETATM   14  C4  UNL     1      24.035   3.811  49.906  1.00  0.00     0.015 A 
HETATM   15  C3  UNL     1      24.284   4.874  49.062  1.00  0.00     0.004 A 
HETATM   16  C2  UNL     1      25.636   5.182  48.896  1.00  0.00     0.036 A 
HETATM   17  C1  UNL     1      26.627   4.470  49.530  1.00  0.00     0.066 A 
HETATM   18  C18 UNL     1      26.322   3.409  50.367  1.00  0.00     0.051 A 
BRANCH  17  19
HETATM   19  O1  UNL     1      27.965   4.766  49.372  1.00  0.00    -0.361 OA
HETATM   20  H1  UNL     1      28.712   4.094  49.483  1.00  0.00     0.217 HD
ENDBRANCH  17  19
ENDBRANCH   1  13
BRANCH   3  21
HETATM   21  N2  UNL     1      27.244  -0.103  53.042  1.00  0.00    -0.360 N 
HETATM   22  C8  UNL     1      28.136   1.010  53.325  1.00  0.00     0.151 C 
HETATM   23  C9  UNL     1      28.970   0.632  54.519  1.00  0.00     0.187 C 
HETATM   24  O2  UNL     1      29.581  -0.588  54.399  1.00  0.00    -0.388 OA
HETATM   25  C10 UNL     1      29.275  -1.308  53.270  1.00  0.00     0.187 C 
HETATM   26  C11 UNL     1      27.775  -1.454  53.067  1.00  0.00     0.151 C 
ENDBRANCH   3  21
TORSDOF 3
ENDMDL
MODEL 7
REMARK VINA RESULT:      -8.9      1.931      6.378
REMARK  3 active torsions:
REMARK  status: ('A' for Active; 'I' for Inactive)
REMARK    1  A    between atoms: O1_1  and  C1_2 
REMARK    2  A    between atoms: C5_6  and  C6_7 
REMARK    3  A    between atoms: C7_9  and  N2_10 
ROOT
HETATM    1  C6  UNL     1      25.421   2.395  51.609  1.00  0.00     0.162 A 
HETATM    2  N1  UNL     1      24.240   1.880  51.684  1.00  0.00    -0.209 NA
HETATM    3  C7  UNL     1      23.624   0.828  52.456  1.00  0.00     0.150 A 
HETATM    4  C12 UNL     1      24.088   0.030  53.417  1.00  0.00     0.194 A 
HETATM    5  O3  UNL     1      25.282  -0.175  54.095  1.00  0.00    -0.299 OA
HETATM    6  C13 UNL     1      26.568   0.351  54.008  1.00  0.00     0.194 A 
HETATM    7  N3  UNL     1      27.294  -0.285  54.878  1.00  0.00    -0.235 NA
HETATM    8  C14 UNL     1      28.677   0.068  54.994  1.00  0.00     0.116 A 
HETATM    9  C15 UNL     1      29.252   1.011  54.257  1.00  0.00    -0.001 A 
HETATM   10  C16 UNL     1      28.572   1.817  53.235  1.00  0.00     0.092 A 
HETATM   11  C17 UNL     1      27.141   1.400  53.166  1.00  0.00     0.093 A 
HETATM   12  N4  UNL     1      26.683   2.192  52.232  1.00  0.00    -0.228 NA
ENDROOT
BRANCH   1  13
HETATM   13  C5  UNL     1      25.476   3.471  50.622  1.00  0.00     0.014 A 
HETATM   14  C4  UNL     1      24.357   4.221  50.323  1.00  0.00     0.015 A 
HETATM   15  C3  UNL     1      24.310   5.253  49.410  1.00  0.00     0.004 A 
HETATM   16  C2  UNL     1      25.521   5.518  48.766  1.00  0.00     0.036 A 
HETATM   17  C1  UNL     1      26.660   4.795  49.034  1.00  0.00     0.066 A 
HETATM   18  C18 UNL     1      26.652   3.766  49.963  1.00  0.00     0.051 A 
BRANCH  17  19
HETATM   19  O1  UNL     1      27.860   5.047  48.405  1.00  0.00    -0.361 OA
HETATM   20  H1  UNL     1      27.988   5.041  47.402  1.00  0.00     0.217 HD
ENDBRANCH  17  19
ENDBRANCH   1  13
BRANCH   3  21
HETATM   21  N2  UNL     1      22.268   0.547  52.183  1.00  0.00    -0.360 N 
HETATM   22  C8  UNL     1      21.628  -0.454  53.023  1.00  0.00     0.151 C 
HETATM   23  C9  UNL     1      20.275   0.077  53.410  1.00  0.00     0.187 C 
HETATM   24  O2  UNL     1      19.528   0.509  52.348  1.00  0.00    -0.388 OA
HETATM   25  C10 UNL     1      20.147   0.477  51.122  1.00  0.00     0.187 C 
HETATM   26  C11 UNL     1      21.492   1.187  51.136  1.00  0.00     0.151 C 
ENDBRANCH   3  21
TORSDOF 3
ENDMDL
MODEL 8
REMARK VINA RESULT:      -8.8      2.307      5.630
REMARK  3 active torsions:
REMARK  status: ('A' for Active; 'I' for Inactive)
REMARK    1  A    between atoms: O1_1  and  C1_2 
REMARK    2  A    between atoms: C5_6  and  C6_7 
REMARK    3  A    between atoms: C7_9  and  N2_10 
ROOT
HETATM    1  C6  UNL     1      23.717   2.054  52.278  1.00  0.00     0.162 A 
HETATM    2  N1  UNL     1      24.911   1.775  52.681  1.00  0.00    -0.209 NA
HETATM    3  C7  UNL     1      25.506   0.751  53.505  1.00  0.00     0.150 A 
HETATM    4  C12 UNL     1      24.994  -0.316  54.120  1.00  0.00     0.194 A 
HETATM    5  O3  UNL     1      23.753  -0.922  54.265  1.00  0.00    -0.299 OA
HETATM    6  C13 UNL     1      22.456  -0.619  53.861  1.00  0.00     0.194 A 
HETATM    7  N3  UNL     1      21.685  -1.542  54.355  1.00  0.00    -0.235 NA
HETATM    8  C14 UNL     1      20.281  -1.467  54.085  1.00  0.00     0.116 A 
HETATM    9  C15 UNL     1      19.729  -0.502  53.357  1.00  0.00    -0.001 A 
HETATM   10  C16 UNL     1      20.460   0.608  52.732  1.00  0.00     0.092 A 
HETATM   11  C17 UNL     1      21.911   0.468  53.052  1.00  0.00     0.093 A 
HETATM   12  N4  UNL     1      22.414   1.508  52.438  1.00  0.00    -0.228 NA
ENDROOT
BRANCH   1  13
HETATM   13  C5  UNL     1      23.699   3.247  51.435  1.00  0.00     0.014 A 
HETATM   14  C4  UNL     1      24.290   3.246  50.188  1.00  0.00     0.015 A 
HETATM   15  C3  UNL     1      24.326   4.319  49.322  1.00  0.00     0.004 A 
HETATM   16  C2  UNL     1      23.696   5.472  49.796  1.00  0.00     0.036 A 
HETATM   17  C1  UNL     1      23.095   5.516  51.032  1.00  0.00     0.066 A 
HETATM   18  C18 UNL     1      23.089   4.408  51.864  1.00  0.00     0.051 A 
BRANCH  17  19
HETATM   19  O1  UNL     1      22.472   6.649  51.510  1.00  0.00    -0.361 OA
HETATM   20  H1  UNL     1      22.547   7.562  51.083  1.00  0.00     0.217 HD
ENDBRANCH  17  19
ENDBRANCH   1  13
BRANCH   3  21
HETATM   21  N2  UNL     1      26.894   0.846  53.738  1.00  0.00    -0.360 N 
HETATM   22  C8  UNL     1      27.652   1.688  52.826  1.00  0.00     0.151 C 
HETATM   23  C9  UNL     1      28.594   2.520  53.653  1.00  0.00     0.187 C 
HETATM   24  O2  UNL     1      29.347   1.789  54.532  1.00  0.00    -0.388 OA
HETATM   25  C10 UNL     1      29.071   0.444  54.590  1.00  0.00     0.187 C 
HETATM   26  C11 UNL     1      27.593   0.167  54.814  1.00  0.00     0.151 C 
ENDBRANCH   3  21
TORSDOF 3
ENDMDL
MODEL 9
REMARK VINA RESULT:      -7.9      2.356      5.550
REMARK  3 active torsions:
REMARK  status: ('A' for Active; 'I' for Inactive)
REMARK    1  A    between atoms: O1_1  and  C1_2 
REMARK    2  A    between atoms: C5_6  and  C6_7 
REMARK    3  A    between atoms: C7_9  and  N2_10 
ROOT
HETATM    1  C6  UNL     1      23.675   1.690  51.305  1.00  0.00     0.162 A 
HETATM    2  N1  UNL     1      23.801   2.727  50.548  1.00  0.00    -0.209 NA
HETATM    3  C7  UNL     1      24.887   3.598  50.169  1.00  0.00     0.150 A 
HETATM    4  C12 UNL     1      26.188   3.592  50.465  1.00  0.00     0.194 A 
HETATM    5  O3  UNL     1      27.068   2.823  51.213  1.00  0.00    -0.299 OA
HETATM    6  C13 UNL     1      26.943   1.721  52.054  1.00  0.00     0.194 A 
HETATM    7  N3  UNL     1      28.129   1.476  52.529  1.00  0.00    -0.235 NA
HETATM    8  C14 UNL     1      28.281   0.377  53.434  1.00  0.00     0.116 A 
HETATM    9  C15 UNL     1      27.273  -0.402  53.811  1.00  0.00    -0.001 A 
HETATM   10  C16 UNL     1      25.881  -0.257  53.367  1.00  0.00     0.092 A 
HETATM   11  C17 UNL     1      25.793   0.902  52.430  1.00  0.00     0.093 A 
HETATM   12  N4  UNL     1      24.520   0.899  52.131  1.00  0.00    -0.228 NA
ENDROOT
BRANCH   1  13
HETATM   13  C5  UNL     1      22.299   1.199  51.319  1.00  0.00     0.014 A 
HETATM   14  C4  UNL     1      21.809   0.485  52.394  1.00  0.00     0.015 A 
HETATM   15  C3  UNL     1      20.530  -0.019  52.500  1.00  0.00     0.004 A 
HETATM   16  C2  UNL     1      19.707   0.245  51.403  1.00  0.00     0.036 A 
HETATM   17  C1  UNL     1      20.154   0.953  50.312  1.00  0.00     0.066 A 
HETATM   18  C18 UNL     1      21.452   1.437  50.257  1.00  0.00     0.051 A 
BRANCH  17  19
HETATM   19  O1  UNL     1      19.351   1.218  49.224  1.00  0.00    -0.361 OA
HETATM   20  H1  UNL     1      18.370   1.455  49.285  1.00  0.00     0.217 HD
ENDBRANCH  17  19
ENDBRANCH   1  13
BRANCH   3  21
HETATM   21  N2  UNL     1      24.571   4.682  49.323  1.00  0.00    -0.360 N 
HETATM   22  C8  UNL     1      23.382   4.538  48.497  1.00  0.00     0.151 C 
HETATM   23  C9  UNL     1      22.618   5.832  48.573  1.00  0.00     0.187 C 
HETATM   24  O2  UNL     1      23.380   6.937  48.308  1.00  0.00    -0.388 OA
HETATM   25  C10 UNL     1      24.720   6.712  48.105  1.00  0.00     0.187 C 
HETATM   26  C11 UNL     1      25.347   5.905  49.232  1.00  0.00     0.151 C 
ENDBRANCH   3  21
TORSDOF 3
ENDMDL
