MODEL 1
REMARK VINA RESULT:      -9.1      0.000      0.000
REMARK  4 active torsions:
REMARK  status: ('A' for Active; 'I' for Inactive)
REMARK    1  A    between atoms: C5_5  and  C6_6 
REMARK    2  A    between atoms: C8_8  and  C9_9 
REMARK    3  A    between atoms: N2_17  and  C15_18 
REMARK    4  A    between atoms: C17_21  and  O1_22 
ROOT
HETATM    1  C6  UNL     1      24.389   2.907  51.982  1.00  0.00     0.151 C 
HETATM    2  C7  UNL     1      23.442   1.874  51.420  1.00  0.00     0.094 C 
HETATM    3  C8  UNL     1      23.152   1.109  52.669  1.00  0.00     0.067 C 
HETATM    4  N1  UNL     1      24.133   1.283  53.479  1.00  0.00    -0.173 NA
HETATM    5  N2  UNL     1      25.124   2.114  52.946  1.00  0.00    -0.236 N 
ENDROOT
BRANCH   1   6
HETATM    6  C5  UNL     1      25.193   3.621  51.000  1.00  0.00    -0.033 A 
HETATM    7  C4  UNL     1      26.214   3.186  50.215  1.00  0.00     0.010 A 
HETATM    8  C3  UNL     1      26.911   3.938  49.290  1.00  0.00     0.007 A 
HETATM    9  C2  UNL     1      26.564   5.266  49.122  1.00  0.00    -0.062 A 
HETATM   10  C1  UNL     1      27.304   6.081  48.128  1.00  0.00     0.048 C 
HETATM   11  C19 UNL     1      25.555   5.790  49.864  1.00  0.00     0.007 A 
HETATM   12  C18 UNL     1      24.893   4.974  50.779  1.00  0.00     0.010 A 
ENDBRANCH   1   6
BRANCH   5  13
HETATM   13  C15 UNL     1      26.532   2.075  53.354  1.00  0.00     0.192 A 
HETATM   14  N3  UNL     1      27.457   2.528  53.859  1.00  0.00    -0.232 NA
HETATM   15  C16 UNL     1      28.681   2.016  53.953  1.00  0.00     0.163 A 
HETATM   16  C17 UNL     1      28.908   0.730  53.360  1.00  0.00     0.128 A 
HETATM   17  S1  UNL     1      27.165   0.398  52.679  1.00  0.00    -0.025 SA
BRANCH  16  18
HETATM   18  O1  UNL     1      30.197   0.157  53.446  1.00  0.00    -0.353 OA
HETATM   19  H14 UNL     1      30.461  -0.425  54.237  1.00  0.00     0.218 HD
ENDBRANCH  16  18
ENDBRANCH   5  13
BRANCH   3  20
HETATM   20  C9  UNL     1      21.967   0.311  52.921  1.00  0.00    -0.010 A 
HETATM   21  C10 UNL     1      21.951  -0.726  53.855  1.00  0.00     0.015 A 
HETATM   22  C11 UNL     1      20.866  -1.518  54.161  1.00  0.00     0.024 A 
HETATM   23  C12 UNL     1      19.722  -1.215  53.448  1.00  0.00     0.034 A 
HETATM   24 CL1  UNL     1      18.309  -2.189  53.801  1.00  0.00    -0.084 Cl
HETATM   25  C13 UNL     1      19.621  -0.228  52.513  1.00  0.00     0.024 A 
HETATM   26  C14 UNL     1      20.762   0.507  52.283  1.00  0.00     0.015 A 
ENDBRANCH   3  20
TORSDOF 4
ENDMDL
MODEL 2
REMARK VINA RESULT:      -8.7      2.963      4.746
REMARK  4 active torsions:
REMARK  status: ('A' for Active; 'I' for Inactive)
REMARK    1  A    between atoms: C5_5  and  C6_6 
REMARK    2  A    between atoms: C8_8  and  C9_9 
REMARK    3  A    between atoms: N2_17  and  C15_18 
REMARK    4  A    between atoms: C17_21  and  O1_22 
ROOT
HETATM    1  C6  UNL     1      23.952   0.918  51.953  1.00  0.00     0.151 C 
HETATM    2  C7  UNL     1      22.868   0.472  52.905  1.00  0.00     0.094 C 
HETATM    3  C8  UNL     1      21.669   0.845  52.098  1.00  0.00     0.067 C 
HETATM    4  N1  UNL     1      22.012   1.776  51.282  1.00  0.00    -0.173 NA
HETATM    5  N2  UNL     1      23.362   2.123  51.408  1.00  0.00    -0.236 N 
ENDROOT
BRANCH   1   6
HETATM    6  C5  UNL     1      25.277   1.064  52.535  1.00  0.00    -0.033 A 
HETATM    7  C4  UNL     1      25.788   2.046  53.325  1.00  0.00     0.010 A 
HETATM    8  C3  UNL     1      27.064   2.091  53.851  1.00  0.00     0.007 A 
HETATM    9  C2  UNL     1      27.932   1.054  53.567  1.00  0.00    -0.062 A 
HETATM   10  C1  UNL     1      29.303   1.090  54.131  1.00  0.00     0.048 C 
HETATM   11  C19 UNL     1      27.510   0.026  52.786  1.00  0.00     0.007 A 
HETATM   12  C18 UNL     1      26.210   0.044  52.288  1.00  0.00     0.010 A 
ENDBRANCH   1   6
BRANCH   5  13
HETATM   13  C15 UNL     1      23.907   3.436  51.043  1.00  0.00     0.192 A 
HETATM   14  N3  UNL     1      24.586   4.116  50.417  1.00  0.00    -0.232 NA
HETATM   15  C16 UNL     1      24.747   5.432  50.510  1.00  0.00     0.163 A 
HETATM   16  C17 UNL     1      23.986   6.124  51.510  1.00  0.00     0.128 A 
HETATM   17  S1  UNL     1      23.053   4.647  52.256  1.00  0.00    -0.025 SA
BRANCH  16  18
HETATM   18  O1  UNL     1      24.132   7.525  51.632  1.00  0.00    -0.353 OA
HETATM   19  H14 UNL     1      23.651   8.041  52.365  1.00  0.00     0.218 HD
ENDBRANCH  16  18
ENDBRANCH   5  13
BRANCH   3  20
HETATM   20  C9  UNL     1      20.348   0.258  52.214  1.00  0.00    -0.010 A 
HETATM   21  C10 UNL     1      19.370   0.419  51.233  1.00  0.00     0.015 A 
HETATM   22  C11 UNL     1      18.101  -0.117  51.263  1.00  0.00     0.024 A 
HETATM   23  C12 UNL     1      17.829  -0.868  52.390  1.00  0.00     0.034 A 
HETATM   24 CL1  UNL     1      16.229  -1.578  52.479  1.00  0.00    -0.084 Cl
HETATM   25  C13 UNL     1      18.703  -1.094  53.411  1.00  0.00     0.024 A 
HETATM   26  C14 UNL     1      19.946  -0.515  53.282  1.00  0.00     0.015 A 
ENDBRANCH   3  20
TORSDOF 4
ENDMDL
MODEL 3
REMARK VINA RESULT:      -8.7      4.387      7.525
REMARK  4 active torsions:
REMARK  status: ('A' for Active; 'I' for Inactive)
REMARK    1  A    between atoms: C5_5  and  C6_6 
REMARK    2  A    between atoms: C8_8  and  C9_9 
REMARK    3  A    between atoms: N2_17  and  C15_18 
REMARK    4  A    between atoms: C17_21  and  O1_22 
ROOT
HETATM    1  C6  UNL     1      22.157   0.726  53.111  1.00  0.00     0.151 C 
HETATM    2  C7  UNL     1      23.278  -0.171  52.643  1.00  0.00     0.094 C 
HETATM    3  C8  UNL     1      24.438   0.725  52.929  1.00  0.00     0.067 C 
HETATM    4  N1  UNL     1      24.014   1.937  52.931  1.00  0.00    -0.173 NA
HETATM    5  N2  UNL     1      22.640   2.021  52.679  1.00  0.00    -0.236 N 
ENDROOT
BRANCH   1   6
HETATM    6  C5  UNL     1      20.826   0.358  52.651  1.00  0.00    -0.033 A 
HETATM    7  C4  UNL     1      20.235   0.526  51.439  1.00  0.00     0.010 A 
HETATM    8  C3  UNL     1      18.963   0.123  51.086  1.00  0.00     0.007 A 
HETATM    9  C2  UNL     1      18.186  -0.516  52.034  1.00  0.00    -0.062 A 
HETATM   10  C1  UNL     1      16.819  -0.957  51.664  1.00  0.00     0.048 C 
HETATM   11  C19 UNL     1      18.692  -0.730  53.276  1.00  0.00     0.007 A 
HETATM   12  C18 UNL     1      19.985  -0.298  53.564  1.00  0.00     0.010 A 
ENDBRANCH   1   6
BRANCH   5  13
HETATM   13  C15 UNL     1      21.985   3.200  52.102  1.00  0.00     0.192 A 
HETATM   14  N3  UNL     1      21.119   3.715  51.554  1.00  0.00    -0.232 NA
HETATM   15  C16 UNL     1      21.005   4.994  51.208  1.00  0.00     0.163 A 
HETATM   16  C17 UNL     1      22.086   5.872  51.553  1.00  0.00     0.128 A 
HETATM   17  S1  UNL     1      23.232   4.621  52.407  1.00  0.00    -0.025 SA
BRANCH  16  18
HETATM   18  O1  UNL     1      21.993   7.239  51.202  1.00  0.00    -0.353 OA
HETATM   19  H14 UNL     1      21.917   7.526  50.229  1.00  0.00     0.218 HD
ENDBRANCH  16  18
ENDBRANCH   5  13
BRANCH   3  20
HETATM   20  C9  UNL     1      25.805   0.298  53.163  1.00  0.00    -0.010 A 
HETATM   21  C10 UNL     1      26.297  -0.921  52.696  1.00  0.00     0.015 A 
HETATM   22  C11 UNL     1      27.582  -1.390  52.865  1.00  0.00     0.024 A 
HETATM   23  C12 UNL     1      28.409  -0.536  53.568  1.00  0.00     0.034 A 
HETATM   24 CL1  UNL     1      30.057  -1.081  53.808  1.00  0.00    -0.084 Cl
HETATM   25  C13 UNL     1      28.040   0.676  54.071  1.00  0.00     0.024 A 
HETATM   26  C14 UNL     1      26.735   1.051  53.846  1.00  0.00     0.015 A 
ENDBRANCH   3  20
TORSDOF 4
ENDMDL
MODEL 4
REMARK VINA RESULT:      -8.6      3.636      7.346
REMARK  4 active torsions:
REMARK  status: ('A' for Active; 'I' for Inactive)
REMARK    1  A    between atoms: C5_5  and  C6_6 
REMARK    2  A    between atoms: C8_8  and  C9_9 
REMARK    3  A    between atoms: N2_17  and  C15_18 
REMARK    4  A    between atoms: C17_21  and  O1_22 
ROOT
HETATM    1  C6  UNL     1      24.647   2.259  50.404  1.00  0.00     0.151 C 
HETATM    2  C7  UNL     1      24.738   3.766  50.367  1.00  0.00     0.094 C 
HETATM    3  C8  UNL     1      26.127   3.911  49.838  1.00  0.00     0.067 C 
HETATM    4  N1  UNL     1      26.776   2.840  50.127  1.00  0.00    -0.173 NA
HETATM    5  N2  UNL     1      25.991   1.911  50.817  1.00  0.00    -0.236 N 
ENDROOT
BRANCH   1   6
HETATM    6  C5  UNL     1      23.570   1.716  51.217  1.00  0.00    -0.033 A 
HETATM    7  C4  UNL     1      23.472   1.569  52.565  1.00  0.00     0.010 A 
HETATM    8  C3  UNL     1      22.393   1.056  53.256  1.00  0.00     0.007 A 
HETATM    9  C2  UNL     1      21.287   0.641  52.538  1.00  0.00    -0.062 A 
HETATM   10  C1  UNL     1      20.120   0.091  53.271  1.00  0.00     0.048 C 
HETATM   11  C19 UNL     1      21.292   0.748  51.185  1.00  0.00     0.007 A 
HETATM   12  C18 UNL     1      22.415   1.276  50.552  1.00  0.00     0.010 A 
ENDBRANCH   1   6
BRANCH   5  13
HETATM   13  C15 UNL     1      26.534   0.889  51.719  1.00  0.00     0.192 A 
HETATM   14  N3  UNL     1      26.734  -0.200  52.018  1.00  0.00    -0.232 NA
HETATM   15  C16 UNL     1      27.345  -0.659  53.106  1.00  0.00     0.163 A 
HETATM   16  C17 UNL     1      27.835   0.307  54.047  1.00  0.00     0.128 A 
HETATM   17  S1  UNL     1      27.297   1.897  53.157  1.00  0.00    -0.025 SA
BRANCH  16  18
HETATM   18  O1  UNL     1      28.493  -0.149  55.212  1.00  0.00    -0.353 OA
HETATM   19  H14 UNL     1      28.777  -1.121  55.308  1.00  0.00     0.218 HD
ENDBRANCH  16  18
ENDBRANCH   5  13
BRANCH   3  20
HETATM   20  C9  UNL     1      26.650   5.060  49.124  1.00  0.00    -0.010 A 
HETATM   21  C10 UNL     1      25.887   6.204  48.890  1.00  0.00     0.015 A 
HETATM   22  C11 UNL     1      26.315   7.337  48.233  1.00  0.00     0.024 A 
HETATM   23  C12 UNL     1      27.621   7.277  47.789  1.00  0.00     0.034 A 
HETATM   24 CL1  UNL     1      28.219   8.696  46.951  1.00  0.00    -0.084 Cl
HETATM   25  C13 UNL     1      28.459   6.216  47.959  1.00  0.00     0.024 A 
HETATM   26  C14 UNL     1      27.934   5.133  48.630  1.00  0.00     0.015 A 
ENDBRANCH   3  20
TORSDOF 4
ENDMDL
MODEL 5
REMARK VINA RESULT:      -8.4      4.044      6.734
REMARK  4 active torsions:
REMARK  status: ('A' for Active; 'I' for Inactive)
REMARK    1  A    between atoms: C5_5  and  C6_6 
REMARK    2  A    between atoms: C8_8  and  C9_9 
REMARK    3  A    between atoms: N2_17  and  C15_18 
REMARK    4  A    between atoms: C17_21  and  O1_22 
ROOT
HETATM    1  C6  UNL     1      24.836   2.250  53.000  1.00  0.00     0.151 C 
HETATM    2  C7  UNL     1      24.802   3.115  51.763  1.00  0.00     0.094 C 
HETATM    3  C8  UNL     1      23.440   3.706  51.918  1.00  0.00     0.067 C 
HETATM    4  N1  UNL     1      22.741   2.909  52.645  1.00  0.00    -0.173 NA
HETATM    5  N2  UNL     1      23.466   1.782  53.048  1.00  0.00    -0.236 N 
ENDROOT
BRANCH   1   6
HETATM    6  C5  UNL     1      25.862   1.218  53.017  1.00  0.00    -0.033 A 
HETATM    7  C4  UNL     1      26.101   0.200  52.148  1.00  0.00     0.010 A 
HETATM    8  C3  UNL     1      27.120  -0.727  52.236  1.00  0.00     0.007 A 
HETATM    9  C2  UNL     1      28.001  -0.642  53.297  1.00  0.00    -0.062 A 
HETATM   10  C1  UNL     1      29.102  -1.631  53.399  1.00  0.00     0.048 C 
HETATM   11  C19 UNL     1      27.842   0.344  54.218  1.00  0.00     0.007 A 
HETATM   12  C18 UNL     1      26.792   1.247  54.068  1.00  0.00     0.010 A 
ENDBRANCH   1   6
BRANCH   5  13
HETATM   13  C15 UNL     1      22.852   0.496  53.396  1.00  0.00     0.192 A 
HETATM   14  N3  UNL     1      22.910  -0.618  53.662  1.00  0.00    -0.232 NA
HETATM   15  C16 UNL     1      21.910  -1.462  53.904  1.00  0.00     0.163 A 
HETATM   16  C17 UNL     1      20.574  -0.942  53.837  1.00  0.00     0.128 A 
HETATM   17  S1  UNL     1      20.972   0.861  53.388  1.00  0.00    -0.025 SA
BRANCH  16  18
HETATM   18  O1  UNL     1      19.490  -1.813  54.093  1.00  0.00    -0.353 OA
HETATM   19  H14 UNL     1      18.936  -1.724  54.941  1.00  0.00     0.218 HD
ENDBRANCH  16  18
ENDBRANCH   5  13
BRANCH   3  20
HETATM   20  C9  UNL     1      22.986   4.960  51.349  1.00  0.00    -0.010 A 
HETATM   21  C10 UNL     1      21.668   5.161  50.941  1.00  0.00     0.015 A 
HETATM   22  C11 UNL     1      21.158   6.324  50.406  1.00  0.00     0.024 A 
HETATM   23  C12 UNL     1      22.080   7.345  50.284  1.00  0.00     0.034 A 
HETATM   24 CL1  UNL     1      21.483   8.850  49.613  1.00  0.00    -0.084 Cl
HETATM   25  C13 UNL     1      23.391   7.264  50.648  1.00  0.00     0.024 A 
HETATM   26  C14 UNL     1      23.799   6.059  51.174  1.00  0.00     0.015 A 
ENDBRANCH   3  20
TORSDOF 4
ENDMDL
MODEL 6
REMARK VINA RESULT:      -8.4      3.796      6.682
REMARK  4 active torsions:
REMARK  status: ('A' for Active; 'I' for Inactive)
REMARK    1  A    between atoms: C5_5  and  C6_6 
REMARK    2  A    between atoms: C8_8  and  C9_9 
REMARK    3  A    between atoms: N2_17  and  C15_18 
REMARK    4  A    between atoms: C17_21  and  O1_22 
ROOT
HETATM    1  C6  UNL     1      25.839   2.150  52.165  1.00  0.00     0.151 C 
HETATM    2  C7  UNL     1      25.831   2.494  50.695  1.00  0.00     0.094 C 
HETATM    3  C8  UNL     1      24.475   3.112  50.599  1.00  0.00     0.067 C 
HETATM    4  N1  UNL     1      23.758   2.647  51.558  1.00  0.00    -0.173 NA
HETATM    5  N2  UNL     1      24.462   1.744  52.361  1.00  0.00    -0.236 N 
ENDROOT
BRANCH   1   6
HETATM    6  C5  UNL     1      26.851   1.189  52.579  1.00  0.00    -0.033 A 
HETATM    7  C4  UNL     1      26.912  -0.157  52.400  1.00  0.00     0.010 A 
HETATM    8  C3  UNL     1      27.931  -0.991  52.815  1.00  0.00     0.007 A 
HETATM    9  C2  UNL     1      29.008  -0.437  53.481  1.00  0.00    -0.062 A 
HETATM   10  C1  UNL     1      30.110  -1.324  53.928  1.00  0.00     0.048 C 
HETATM   11  C19 UNL     1      29.035   0.901  53.707  1.00  0.00     0.007 A 
HETATM   12  C18 UNL     1      27.974   1.685  53.260  1.00  0.00     0.010 A 
ENDBRANCH   1   6
BRANCH   5  13
HETATM   13  C15 UNL     1      23.827   0.684  53.152  1.00  0.00     0.192 A 
HETATM   14  N3  UNL     1      23.866  -0.221  53.855  1.00  0.00    -0.232 NA
HETATM   15  C16 UNL     1      22.854  -0.938  54.335  1.00  0.00     0.163 A 
HETATM   16  C17 UNL     1      21.528  -0.555  53.946  1.00  0.00     0.128 A 
HETATM   17  S1  UNL     1      21.954   0.926  52.834  1.00  0.00    -0.025 SA
BRANCH  16  18
HETATM   18  O1  UNL     1      20.430  -1.295  54.442  1.00  0.00    -0.353 OA
HETATM   19  H14 UNL     1      19.708  -0.850  55.004  1.00  0.00     0.218 HD
ENDBRANCH  16  18
ENDBRANCH   5  13
BRANCH   3  20
HETATM   20  C9  UNL     1      24.046   4.069  49.598  1.00  0.00    -0.010 A 
HETATM   21  C10 UNL     1      24.730   5.262  49.364  1.00  0.00     0.015 A 
HETATM   22  C11 UNL     1      24.394   6.213  48.425  1.00  0.00     0.024 A 
HETATM   23  C12 UNL     1      23.272   5.905  47.681  1.00  0.00     0.034 A 
HETATM   24 CL1  UNL     1      22.802   7.079  46.467  1.00  0.00    -0.084 Cl
HETATM   25  C13 UNL     1      22.526   4.773  47.821  1.00  0.00     0.024 A 
HETATM   26  C14 UNL     1      22.947   3.887  48.786  1.00  0.00     0.015 A 
ENDBRANCH   3  20
TORSDOF 4
ENDMDL
MODEL 7
REMARK VINA RESULT:      -8.1      5.159      8.674
REMARK  4 active torsions:
REMARK  status: ('A' for Active; 'I' for Inactive)
REMARK    1  A    between atoms: C5_5  and  C6_6 
REMARK    2  A    between atoms: C8_8  and  C9_9 
REMARK    3  A    between atoms: N2_17  and  C15_18 
REMARK    4  A    between atoms: C17_21  and  O1_22 
ROOT
HETATM    1  C6  UNL     1      24.725   3.316  50.941  1.00  0.00     0.151 C 
HETATM    2  C7  UNL     1      26.137   3.461  50.426  1.00  0.00     0.094 C 
HETATM    3  C8  UNL     1      25.892   4.436  49.322  1.00  0.00     0.067 C 
HETATM    4  N1  UNL     1      24.664   4.329  48.962  1.00  0.00    -0.173 NA
HETATM    5  N2  UNL     1      23.973   3.365  49.704  1.00  0.00    -0.236 N 
ENDROOT
BRANCH   1   6
HETATM    6  C5  UNL     1      24.482   2.158  51.789  1.00  0.00    -0.033 A 
HETATM    7  C4  UNL     1      25.289   1.109  52.098  1.00  0.00     0.010 A 
HETATM    8  C3  UNL     1      24.977   0.056  52.935  1.00  0.00     0.007 A 
HETATM    9  C2  UNL     1      23.731   0.035  53.532  1.00  0.00    -0.062 A 
HETATM   10  C1  UNL     1      23.386  -1.090  54.435  1.00  0.00     0.048 C 
HETATM   11  C19 UNL     1      22.855   1.041  53.282  1.00  0.00     0.007 A 
HETATM   12  C18 UNL     1      23.235   2.074  52.428  1.00  0.00     0.010 A 
ENDBRANCH   1   6
BRANCH   5  13
HETATM   13  C15 UNL     1      22.790   2.648  49.215  1.00  0.00     0.192 A 
HETATM   14  N3  UNL     1      22.211   1.687  48.977  1.00  0.00    -0.232 NA
HETATM   15  C16 UNL     1      20.996   1.564  48.450  1.00  0.00     0.163 A 
HETATM   16  C17 UNL     1      20.288   2.771  48.130  1.00  0.00     0.128 A 
HETATM   17  S1  UNL     1      21.590   4.041  48.679  1.00  0.00    -0.025 SA
BRANCH  16  18
HETATM   18  O1  UNL     1      18.993   2.675  47.572  1.00  0.00    -0.353 OA
HETATM   19  H14 UNL     1      18.200   2.378  48.135  1.00  0.00     0.218 HD
ENDBRANCH  16  18
ENDBRANCH   5  13
BRANCH   3  20
HETATM   20  C9  UNL     1      26.871   5.346  48.757  1.00  0.00    -0.010 A 
HETATM   21  C10 UNL     1      28.203   4.981  48.563  1.00  0.00     0.015 A 
HETATM   22  C11 UNL     1      29.187   5.780  48.021  1.00  0.00     0.024 A 
HETATM   23  C12 UNL     1      28.757   7.042  47.660  1.00  0.00     0.034 A 
HETATM   24 CL1  UNL     1      29.967   8.100  46.961  1.00  0.00    -0.084 Cl
HETATM   25  C13 UNL     1      27.484   7.508  47.803  1.00  0.00     0.024 A 
HETATM   26  C14 UNL     1      26.578   6.629  48.353  1.00  0.00     0.015 A 
ENDBRANCH   3  20
TORSDOF 4
ENDMDL
MODEL 8
REMARK VINA RESULT:      -8.0      4.109      5.496
REMARK  4 active torsions:
REMARK  status: ('A' for Active; 'I' for Inactive)
REMARK    1  A    between atoms: C5_5  and  C6_6 
REMARK    2  A    between atoms: C8_8  and  C9_9 
REMARK    3  A    between atoms: N2_17  and  C15_18 
REMARK    4  A    between atoms: C17_21  and  O1_22 
ROOT
HETATM    1  C6  UNL     1      25.277   3.396  49.725  1.00  0.00     0.151 C 
HETATM    2  C7  UNL     1      25.121   3.185  51.212  1.00  0.00     0.094 C 
HETATM    3  C8  UNL     1      24.016   2.180  51.198  1.00  0.00     0.067 C 
HETATM    4  N1  UNL     1      23.368   2.317  50.097  1.00  0.00    -0.173 NA
HETATM    5  N2  UNL     1      23.897   3.330  49.290  1.00  0.00    -0.236 N 
ENDROOT
BRANCH   1   6
HETATM    6  C5  UNL     1      26.010   4.592  49.336  1.00  0.00    -0.033 A 
HETATM    7  C4  UNL     1      25.663   5.903  49.418  1.00  0.00     0.010 A 
HETATM    8  C3  UNL     1      26.439   6.980  49.038  1.00  0.00     0.007 A 
HETATM    9  C2  UNL     1      27.697   6.736  48.518  1.00  0.00    -0.062 A 
HETATM   10  C1  UNL     1      28.540   7.886  48.109  1.00  0.00     0.048 C 
HETATM   11  C19 UNL     1      28.131   5.456  48.397  1.00  0.00     0.007 A 
HETATM   12  C18 UNL     1      27.296   4.417  48.801  1.00  0.00     0.010 A 
ENDBRANCH   1   6
BRANCH   5  13
HETATM   13  C15 UNL     1      23.119   4.069  48.289  1.00  0.00     0.192 A 
HETATM   14  N3  UNL     1      22.792   5.037  47.770  1.00  0.00    -0.232 NA
HETATM   15  C16 UNL     1      21.917   5.188  46.780  1.00  0.00     0.163 A 
HETATM   16  C17 UNL     1      21.284   4.006  46.270  1.00  0.00     0.128 A 
HETATM   17  S1  UNL     1      22.109   2.713  47.391  1.00  0.00    -0.025 SA
BRANCH  16  18
HETATM   18  O1  UNL     1      20.351   4.132  45.215  1.00  0.00    -0.353 OA
HETATM   19  H14 UNL     1      19.368   4.312  45.403  1.00  0.00     0.218 HD
ENDBRANCH  16  18
ENDBRANCH   5  13
BRANCH   3  20
HETATM   20  C9  UNL     1      23.728   1.218  52.244  1.00  0.00    -0.010 A 
HETATM   21  C10 UNL     1      22.428   0.951  52.675  1.00  0.00     0.015 A 
HETATM   22  C11 UNL     1      22.072   0.045  53.650  1.00  0.00     0.024 A 
HETATM   23  C12 UNL     1      23.137  -0.627  54.216  1.00  0.00     0.034 A 
HETATM   24 CL1  UNL     1      22.741  -1.797  55.460  1.00  0.00    -0.084 Cl
HETATM   25  C13 UNL     1      24.445  -0.450  53.877  1.00  0.00     0.024 A 
HETATM   26  C14 UNL     1      24.693   0.478  52.891  1.00  0.00     0.015 A 
ENDBRANCH   3  20
TORSDOF 4
ENDMDL
MODEL 9
REMARK VINA RESULT:      -7.9      5.171      8.706
REMARK  4 active torsions:
REMARK  status: ('A' for Active; 'I' for Inactive)
REMARK    1  A    between atoms: C5_5  and  C6_6 
REMARK    2  A    between atoms: C8_8  and  C9_9 
REMARK    3  A    between atoms: N2_17  and  C15_18 
REMARK    4  A    between atoms: C17_21  and  O1_22 
ROOT
HETATM    1  C6  UNL     1      23.379   3.121  51.441  1.00  0.00     0.151 C 
HETATM    2  C7  UNL     1      24.764   3.027  50.846  1.00  0.00     0.094 C 
HETATM    3  C8  UNL     1      24.652   4.093  49.806  1.00  0.00     0.067 C 
HETATM    4  N1  UNL     1      23.409   4.240  49.518  1.00  0.00    -0.173 NA
HETATM    5  N2  UNL     1      22.586   3.382  50.257  1.00  0.00    -0.236 N 
ENDROOT
BRANCH   1   6
HETATM    6  C5  UNL     1      22.964   1.982  52.246  1.00  0.00    -0.033 A 
HETATM    7  C4  UNL     1      21.748   1.668  52.766  1.00  0.00     0.010 A 
HETATM    8  C3  UNL     1      21.443   0.545  53.509  1.00  0.00     0.007 A 
HETATM    9  C2  UNL     1      22.447  -0.369  53.768  1.00  0.00    -0.062 A 
HETATM   10  C1  UNL     1      22.128  -1.581  54.562  1.00  0.00     0.048 C 
HETATM   11  C19 UNL     1      23.696  -0.140  53.289  1.00  0.00     0.007 A 
HETATM   12  C18 UNL     1      23.935   1.014  52.546  1.00  0.00     0.010 A 
ENDBRANCH   1   6
BRANCH   5  13
HETATM   13  C15 UNL     1      21.264   2.930  49.810  1.00  0.00     0.192 A 
HETATM   14  N3  UNL     1      20.572   2.194  49.266  1.00  0.00    -0.232 NA
HETATM   15  C16 UNL     1      19.253   2.260  49.115  1.00  0.00     0.163 A 
HETATM   16  C17 UNL     1      18.574   3.382  49.698  1.00  0.00     0.128 A 
HETATM   17  S1  UNL     1      20.069   4.279  50.456  1.00  0.00    -0.025 SA
BRANCH  16  18
HETATM   18  O1  UNL     1      17.171   3.480  49.558  1.00  0.00    -0.353 OA
HETATM   19  H14 UNL     1      16.732   4.349  49.265  1.00  0.00     0.218 HD
ENDBRANCH  16  18
ENDBRANCH   5  13
BRANCH   3  20
HETATM   20  C9  UNL     1      25.755   4.834  49.224  1.00  0.00    -0.010 A 
HETATM   21  C10 UNL     1      25.616   6.145  48.768  1.00  0.00     0.015 A 
HETATM   22  C11 UNL     1      26.616   6.917  48.218  1.00  0.00     0.024 A 
HETATM   23  C12 UNL     1      27.841   6.285  48.135  1.00  0.00     0.034 A 
HETATM   24 CL1  UNL     1      29.151   7.224  47.447  1.00  0.00    -0.084 Cl
HETATM   25  C13 UNL     1      28.095   5.011  48.548  1.00  0.00     0.024 A 
HETATM   26  C14 UNL     1      27.028   4.325  49.084  1.00  0.00     0.015 A 
ENDBRANCH   3  20
TORSDOF 4
ENDMDL
