MODEL 1
REMARK VINA RESULT:     -10.4      0.000      0.000
REMARK  2 active torsions:
REMARK  status: ('A' for Active; 'I' for Inactive)
REMARK    1  A    between atoms: C2_2  and  C4_4 
REMARK       I    between atoms: C4_4  and  N1_6 
REMARK    2  A    between atoms: N1_6  and  C5_7 
ROOT
HETATM    1  C5  UNL     1      25.869   2.676  50.821  1.00  0.00     0.015 A 
HETATM    2  C6  UNL     1      26.680   2.181  51.734  1.00  0.00     0.027 A 
HETATM    3  C7  UNL     1      26.354   1.263  52.811  1.00  0.00     0.032 A 
HETATM    4  C8  UNL     1      25.160   0.724  53.107  1.00  0.00     0.046 A 
HETATM    5  N2  UNL     1      24.895  -0.183  54.190  1.00  0.00    -0.322 N 
HETATM    6  C9  UNL     1      23.518  -0.528  54.178  1.00  0.00     0.259 A 
HETATM    7  O2  UNL     1      23.274  -1.319  55.118  1.00  0.00    -0.267 OA
HETATM    8  C10 UNL     1      22.815   0.137  53.087  1.00  0.00     0.073 A 
HETATM    9  C11 UNL     1      21.536  -0.029  52.876  1.00  0.00     0.078 A 
HETATM   10  N3  UNL     1      20.657   0.496  51.906  1.00  0.00    -0.353 N 
HETATM   11  C12 UNL     1      19.309   0.064  52.017  1.00  0.00     0.045 A 
HETATM   12  C13 UNL     1      18.107   0.257  51.367  1.00  0.00     0.030 A 
HETATM   13  C14 UNL     1      16.924  -0.336  51.742  1.00  0.00     0.002 A 
HETATM   14  C15 UNL     1      16.894  -1.177  52.817  1.00  0.00     0.001 A 
HETATM   15  C16 UNL     1      18.067  -1.399  53.493  1.00  0.00     0.016 A 
HETATM   16  C17 UNL     1      19.263  -0.787  53.101  1.00  0.00     0.021 A 
HETATM   17  C18 UNL     1      20.613  -0.864  53.648  1.00  0.00     0.088 A 
HETATM   18  N4  UNL     1      20.872  -1.588  54.670  1.00  0.00    -0.297 NA
HETATM   19  C19 UNL     1      23.864   0.892  52.461  1.00  0.00     0.005 A 
HETATM   20  C20 UNL     1      23.708   1.653  51.421  1.00  0.00    -0.006 A 
HETATM   21  C21 UNL     1      24.451   2.528  50.530  1.00  0.00     0.085 A 
HETATM   22  H11 UNL     1      25.724  -0.440  54.799  1.00  0.00     0.169 HD
HETATM   23  H12 UNL     1      20.796   1.134  51.129  1.00  0.00     0.166 HD
HETATM   24  H17 UNL     1      20.166  -2.136  55.142  1.00  0.00     0.187 HD
ENDROOT
BRANCH   1  25
HETATM   25  N1  UNL     1      26.390   3.568  49.844  1.00  0.00    -0.330 N 
HETATM   26  C4  UNL     1      26.123   4.960  49.699  1.00  0.00     0.225 C 
HETATM   27  O1  UNL     1      25.356   5.630  50.442  1.00  0.00    -0.273 OA
HETATM   28  H8  UNL     1      27.044   3.101  49.172  1.00  0.00     0.168 HD
BRANCH  26  29
HETATM   29  C2  UNL     1      26.789   5.679  48.597  1.00  0.00     0.070 C 
HETATM   30  C1  UNL     1      26.674   7.168  48.848  1.00  0.00     0.019 C 
HETATM   31  C3  UNL     1      28.230   5.339  48.403  1.00  0.00     0.019 C 
ENDBRANCH  26  29
ENDBRANCH   1  25
TORSDOF 2
ENDMDL
MODEL 2
REMARK VINA RESULT:      -9.9      3.266      7.358
REMARK  2 active torsions:
REMARK  status: ('A' for Active; 'I' for Inactive)
REMARK    1  A    between atoms: C2_2  and  C4_4 
REMARK       I    between atoms: C4_4  and  N1_6 
REMARK    2  A    between atoms: N1_6  and  C5_7 
ROOT
HETATM    1  C5  UNL     1      19.411   0.770  50.892  1.00  0.00     0.015 A 
HETATM    2  C6  UNL     1      18.708   0.044  51.737  1.00  0.00     0.027 A 
HETATM    3  C7  UNL     1      19.182  -0.656  52.918  1.00  0.00     0.032 A 
HETATM    4  C8  UNL     1      20.434  -0.716  53.399  1.00  0.00     0.046 A 
HETATM    5  N2  UNL     1      20.847  -1.428  54.576  1.00  0.00    -0.322 N 
HETATM    6  C9  UNL     1      22.245  -1.255  54.756  1.00  0.00     0.259 A 
HETATM    7  O2  UNL     1      22.618  -1.871  55.781  1.00  0.00    -0.267 OA
HETATM    8  C10 UNL     1      22.814  -0.421  53.705  1.00  0.00     0.073 A 
HETATM    9  C11 UNL     1      24.086  -0.122  53.660  1.00  0.00     0.078 A 
HETATM   10  N3  UNL     1      24.850   0.650  52.762  1.00  0.00    -0.353 N 
HETATM   11  C12 UNL     1      26.234   0.736  53.066  1.00  0.00     0.045 A 
HETATM   12  C13 UNL     1      27.369   1.327  52.550  1.00  0.00     0.030 A 
HETATM   13  C14 UNL     1      28.622   1.211  53.109  1.00  0.00     0.002 A 
HETATM   14  C15 UNL     1      28.795   0.476  54.246  1.00  0.00     0.001 A 
HETATM   15  C16 UNL     1      27.692  -0.129  54.795  1.00  0.00     0.016 A 
HETATM   16  C17 UNL     1      26.425  -0.003  54.214  1.00  0.00     0.021 A 
HETATM   17  C18 UNL     1      25.126  -0.541  54.603  1.00  0.00     0.088 A 
HETATM   18  N4  UNL     1      24.998  -1.275  55.642  1.00  0.00    -0.297 NA
HETATM   19  C19 UNL     1      21.665  -0.116  52.898  1.00  0.00     0.005 A 
HETATM   20  C20 UNL     1      21.687   0.618  51.828  1.00  0.00    -0.006 A 
HETATM   21  C21 UNL     1      20.814   1.143  50.791  1.00  0.00     0.085 A 
HETATM   22  H11 UNL     1      20.086  -1.946  55.102  1.00  0.00     0.169 HD
HETATM   23  H12 UNL     1      24.606   1.168  51.923  1.00  0.00     0.166 HD
HETATM   24  H17 UNL     1      25.779  -1.514  56.239  1.00  0.00     0.187 HD
ENDROOT
BRANCH   1  25
HETATM   25  N1  UNL     1      18.752   1.378  49.788  1.00  0.00    -0.330 N 
HETATM   26  C4  UNL     1      17.792   2.430  49.814  1.00  0.00     0.225 C 
HETATM   27  O1  UNL     1      17.369   2.997  50.857  1.00  0.00    -0.273 OA
HETATM   28  H8  UNL     1      19.040   0.972  48.867  1.00  0.00     0.168 HD
BRANCH  26  29
HETATM   29  C2  UNL     1      17.246   2.898  48.526  1.00  0.00     0.070 C 
HETATM   30  C1  UNL     1      16.104   1.990  48.122  1.00  0.00     0.019 C 
HETATM   31  C3  UNL     1      16.755   4.309  48.525  1.00  0.00     0.019 C 
ENDBRANCH  26  29
ENDBRANCH   1  25
TORSDOF 2
ENDMDL
MODEL 3
REMARK VINA RESULT:      -9.7      3.664      5.175
REMARK  2 active torsions:
REMARK  status: ('A' for Active; 'I' for Inactive)
REMARK    1  A    between atoms: C2_2  and  C4_4 
REMARK       I    between atoms: C4_4  and  N1_6 
REMARK    2  A    between atoms: N1_6  and  C5_7 
ROOT
HETATM    1  C5  UNL     1      24.857  -0.652  54.263  1.00  0.00     0.015 A 
HETATM    2  C6  UNL     1      24.164  -1.308  55.171  1.00  0.00     0.027 A 
HETATM    3  C7  UNL     1      22.723  -1.485  55.236  1.00  0.00     0.032 A 
HETATM    4  C8  UNL     1      21.793  -1.019  54.387  1.00  0.00     0.046 A 
HETATM    5  N2  UNL     1      20.376  -1.226  54.502  1.00  0.00    -0.322 N 
HETATM    6  C9  UNL     1      19.724  -0.578  53.419  1.00  0.00     0.259 A 
HETATM    7  O2  UNL     1      18.486  -0.752  53.507  1.00  0.00    -0.267 OA
HETATM    8  C10 UNL     1      20.684   0.084  52.544  1.00  0.00     0.073 A 
HETATM    9  C11 UNL     1      20.318   0.747  51.479  1.00  0.00     0.078 A 
HETATM   10  N3  UNL     1      21.047   1.455  50.502  1.00  0.00    -0.353 N 
HETATM   11  C12 UNL     1      20.265   2.052  49.479  1.00  0.00     0.045 A 
HETATM   12  C13 UNL     1      20.457   2.812  48.343  1.00  0.00     0.030 A 
HETATM   13  C14 UNL     1      19.440   3.252  47.528  1.00  0.00     0.002 A 
HETATM   14  C15 UNL     1      18.145   2.937  47.823  1.00  0.00     0.001 A 
HETATM   15  C16 UNL     1      17.907   2.181  48.943  1.00  0.00     0.016 A 
HETATM   16  C17 UNL     1      18.952   1.742  49.765  1.00  0.00     0.021 A 
HETATM   17  C18 UNL     1      18.952   0.943  50.985  1.00  0.00     0.088 A 
HETATM   18  N4  UNL     1      17.861   0.509  51.492  1.00  0.00    -0.297 NA
HETATM   19  C19 UNL     1      21.937  -0.215  53.180  1.00  0.00     0.005 A 
HETATM   20  C20 UNL     1      23.097   0.174  52.746  1.00  0.00    -0.006 A 
HETATM   21  C21 UNL     1      24.514   0.095  53.062  1.00  0.00     0.085 A 
HETATM   22  H11 UNL     1      20.051  -1.799  55.332  1.00  0.00     0.169 HD
HETATM   23  H12 UNL     1      22.041   1.628  50.380  1.00  0.00     0.166 HD
HETATM   24  H17 UNL     1      16.958   0.695  51.078  1.00  0.00     0.187 HD
ENDROOT
BRANCH   1  25
HETATM   25  N1  UNL     1      26.273  -0.595  54.381  1.00  0.00    -0.330 N 
HETATM   26  C4  UNL     1      27.088   0.553  54.597  1.00  0.00     0.225 C 
HETATM   27  O1  UNL     1      26.658   1.732  54.719  1.00  0.00    -0.273 OA
HETATM   28  H8  UNL     1      26.727  -1.534  54.293  1.00  0.00     0.168 HD
BRANCH  26  29
HETATM   29  C2  UNL     1      28.546   0.357  54.686  1.00  0.00     0.070 C 
HETATM   30  C1  UNL     1      28.948  -0.753  53.737  1.00  0.00     0.019 C 
HETATM   31  C3  UNL     1      29.365   1.568  54.375  1.00  0.00     0.019 C 
ENDBRANCH  26  29
ENDBRANCH   1  25
TORSDOF 2
ENDMDL
MODEL 4
REMARK VINA RESULT:      -9.4      2.555      4.756
REMARK  2 active torsions:
REMARK  status: ('A' for Active; 'I' for Inactive)
REMARK    1  A    between atoms: C2_2  and  C4_4 
REMARK       I    between atoms: C4_4  and  N1_6 
REMARK    2  A    between atoms: N1_6  and  C5_7 
ROOT
HETATM    1  C5  UNL     1      25.842   1.779  52.156  1.00  0.00     0.015 A 
HETATM    2  C6  UNL     1      26.064   2.544  51.107  1.00  0.00     0.027 A 
HETATM    3  C7  UNL     1      25.118   2.941  50.078  1.00  0.00     0.032 A 
HETATM    4  C8  UNL     1      23.820   2.612  49.976  1.00  0.00     0.046 A 
HETATM    5  N2  UNL     1      22.928   3.036  48.931  1.00  0.00    -0.322 N 
HETATM    6  C9  UNL     1      21.642   2.482  49.168  1.00  0.00     0.259 A 
HETATM    7  O2  UNL     1      20.855   2.844  48.264  1.00  0.00    -0.267 OA
HETATM    8  C10 UNL     1      21.630   1.670  50.378  1.00  0.00     0.073 A 
HETATM    9  C11 UNL     1      20.555   1.058  50.800  1.00  0.00     0.078 A 
HETATM   10  N3  UNL     1      20.306   0.235  51.917  1.00  0.00    -0.353 N 
HETATM   11  C12 UNL     1      18.975  -0.248  52.026  1.00  0.00     0.045 A 
HETATM   12  C13 UNL     1      18.232  -1.042  52.875  1.00  0.00     0.030 A 
HETATM   13  C14 UNL     1      16.899  -1.331  52.692  1.00  0.00     0.002 A 
HETATM   14  C15 UNL     1      16.232  -0.817  51.617  1.00  0.00     0.001 A 
HETATM   15  C16 UNL     1      16.932  -0.021  50.747  1.00  0.00     0.016 A 
HETATM   16  C17 UNL     1      18.288   0.263  50.945  1.00  0.00     0.021 A 
HETATM   17  C18 UNL     1      19.230   1.068  50.175  1.00  0.00     0.088 A 
HETATM   18  N4  UNL     1      18.867   1.669  49.107  1.00  0.00    -0.297 NA
HETATM   19  C19 UNL     1      22.987   1.781  50.837  1.00  0.00     0.005 A 
HETATM   20  C20 UNL     1      23.455   1.214  51.907  1.00  0.00    -0.006 A 
HETATM   21  C21 UNL     1      24.679   1.079  52.680  1.00  0.00     0.085 A 
HETATM   22  H11 UNL     1      23.345   3.662  48.184  1.00  0.00     0.169 HD
HETATM   23  H12 UNL     1      20.898  -0.089  52.676  1.00  0.00     0.166 HD
HETATM   24  H17 UNL     1      17.923   1.619  48.748  1.00  0.00     0.187 HD
ENDROOT
BRANCH   1  25
HETATM   25  N1  UNL     1      26.912   1.508  53.053  1.00  0.00    -0.330 N 
HETATM   26  C4  UNL     1      27.657   0.301  53.186  1.00  0.00     0.225 C 
HETATM   27  O1  UNL     1      27.470  -0.743  52.505  1.00  0.00    -0.273 OA
HETATM   28  H8  UNL     1      27.145   2.322  53.668  1.00  0.00     0.168 HD
BRANCH  26  29
HETATM   29  C2  UNL     1      28.731   0.261  54.197  1.00  0.00     0.070 C 
HETATM   30  C1  UNL     1      29.832  -0.653  53.702  1.00  0.00     0.019 C 
HETATM   31  C3  UNL     1      29.329   1.588  54.533  1.00  0.00     0.019 C 
ENDBRANCH  26  29
ENDBRANCH   1  25
TORSDOF 2
ENDMDL
MODEL 5
REMARK VINA RESULT:      -9.3      3.502      5.953
REMARK  2 active torsions:
REMARK  status: ('A' for Active; 'I' for Inactive)
REMARK    1  A    between atoms: C2_2  and  C4_4 
REMARK       I    between atoms: C4_4  and  N1_6 
REMARK    2  A    between atoms: N1_6  and  C5_7 
ROOT
HETATM    1  C5  UNL     1      25.114   0.305  53.513  1.00  0.00     0.015 A 
HETATM    2  C6  UNL     1      24.249  -0.383  54.230  1.00  0.00     0.027 A 
HETATM    3  C7  UNL     1      22.833  -0.578  53.970  1.00  0.00     0.032 A 
HETATM    4  C8  UNL     1      22.105  -0.100  52.948  1.00  0.00     0.046 A 
HETATM    5  N2  UNL     1      20.701  -0.326  52.741  1.00  0.00    -0.322 N 
HETATM    6  C9  UNL     1      20.294   0.343  51.557  1.00  0.00     0.259 A 
HETATM    7  O2  UNL     1      19.070   0.153  51.365  1.00  0.00    -0.267 OA
HETATM    8  C10 UNL     1      21.411   1.040  50.932  1.00  0.00     0.073 A 
HETATM    9  C11 UNL     1      21.278   1.727  49.829  1.00  0.00     0.078 A 
HETATM   10  N3  UNL     1      22.193   2.469  49.054  1.00  0.00    -0.353 N 
HETATM   11  C12 UNL     1      21.646   3.085  47.898  1.00  0.00     0.045 A 
HETATM   12  C13 UNL     1      22.071   3.878  46.852  1.00  0.00     0.030 A 
HETATM   13  C14 UNL     1      21.251   4.328  45.842  1.00  0.00     0.002 A 
HETATM   14  C15 UNL     1      19.929   3.990  45.837  1.00  0.00     0.001 A 
HETATM   15  C16 UNL     1      19.462   3.201  46.858  1.00  0.00     0.016 A 
HETATM   16  C17 UNL     1      20.308   2.752  47.879  1.00  0.00     0.021 A 
HETATM   17  C18 UNL     1      20.052   1.920  49.050  1.00  0.00     0.088 A 
HETATM   18  N4  UNL     1      18.884   1.461  49.293  1.00  0.00    -0.297 NA
HETATM   19  C19 UNL     1      22.498   0.738  51.822  1.00  0.00     0.005 A 
HETATM   20  C20 UNL     1      23.718   1.151  51.665  1.00  0.00    -0.006 A 
HETATM   21  C21 UNL     1      25.032   1.080  52.284  1.00  0.00     0.085 A 
HETATM   22  H11 UNL     1      20.211  -0.925  53.466  1.00  0.00     0.169 HD
HETATM   23  H12 UNL     1      23.186   2.657  49.159  1.00  0.00     0.166 HD
HETATM   24  H17 UNL     1      18.091   1.648  48.694  1.00  0.00     0.187 HD
ENDROOT
BRANCH   1  25
HETATM   25  N1  UNL     1      26.468   0.374  53.943  1.00  0.00    -0.330 N 
HETATM   26  C4  UNL     1      27.509  -0.570  53.711  1.00  0.00     0.225 C 
HETATM   27  O1  UNL     1      27.378  -1.646  53.068  1.00  0.00    -0.273 OA
HETATM   28  H8  UNL     1      26.678   1.242  54.491  1.00  0.00     0.168 HD
BRANCH  26  29
HETATM   29  C2  UNL     1      28.844  -0.274  54.262  1.00  0.00     0.070 C 
HETATM   30  C1  UNL     1      29.878  -1.067  53.490  1.00  0.00     0.019 C 
HETATM   31  C3  UNL     1      29.233   1.169  54.232  1.00  0.00     0.019 C 
ENDBRANCH  26  29
ENDBRANCH   1  25
TORSDOF 2
ENDMDL
MODEL 6
REMARK VINA RESULT:      -9.2      3.992      6.811
REMARK  2 active torsions:
REMARK  status: ('A' for Active; 'I' for Inactive)
REMARK    1  A    between atoms: C2_2  and  C4_4 
REMARK       I    between atoms: C4_4  and  N1_6 
REMARK    2  A    between atoms: N1_6  and  C5_7 
ROOT
HETATM    1  C5  UNL     1      28.641   6.740  47.575  1.00  0.00     0.015 A 
HETATM    2  C6  UNL     1      27.631   7.547  47.324  1.00  0.00     0.027 A 
HETATM    3  C7  UNL     1      26.255   7.417  47.771  1.00  0.00     0.032 A 
HETATM    4  C8  UNL     1      25.719   6.448  48.531  1.00  0.00     0.046 A 
HETATM    5  N2  UNL     1      24.345   6.370  48.944  1.00  0.00    -0.322 N 
HETATM    6  C9  UNL     1      24.164   5.204  49.734  1.00  0.00     0.259 A 
HETATM    7  O2  UNL     1      22.969   5.125  50.101  1.00  0.00    -0.267 OA
HETATM    8  C10 UNL     1      25.412   4.463  49.877  1.00  0.00     0.073 A 
HETATM    9  C11 UNL     1      25.492   3.353  50.562  1.00  0.00     0.078 A 
HETATM   10  N3  UNL     1      26.564   2.480  50.836  1.00  0.00    -0.353 N 
HETATM   11  C12 UNL     1      26.237   1.355  51.638  1.00  0.00     0.045 A 
HETATM   12  C13 UNL     1      26.869   0.252  52.175  1.00  0.00     0.030 A 
HETATM   13  C14 UNL     1      26.238  -0.699  52.945  1.00  0.00     0.002 A 
HETATM   14  C15 UNL     1      24.907  -0.579  53.221  1.00  0.00     0.001 A 
HETATM   15  C16 UNL     1      24.239   0.504  52.708  1.00  0.00     0.016 A 
HETATM   16  C17 UNL     1      24.893   1.462  51.925  1.00  0.00     0.021 A 
HETATM   17  C18 UNL     1      24.408   2.677  51.279  1.00  0.00     0.088 A 
HETATM   18  N4  UNL     1      23.184   3.034  51.375  1.00  0.00    -0.297 NA
HETATM   19  C19 UNL     1      26.334   5.265  49.122  1.00  0.00     0.005 A 
HETATM   20  C20 UNL     1      27.594   4.994  48.966  1.00  0.00    -0.006 A 
HETATM   21  C21 UNL     1      28.796   5.505  48.329  1.00  0.00     0.085 A 
HETATM   22  H11 UNL     1      23.711   7.152  48.613  1.00  0.00     0.169 HD
HETATM   23  H12 UNL     1      27.544   2.493  50.569  1.00  0.00     0.166 HD
HETATM   24  H17 UNL     1      22.501   2.500  51.896  1.00  0.00     0.187 HD
ENDROOT
BRANCH   1  25
HETATM   25  N1  UNL     1      29.922   7.048  47.039  1.00  0.00    -0.330 N 
HETATM   26  C4  UNL     1      30.978   7.776  47.659  1.00  0.00     0.225 C 
HETATM   27  O1  UNL     1      30.930   8.274  48.816  1.00  0.00    -0.273 OA
HETATM   28  H8  UNL     1      30.060   6.674  46.071  1.00  0.00     0.168 HD
BRANCH  26  29
HETATM   29  C2  UNL     1      32.225   7.967  46.896  1.00  0.00     0.070 C 
HETATM   30  C1  UNL     1      33.402   7.799  47.834  1.00  0.00     0.019 C 
HETATM   31  C3  UNL     1      32.404   7.040  45.738  1.00  0.00     0.019 C 
ENDBRANCH  26  29
ENDBRANCH   1  25
TORSDOF 2
ENDMDL
MODEL 7
REMARK VINA RESULT:      -8.9      4.352     11.590
REMARK  2 active torsions:
REMARK  status: ('A' for Active; 'I' for Inactive)
REMARK    1  A    between atoms: C2_2  and  C4_4 
REMARK       I    between atoms: C4_4  and  N1_6 
REMARK    2  A    between atoms: N1_6  and  C5_7 
ROOT
HETATM    1  C5  UNL     1      25.641   4.911  49.557  1.00  0.00     0.015 A 
HETATM    2  C6  UNL     1      25.333   6.191  49.517  1.00  0.00     0.027 A 
HETATM    3  C7  UNL     1      26.157   7.291  49.045  1.00  0.00     0.032 A 
HETATM    4  C8  UNL     1      27.405   7.239  48.552  1.00  0.00     0.046 A 
HETATM    5  N2  UNL     1      28.174   8.364  48.098  1.00  0.00    -0.322 N 
HETATM    6  C9  UNL     1      29.442   7.908  47.651  1.00  0.00     0.259 A 
HETATM    7  O2  UNL     1      30.124   8.881  47.252  1.00  0.00    -0.267 OA
HETATM    8  C10 UNL     1      29.564   6.462  47.790  1.00  0.00     0.073 A 
HETATM    9  C11 UNL     1      30.644   5.814  47.443  1.00  0.00     0.078 A 
HETATM   10  N3  UNL     1      30.987   4.447  47.483  1.00  0.00    -0.353 N 
HETATM   11  C12 UNL     1      32.287   4.136  47.004  1.00  0.00     0.045 A 
HETATM   12  C13 UNL     1      33.084   3.023  46.830  1.00  0.00     0.030 A 
HETATM   13  C14 UNL     1      34.360   3.061  46.316  1.00  0.00     0.002 A 
HETATM   14  C15 UNL     1      34.909   4.253  45.942  1.00  0.00     0.001 A 
HETATM   15  C16 UNL     1      34.151   5.387  46.097  1.00  0.00     0.016 A 
HETATM   16  C17 UNL     1      32.855   5.333  46.622  1.00  0.00     0.021 A 
HETATM   17  C18 UNL     1      31.872   6.380  46.879  1.00  0.00     0.088 A 
HETATM   18  N4  UNL     1      32.127   7.605  46.618  1.00  0.00    -0.297 NA
HETATM   19  C19 UNL     1      28.290   6.099  48.346  1.00  0.00     0.005 A 
HETATM   20  C20 UNL     1      27.931   4.887  48.643  1.00  0.00    -0.006 A 
HETATM   21  C21 UNL     1      26.812   4.132  49.183  1.00  0.00     0.085 A 
HETATM   22  H11 UNL     1      27.703   9.311  48.164  1.00  0.00     0.169 HD
HETATM   23  H12 UNL     1      30.481   3.622  47.792  1.00  0.00     0.166 HD
HETATM   24  H17 UNL     1      33.010   7.906  46.227  1.00  0.00     0.187 HD
ENDROOT
BRANCH   1  25
HETATM   25  N1  UNL     1      24.686   3.985  50.060  1.00  0.00    -0.330 N 
HETATM   26  C4  UNL     1      23.490   3.533  49.431  1.00  0.00     0.225 C 
HETATM   27  O1  UNL     1      23.088   3.901  48.295  1.00  0.00    -0.273 OA
HETATM   28  H8  UNL     1      24.934   3.618  51.009  1.00  0.00     0.168 HD
BRANCH  26  29
HETATM   29  C2  UNL     1      22.654   2.561  50.158  1.00  0.00     0.070 C 
HETATM   30  C1  UNL     1      22.009   1.626  49.156  1.00  0.00     0.019 C 
HETATM   31  C3  UNL     1      23.380   1.740  51.174  1.00  0.00     0.019 C 
ENDBRANCH  26  29
ENDBRANCH   1  25
TORSDOF 2
ENDMDL
MODEL 8
REMARK VINA RESULT:      -8.9      4.704      8.376
REMARK  2 active torsions:
REMARK  status: ('A' for Active; 'I' for Inactive)
REMARK    1  A    between atoms: C2_2  and  C4_4 
REMARK       I    between atoms: C4_4  and  N1_6 
REMARK    2  A    between atoms: N1_6  and  C5_7 
ROOT
HETATM    1  C5  UNL     1      31.118   6.344  47.246  1.00  0.00     0.015 A 
HETATM    2  C6  UNL     1      30.654   7.415  46.636  1.00  0.00     0.027 A 
HETATM    3  C7  UNL     1      29.293   7.923  46.641  1.00  0.00     0.032 A 
HETATM    4  C8  UNL     1      28.220   7.411  47.265  1.00  0.00     0.046 A 
HETATM    5  N2  UNL     1      26.892   7.959  47.235  1.00  0.00    -0.322 N 
HETATM    6  C9  UNL     1      26.034   7.137  48.013  1.00  0.00     0.259 A 
HETATM    7  O2  UNL     1      24.872   7.605  47.994  1.00  0.00    -0.267 OA
HETATM    8  C10 UNL     1      26.759   6.012  48.589  1.00  0.00     0.073 A 
HETATM    9  C11 UNL     1      26.178   5.118  49.345  1.00  0.00     0.078 A 
HETATM   10  N3  UNL     1      26.662   3.968  50.001  1.00  0.00    -0.353 N 
HETATM   11  C12 UNL     1      25.691   3.242  50.742  1.00  0.00     0.045 A 
HETATM   12  C13 UNL     1      25.628   2.110  51.527  1.00  0.00     0.030 A 
HETATM   13  C14 UNL     1      24.479   1.653  52.131  1.00  0.00     0.002 A 
HETATM   14  C15 UNL     1      23.307   2.335  51.970  1.00  0.00     0.001 A 
HETATM   15  C16 UNL     1      23.324   3.468  51.197  1.00  0.00     0.016 A 
HETATM   16  C17 UNL     1      24.501   3.920  50.588  1.00  0.00     0.021 A 
HETATM   17  C18 UNL     1      24.767   5.075  49.737  1.00  0.00     0.088 A 
HETATM   18  N4  UNL     1      23.836   5.892  49.421  1.00  0.00    -0.297 NA
HETATM   19  C19 UNL     1      28.094   6.225  48.103  1.00  0.00     0.005 A 
HETATM   20  C20 UNL     1      29.108   5.458  48.366  1.00  0.00    -0.006 A 
HETATM   21  C21 UNL     1      30.530   5.322  48.099  1.00  0.00     0.085 A 
HETATM   22  H11 UNL     1      26.763   8.845  46.667  1.00  0.00     0.169 HD
HETATM   23  H12 UNL     1      27.583   3.544  50.052  1.00  0.00     0.166 HD
HETATM   24  H17 UNL     1      22.883   5.782  49.741  1.00  0.00     0.187 HD
ENDROOT
BRANCH   1  25
HETATM   25  N1  UNL     1      32.495   6.015  47.114  1.00  0.00    -0.330 N 
HETATM   26  C4  UNL     1      33.080   5.013  46.289  1.00  0.00     0.225 C 
HETATM   27  O1  UNL     1      32.440   4.240  45.527  1.00  0.00    -0.273 OA
HETATM   28  H8  UNL     1      33.115   6.608  47.715  1.00  0.00     0.168 HD
BRANCH  26  29
HETATM   29  C2  UNL     1      34.546   4.860  46.323  1.00  0.00     0.070 C 
HETATM   30  C1  UNL     1      35.017   4.984  47.757  1.00  0.00     0.019 C 
HETATM   31  C3  UNL     1      35.059   3.572  45.765  1.00  0.00     0.019 C 
ENDBRANCH  26  29
ENDBRANCH   1  25
TORSDOF 2
ENDMDL
MODEL 9
REMARK VINA RESULT:      -8.7      3.961      8.894
REMARK  2 active torsions:
REMARK  status: ('A' for Active; 'I' for Inactive)
REMARK    1  A    between atoms: C2_2  and  C4_4 
REMARK       I    between atoms: C4_4  and  N1_6 
REMARK    2  A    between atoms: N1_6  and  C5_7 
ROOT
HETATM    1  C5  UNL     1      25.969   1.364  51.911  1.00  0.00     0.015 A 
HETATM    2  C6  UNL     1      24.693   1.294  52.231  1.00  0.00     0.027 A 
HETATM    3  C7  UNL     1      23.627   2.200  51.841  1.00  0.00     0.032 A 
HETATM    4  C8  UNL     1      23.712   3.299  51.076  1.00  0.00     0.046 A 
HETATM    5  N2  UNL     1      22.619   4.161  50.721  1.00  0.00    -0.322 N 
HETATM    6  C9  UNL     1      23.106   5.215  49.904  1.00  0.00     0.259 A 
HETATM    7  O2  UNL     1      22.161   5.975  49.588  1.00  0.00    -0.267 OA
HETATM    8  C10 UNL     1      24.542   5.094  49.684  1.00  0.00     0.073 A 
HETATM    9  C11 UNL     1      25.214   5.951  48.962  1.00  0.00     0.078 A 
HETATM   10  N3  UNL     1      26.578   6.039  48.615  1.00  0.00    -0.353 N 
HETATM   11  C12 UNL     1      26.921   7.145  47.793  1.00  0.00     0.045 A 
HETATM   12  C13 UNL     1      28.046   7.676  47.195  1.00  0.00     0.030 A 
HETATM   13  C14 UNL     1      28.044   8.816  46.424  1.00  0.00     0.002 A 
HETATM   14  C15 UNL     1      26.878   9.492  46.211  1.00  0.00     0.001 A 
HETATM   15  C16 UNL     1      25.734   8.999  46.786  1.00  0.00     0.016 A 
HETATM   16  C17 UNL     1      25.751   7.839  47.569  1.00  0.00     0.021 A 
HETATM   17  C18 UNL     1      24.687   7.131  48.272  1.00  0.00     0.088 A 
HETATM   18  N4  UNL     1      23.480   7.552  48.242  1.00  0.00    -0.297 NA
HETATM   19  C19 UNL     1      24.866   3.905  50.422  1.00  0.00     0.005 A 
HETATM   20  C20 UNL     1      26.056   3.393  50.514  1.00  0.00    -0.006 A 
HETATM   21  C21 UNL     1      26.771   2.279  51.114  1.00  0.00     0.085 A 
HETATM   22  H11 UNL     1      21.667   3.893  51.104  1.00  0.00     0.169 HD
HETATM   23  H12 UNL     1      27.381   5.459  48.839  1.00  0.00     0.166 HD
HETATM   24  H17 UNL     1      23.207   8.384  47.735  1.00  0.00     0.187 HD
ENDROOT
BRANCH   1  25
HETATM   25  N1  UNL     1      26.860   0.369  52.399  1.00  0.00    -0.330 N 
HETATM   26  C4  UNL     1      27.656   0.410  53.580  1.00  0.00     0.225 C 
HETATM   27  O1  UNL     1      27.690   1.370  54.395  1.00  0.00    -0.273 OA
HETATM   28  H8  UNL     1      26.903  -0.478  51.784  1.00  0.00     0.168 HD
BRANCH  26  29
HETATM   29  C2  UNL     1      28.509  -0.755  53.879  1.00  0.00     0.070 C 
HETATM   30  C1  UNL     1      28.081  -1.911  52.998  1.00  0.00     0.019 C 
HETATM   31  C3  UNL     1      29.973  -0.529  53.688  1.00  0.00     0.019 C 
ENDBRANCH  26  29
ENDBRANCH   1  25
TORSDOF 2
ENDMDL
