MODEL 1
REMARK VINA RESULT:      -9.1      0.000      0.000
REMARK  4 active torsions:
REMARK  status: ('A' for Active; 'I' for Inactive)
REMARK    1  A    between atoms: C2_2  and  C3_3 
REMARK    2  A    between atoms: C3_3  and  C4_4 
REMARK    3  A    between atoms: N2_9  and  C8_10 
REMARK    4  A    between atoms: C8_10  and  C9_11 
ROOT
HETATM    1  C4  UNL     1      25.757   0.886  52.568  1.00  0.00     0.091 C 
HETATM    2  C5  UNL     1      26.380   1.874  53.514  1.00  0.00     0.033 C 
HETATM    3  C6  UNL     1      25.176   2.863  53.658  1.00  0.00     0.082 C 
HETATM    4  C7  UNL     1      24.401   2.518  52.389  1.00  0.00     0.127 C 
HETATM    5  N1  UNL     1      23.767   2.143  51.385  1.00  0.00    -0.162 NA
HETATM    6  N2  UNL     1      23.351   2.952  50.358  1.00  0.00    -0.290 N 
HETATM    7  C15 UNL     1      22.614   2.021  49.491  1.00  0.00     0.219 C 
HETATM    8  S1  UNL     1      21.156   1.330  50.247  1.00  0.00    -0.140 SA
HETATM    9  C16 UNL     1      21.400   0.280  51.649  1.00  0.00     0.117 C 
HETATM   10  C17 UNL     1      22.169  -0.126  52.713  1.00  0.00     0.009 A 
HETATM   11  C18 UNL     1      21.254  -1.155  53.204  1.00  0.00     0.039 A 
HETATM   12  C19 UNL     1      21.823  -1.736  54.458  1.00  0.00    -0.026 A 
HETATM   13  C20 UNL     1      22.941  -1.483  55.080  1.00  0.00    -0.002 A 
HETATM   14  C21 UNL     1      23.755  -0.478  54.463  1.00  0.00     0.025 A 
HETATM   15  C22 UNL     1      23.461   0.173  53.382  1.00  0.00     0.019 A 
HETATM   16  N3  UNL     1      24.380   1.126  52.839  1.00  0.00    -0.332 N 
ENDROOT
BRANCH   6  17
HETATM   17  C8  UNL     1      23.591   4.387  50.203  1.00  0.00     0.184 C 
BRANCH  17  18
HETATM   18  C9  UNL     1      24.963   4.622  49.652  1.00  0.00    -0.039 A 
HETATM   19  C10 UNL     1      25.982   3.690  49.626  1.00  0.00     0.009 A 
HETATM   20  C11 UNL     1      27.204   4.045  49.081  1.00  0.00     0.001 A 
HETATM   21  C12 UNL     1      27.426   5.304  48.568  1.00  0.00     0.000 A 
HETATM   22  C13 UNL     1      26.386   6.197  48.615  1.00  0.00     0.001 A 
HETATM   23  C14 UNL     1      25.151   5.905  49.142  1.00  0.00     0.009 A 
ENDBRANCH  17  18
ENDBRANCH   6  17
BRANCH   1  24
HETATM   24  C3  UNL     1      26.354  -0.412  52.524  1.00  0.00     0.025 C 
BRANCH  24  25
HETATM   25  C2  UNL     1      27.365  -0.643  53.605  1.00  0.00    -0.002 C 
HETATM   26  C1  UNL     1      28.733  -1.071  53.238  1.00  0.00     0.005 C 
ENDBRANCH  24  25
ENDBRANCH   1  24
TORSDOF 4
ENDMDL
MODEL 2
REMARK VINA RESULT:      -8.1      1.995      4.478
REMARK  4 active torsions:
REMARK  status: ('A' for Active; 'I' for Inactive)
REMARK    1  A    between atoms: C2_2  and  C3_3 
REMARK    2  A    between atoms: C3_3  and  C4_4 
REMARK    3  A    between atoms: N2_9  and  C8_10 
REMARK    4  A    between atoms: C8_10  and  C9_11 
ROOT
HETATM    1  C4  UNL     1      21.525   2.983  51.094  1.00  0.00     0.091 C 
HETATM    2  C5  UNL     1      21.065   2.813  49.674  1.00  0.00     0.033 C 
HETATM    3  C6  UNL     1      22.106   1.741  49.209  1.00  0.00     0.082 C 
HETATM    4  C7  UNL     1      23.196   1.965  50.255  1.00  0.00     0.127 C 
HETATM    5  N1  UNL     1      24.016   2.131  51.176  1.00  0.00    -0.162 NA
HETATM    6  N2  UNL     1      25.349   2.418  51.015  1.00  0.00    -0.290 N 
HETATM    7  C15 UNL     1      25.844   2.447  52.399  1.00  0.00     0.219 C 
HETATM    8  S1  UNL     1      25.737   0.878  53.237  1.00  0.00    -0.140 SA
HETATM    9  C16 UNL     1      24.115   0.233  53.528  1.00  0.00     0.117 C 
HETATM   10  C17 UNL     1      22.782   0.173  53.203  1.00  0.00     0.009 A 
HETATM   11  C18 UNL     1      22.398  -0.791  54.233  1.00  0.00     0.039 A 
HETATM   12  C19 UNL     1      20.949  -1.116  54.060  1.00  0.00    -0.026 A 
HETATM   13  C20 UNL     1      20.072  -0.660  53.209  1.00  0.00    -0.002 A 
HETATM   14  C21 UNL     1      20.583   0.307  52.284  1.00  0.00     0.025 A 
HETATM   15  C22 UNL     1      21.806   0.731  52.234  1.00  0.00     0.019 A 
HETATM   16  N3  UNL     1      22.184   1.735  51.287  1.00  0.00    -0.332 N 
ENDROOT
BRANCH   6  17
HETATM   17  C8  UNL     1      26.067   2.627  49.757  1.00  0.00     0.184 C 
BRANCH  17  18
HETATM   18  C9  UNL     1      26.146   4.090  49.448  1.00  0.00    -0.039 A 
HETATM   19  C10 UNL     1      25.152   5.013  49.701  1.00  0.00     0.009 A 
HETATM   20  C11 UNL     1      25.364   6.339  49.365  1.00  0.00     0.001 A 
HETATM   21  C12 UNL     1      26.541   6.756  48.784  1.00  0.00     0.000 A 
HETATM   22  C13 UNL     1      27.501   5.805  48.550  1.00  0.00     0.001 A 
HETATM   23  C14 UNL     1      27.351   4.474  48.862  1.00  0.00     0.009 A 
ENDBRANCH  17  18
ENDBRANCH   6  17
BRANCH   1  24
HETATM   24  C3  UNL     1      20.575   3.539  52.006  1.00  0.00     0.025 C 
BRANCH  24  25
HETATM   25  C2  UNL     1      19.258   3.868  51.371  1.00  0.00    -0.002 C 
HETATM   26  C1  UNL     1      18.073   3.044  51.696  1.00  0.00     0.005 C 
ENDBRANCH  24  25
ENDBRANCH   1  24
TORSDOF 4
ENDMDL
MODEL 3
REMARK VINA RESULT:      -8.1      1.364      2.322
REMARK  4 active torsions:
REMARK  status: ('A' for Active; 'I' for Inactive)
REMARK    1  A    between atoms: C2_2  and  C3_3 
REMARK    2  A    between atoms: C3_3  and  C4_4 
REMARK    3  A    between atoms: N2_9  and  C8_10 
REMARK    4  A    between atoms: C8_10  and  C9_11 
ROOT
HETATM    1  C4  UNL     1      26.183   0.353  52.605  1.00  0.00     0.091 C 
HETATM    2  C5  UNL     1      27.039   1.174  53.528  1.00  0.00     0.033 C 
HETATM    3  C6  UNL     1      26.060   2.371  53.764  1.00  0.00     0.082 C 
HETATM    4  C7  UNL     1      25.161   2.220  52.540  1.00  0.00     0.127 C 
HETATM    5  N1  UNL     1      24.410   2.003  51.571  1.00  0.00    -0.162 NA
HETATM    6  N2  UNL     1      24.099   2.907  50.586  1.00  0.00    -0.290 N 
HETATM    7  C15 UNL     1      23.148   2.162  49.750  1.00  0.00     0.219 C 
HETATM    8  S1  UNL     1      21.629   1.742  50.583  1.00  0.00    -0.140 SA
HETATM    9  C16 UNL     1      21.745   0.624  51.949  1.00  0.00     0.117 C 
HETATM   10  C17 UNL     1      22.481   0.047  52.955  1.00  0.00     0.009 A 
HETATM   11  C18 UNL     1      21.413  -0.801  53.483  1.00  0.00     0.039 A 
HETATM   12  C19 UNL     1      21.930  -1.517  54.690  1.00  0.00    -0.026 A 
HETATM   13  C20 UNL     1      23.110  -1.503  55.245  1.00  0.00    -0.002 A 
HETATM   14  C21 UNL     1      24.066  -0.655  54.596  1.00  0.00     0.025 A 
HETATM   15  C22 UNL     1      23.842   0.071  53.547  1.00  0.00     0.019 A 
HETATM   16  N3  UNL     1      24.896   0.845  52.966  1.00  0.00    -0.332 N 
ENDROOT
BRANCH   6  17
HETATM   17  C8  UNL     1      24.605   4.273  50.442  1.00  0.00     0.184 C 
BRANCH  17  18
HETATM   18  C9  UNL     1      23.479   5.207  50.123  1.00  0.00    -0.039 A 
HETATM   19  C10 UNL     1      23.192   5.711  48.870  1.00  0.00     0.009 A 
HETATM   20  C11 UNL     1      22.114   6.566  48.721  1.00  0.00     0.001 A 
HETATM   21  C12 UNL     1      21.323   6.924  49.790  1.00  0.00     0.000 A 
HETATM   22  C13 UNL     1      21.644   6.399  51.016  1.00  0.00     0.001 A 
HETATM   23  C14 UNL     1      22.701   5.546  51.229  1.00  0.00     0.009 A 
ENDBRANCH  17  18
ENDBRANCH   6  17
BRANCH   1  24
HETATM   24  C3  UNL     1      26.513  -1.034  52.501  1.00  0.00     0.025 C 
BRANCH  24  25
HETATM   25  C2  UNL     1      27.879  -1.365  53.019  1.00  0.00    -0.002 C 
HETATM   26  C1  UNL     1      28.357  -2.764  52.959  1.00  0.00     0.005 C 
ENDBRANCH  24  25
ENDBRANCH   1  24
TORSDOF 4
ENDMDL
MODEL 4
REMARK VINA RESULT:      -8.0      2.015      5.607
REMARK  4 active torsions:
REMARK  status: ('A' for Active; 'I' for Inactive)
REMARK    1  A    between atoms: C2_2  and  C3_3 
REMARK    2  A    between atoms: C3_3  and  C4_4 
REMARK    3  A    between atoms: N2_9  and  C8_10 
REMARK    4  A    between atoms: C8_10  and  C9_11 
ROOT
HETATM    1  C4  UNL     1      23.637   4.086  51.394  1.00  0.00     0.091 C 
HETATM    2  C5  UNL     1      24.370   4.442  50.131  1.00  0.00     0.033 C 
HETATM    3  C6  UNL     1      24.528   3.005  49.531  1.00  0.00     0.082 C 
HETATM    4  C7  UNL     1      24.355   2.172  50.799  1.00  0.00     0.127 C 
HETATM    5  N1  UNL     1      24.126   1.537  51.845  1.00  0.00    -0.162 NA
HETATM    6  N2  UNL     1      24.953   0.593  52.401  1.00  0.00    -0.290 N 
HETATM    7  C15 UNL     1      24.182   0.133  53.564  1.00  0.00     0.219 C 
HETATM    8  S1  UNL     1      22.654  -0.682  53.143  1.00  0.00    -0.140 SA
HETATM    9  C16 UNL     1      21.414   0.300  52.350  1.00  0.00     0.117 C 
HETATM   10  C17 UNL     1      21.063   1.393  51.596  1.00  0.00     0.009 A 
HETATM   11  C18 UNL     1      19.624   1.134  51.578  1.00  0.00     0.039 A 
HETATM   12  C19 UNL     1      18.968   2.170  50.723  1.00  0.00    -0.026 A 
HETATM   13  C20 UNL     1      19.472   3.191  50.088  1.00  0.00    -0.002 A 
HETATM   14  C21 UNL     1      20.890   3.341  50.228  1.00  0.00     0.025 A 
HETATM   15  C22 UNL     1      21.670   2.559  50.905  1.00  0.00     0.019 A 
HETATM   16  N3  UNL     1      23.069   2.840  51.003  1.00  0.00    -0.332 N 
ENDROOT
BRANCH   6  17
HETATM   17  C8  UNL     1      26.268   0.169  51.918  1.00  0.00     0.184 C 
BRANCH  17  18
HETATM   18  C9  UNL     1      27.344   0.752  52.780  1.00  0.00    -0.039 A 
HETATM   19  C10 UNL     1      27.667   2.092  52.853  1.00  0.00     0.009 A 
HETATM   20  C11 UNL     1      28.688   2.492  53.699  1.00  0.00     0.001 A 
HETATM   21  C12 UNL     1      29.387   1.586  54.465  1.00  0.00     0.000 A 
HETATM   22  C13 UNL     1      29.032   0.265  54.360  1.00  0.00     0.001 A 
HETATM   23  C14 UNL     1      28.029  -0.194  53.540  1.00  0.00     0.009 A 
ENDBRANCH  17  18
ENDBRANCH   6  17
BRANCH   1  24
HETATM   24  C3  UNL     1      22.906   5.142  52.021  1.00  0.00     0.025 C 
BRANCH  24  25
HETATM   25  C2  UNL     1      22.872   6.407  51.218  1.00  0.00    -0.002 C 
HETATM   26  C1  UNL     1      21.567   6.967  50.804  1.00  0.00     0.005 C 
ENDBRANCH  24  25
ENDBRANCH   1  24
TORSDOF 4
ENDMDL
MODEL 5
REMARK VINA RESULT:      -8.0      1.806      2.757
REMARK  4 active torsions:
REMARK  status: ('A' for Active; 'I' for Inactive)
REMARK    1  A    between atoms: C2_2  and  C3_3 
REMARK    2  A    between atoms: C3_3  and  C4_4 
REMARK    3  A    between atoms: N2_9  and  C8_10 
REMARK    4  A    between atoms: C8_10  and  C9_11 
ROOT
HETATM    1  C4  UNL     1      24.671   1.200  52.385  1.00  0.00     0.091 C 
HETATM    2  C5  UNL     1      25.192   2.266  53.308  1.00  0.00     0.033 C 
HETATM    3  C6  UNL     1      24.185   3.408  52.949  1.00  0.00     0.082 C 
HETATM    4  C7  UNL     1      23.717   2.924  51.579  1.00  0.00     0.127 C 
HETATM    5  N1  UNL     1      23.309   2.444  50.505  1.00  0.00    -0.162 NA
HETATM    6  N2  UNL     1      23.322   3.084  49.291  1.00  0.00    -0.290 N 
HETATM    7  C15 UNL     1      22.682   2.103  48.402  1.00  0.00     0.219 C 
HETATM    8  S1  UNL     1      20.980   1.764  48.805  1.00  0.00    -0.140 SA
HETATM    9  C16 UNL     1      20.664   0.985  50.362  1.00  0.00     0.117 C 
HETATM   10  C17 UNL     1      21.047   0.700  51.650  1.00  0.00     0.009 A 
HETATM   11  C18 UNL     1      19.870  -0.089  52.008  1.00  0.00     0.039 A 
HETATM   12  C19 UNL     1      19.983  -0.482  53.447  1.00  0.00    -0.026 A 
HETATM   13  C20 UNL     1      20.929  -0.257  54.316  1.00  0.00    -0.002 A 
HETATM   14  C21 UNL     1      22.038   0.497  53.812  1.00  0.00     0.025 A 
HETATM   15  C22 UNL     1      22.154   0.956  52.606  1.00  0.00     0.019 A 
HETATM   16  N3  UNL     1      23.335   1.660  52.211  1.00  0.00    -0.332 N 
ENDROOT
BRANCH   6  17
HETATM   17  C8  UNL     1      23.843   4.419  48.995  1.00  0.00     0.184 C 
BRANCH  17  18
HETATM   18  C9  UNL     1      22.902   5.463  49.510  1.00  0.00    -0.039 A 
HETATM   19  C10 UNL     1      21.529   5.437  49.370  1.00  0.00     0.009 A 
HETATM   20  C11 UNL     1      20.779   6.473  49.901  1.00  0.00     0.001 A 
HETATM   21  C12 UNL     1      21.371   7.526  50.561  1.00  0.00     0.000 A 
HETATM   22  C13 UNL     1      22.738   7.512  50.676  1.00  0.00     0.001 A 
HETATM   23  C14 UNL     1      23.536   6.512  50.172  1.00  0.00     0.009 A 
ENDBRANCH  17  18
ENDBRANCH   6  17
BRANCH   1  24
HETATM   24  C3  UNL     1      25.021  -0.147  52.712  1.00  0.00     0.025 C 
BRANCH  24  25
HETATM   25  C2  UNL     1      26.466  -0.465  52.477  1.00  0.00    -0.002 C 
HETATM   26  C1  UNL     1      26.923  -1.869  52.569  1.00  0.00     0.005 C 
ENDBRANCH  24  25
ENDBRANCH   1  24
TORSDOF 4
ENDMDL
MODEL 6
REMARK VINA RESULT:      -7.8      2.582      5.832
REMARK  4 active torsions:
REMARK  status: ('A' for Active; 'I' for Inactive)
REMARK    1  A    between atoms: C2_2  and  C3_3 
REMARK    2  A    between atoms: C3_3  and  C4_4 
REMARK    3  A    between atoms: N2_9  and  C8_10 
REMARK    4  A    between atoms: C8_10  and  C9_11 
ROOT
HETATM    1  C4  UNL     1      21.217   3.291  50.585  1.00  0.00     0.091 C 
HETATM    2  C5  UNL     1      21.479   3.392  49.108  1.00  0.00     0.033 C 
HETATM    3  C6  UNL     1      22.274   2.059  48.912  1.00  0.00     0.082 C 
HETATM    4  C7  UNL     1      22.732   1.815  50.348  1.00  0.00     0.127 C 
HETATM    5  N1  UNL     1      23.011   1.619  51.545  1.00  0.00    -0.162 NA
HETATM    6  N2  UNL     1      24.274   1.434  52.049  1.00  0.00    -0.290 N 
HETATM    7  C15 UNL     1      24.021   1.191  53.476  1.00  0.00     0.219 C 
HETATM    8  S1  UNL     1      23.095  -0.295  53.805  1.00  0.00    -0.140 SA
HETATM    9  C16 UNL     1      21.431  -0.352  53.207  1.00  0.00     0.117 C 
HETATM   10  C17 UNL     1      20.466   0.081  52.331  1.00  0.00     0.009 A 
HETATM   11  C18 UNL     1      19.382  -0.757  52.842  1.00  0.00     0.039 A 
HETATM   12  C19 UNL     1      18.174  -0.543  51.988  1.00  0.00    -0.026 A 
HETATM   13  C20 UNL     1      17.984   0.249  50.968  1.00  0.00    -0.002 A 
HETATM   14  C21 UNL     1      19.123   1.038  50.604  1.00  0.00     0.025 A 
HETATM   15  C22 UNL     1      20.279   1.011  51.188  1.00  0.00     0.019 A 
HETATM   16  N3  UNL     1      21.328   1.882  50.756  1.00  0.00    -0.332 N 
ENDROOT
BRANCH   6  17
HETATM   17  C8  UNL     1      25.538   1.465  51.312  1.00  0.00     0.184 C 
BRANCH  17  18
HETATM   18  C9  UNL     1      26.609   0.776  52.099  1.00  0.00    -0.039 A 
HETATM   19  C10 UNL     1      26.723  -0.590  52.264  1.00  0.00     0.009 A 
HETATM   20  C11 UNL     1      27.770  -1.091  53.018  1.00  0.00     0.001 A 
HETATM   21  C12 UNL     1      28.697  -0.260  53.607  1.00  0.00     0.000 A 
HETATM   22  C13 UNL     1      28.545   1.090  53.417  1.00  0.00     0.001 A 
HETATM   23  C14 UNL     1      27.528   1.648  52.679  1.00  0.00     0.009 A 
ENDBRANCH  17  18
ENDBRANCH   6  17
BRANCH   1  24
HETATM   24  C3  UNL     1      20.138   4.080  51.092  1.00  0.00     0.025 C 
BRANCH  24  25
HETATM   25  C2  UNL     1      19.261   4.655  50.022  1.00  0.00    -0.002 C 
HETATM   26  C1  UNL     1      17.793   4.505  50.131  1.00  0.00     0.005 C 
ENDBRANCH  24  25
ENDBRANCH   1  24
TORSDOF 4
ENDMDL
MODEL 7
REMARK VINA RESULT:      -7.6      2.304      7.403
REMARK  4 active torsions:
REMARK  status: ('A' for Active; 'I' for Inactive)
REMARK    1  A    between atoms: C2_2  and  C3_3 
REMARK    2  A    between atoms: C3_3  and  C4_4 
REMARK    3  A    between atoms: N2_9  and  C8_10 
REMARK    4  A    between atoms: C8_10  and  C9_11 
ROOT
HETATM    1  C4  UNL     1      22.339   4.536  49.037  1.00  0.00     0.091 C 
HETATM    2  C5  UNL     1      21.379   5.474  49.713  1.00  0.00     0.033 C 
HETATM    3  C6  UNL     1      22.105   5.608  51.093  1.00  0.00     0.082 C 
HETATM    4  C7  UNL     1      22.956   4.340  51.065  1.00  0.00     0.127 C 
HETATM    5  N1  UNL     1      23.687   3.339  50.957  1.00  0.00    -0.162 NA
HETATM    6  N2  UNL     1      23.759   2.304  51.855  1.00  0.00    -0.290 N 
HETATM    7  C15 UNL     1      24.801   1.445  51.276  1.00  0.00     0.219 C 
HETATM    8  S1  UNL     1      26.412   2.204  51.211  1.00  0.00    -0.140 SA
HETATM    9  C16 UNL     1      26.591   3.616  50.160  1.00  0.00     0.117 C 
HETATM   10  C17 UNL     1      26.038   4.684  49.497  1.00  0.00     0.009 A 
HETATM   11  C18 UNL     1      27.280   5.182  48.908  1.00  0.00     0.039 A 
HETATM   12  C19 UNL     1      26.979   6.443  48.162  1.00  0.00    -0.026 A 
HETATM   13  C20 UNL     1      25.848   7.064  47.967  1.00  0.00    -0.002 A 
HETATM   14  C21 UNL     1      24.710   6.439  48.572  1.00  0.00     0.025 A 
HETATM   15  C22 UNL     1      24.730   5.352  49.277  1.00  0.00     0.019 A 
HETATM   16  N3  UNL     1      23.515   4.803  49.794  1.00  0.00    -0.332 N 
ENDROOT
BRANCH   6  17
HETATM   17  C8  UNL     1      22.981   2.138  53.083  1.00  0.00     0.184 C 
BRANCH  17  18
HETATM   18  C9  UNL     1      21.771   1.299  52.815  1.00  0.00    -0.039 A 
HETATM   19  C10 UNL     1      21.072   1.265  51.625  1.00  0.00     0.009 A 
HETATM   20  C11 UNL     1      19.969   0.437  51.516  1.00  0.00     0.001 A 
HETATM   21  C12 UNL     1      19.554  -0.353  52.566  1.00  0.00     0.000 A 
HETATM   22  C13 UNL     1      20.277  -0.288  53.729  1.00  0.00     0.001 A 
HETATM   23  C14 UNL     1      21.381   0.514  53.899  1.00  0.00     0.009 A 
ENDBRANCH  17  18
ENDBRANCH   6  17
BRANCH   1  24
HETATM   24  C3  UNL     1      22.292   4.504  47.608  1.00  0.00     0.025 C 
BRANCH  24  25
HETATM   25  C2  UNL     1      22.182   3.120  47.043  1.00  0.00    -0.002 C 
HETATM   26  C1  UNL     1      22.131   1.964  47.965  1.00  0.00     0.005 C 
ENDBRANCH  24  25
ENDBRANCH   1  24
TORSDOF 4
ENDMDL
MODEL 8
REMARK VINA RESULT:      -7.6      2.463      7.335
REMARK  4 active torsions:
REMARK  status: ('A' for Active; 'I' for Inactive)
REMARK    1  A    between atoms: C2_2  and  C3_3 
REMARK    2  A    between atoms: C3_3  and  C4_4 
REMARK    3  A    between atoms: N2_9  and  C8_10 
REMARK    4  A    between atoms: C8_10  and  C9_11 
ROOT
HETATM    1  C4  UNL     1      21.838   2.195  49.886  1.00  0.00     0.091 C 
HETATM    2  C5  UNL     1      20.940   3.378  50.115  1.00  0.00     0.033 C 
HETATM    3  C6  UNL     1      21.140   3.536  51.659  1.00  0.00     0.082 C 
HETATM    4  C7  UNL     1      21.635   2.134  52.005  1.00  0.00     0.127 C 
HETATM    5  N1  UNL     1      22.110   1.004  52.220  1.00  0.00    -0.162 NA
HETATM    6  N2  UNL     1      21.622   0.093  53.123  1.00  0.00    -0.290 N 
HETATM    7  C15 UNL     1      22.578  -1.018  53.012  1.00  0.00     0.219 C 
HETATM    8  S1  UNL     1      24.235  -0.601  53.520  1.00  0.00    -0.140 SA
HETATM    9  C16 UNL     1      25.090   0.609  52.552  1.00  0.00     0.117 C 
HETATM   10  C17 UNL     1      25.065   1.675  51.686  1.00  0.00     0.009 A 
HETATM   11  C18 UNL     1      26.513   1.845  51.582  1.00  0.00     0.039 A 
HETATM   12  C19 UNL     1      26.789   3.038  50.724  1.00  0.00    -0.026 A 
HETATM   13  C20 UNL     1      25.974   3.839  50.095  1.00  0.00    -0.002 A 
HETATM   14  C21 UNL     1      24.585   3.527  50.258  1.00  0.00     0.025 A 
HETATM   15  C22 UNL     1      24.108   2.552  50.965  1.00  0.00     0.019 A 
HETATM   16  N3  UNL     1      22.697   2.319  51.015  1.00  0.00    -0.332 N 
ENDROOT
BRANCH   6  17
HETATM   17  C8  UNL     1      20.443   0.234  53.979  1.00  0.00     0.184 C 
BRANCH  17  18
HETATM   18  C9  UNL     1      19.243  -0.347  53.299  1.00  0.00    -0.039 A 
HETATM   19  C10 UNL     1      18.603   0.201  52.205  1.00  0.00     0.009 A 
HETATM   20  C11 UNL     1      17.502  -0.449  51.675  1.00  0.00     0.001 A 
HETATM   21  C12 UNL     1      17.031  -1.626  52.214  1.00  0.00     0.000 A 
HETATM   22  C13 UNL     1      17.697  -2.134  53.300  1.00  0.00     0.001 A 
HETATM   23  C14 UNL     1      18.796  -1.537  53.871  1.00  0.00     0.009 A 
ENDBRANCH  17  18
ENDBRANCH   6  17
BRANCH   1  24
HETATM   24  C3  UNL     1      22.295   1.997  48.546  1.00  0.00     0.025 C 
BRANCH  24  25
HETATM   25  C2  UNL     1      22.340   3.256  47.736  1.00  0.00    -0.002 C 
HETATM   26  C1  UNL     1      21.670   3.293  46.417  1.00  0.00     0.005 C 
ENDBRANCH  24  25
ENDBRANCH   1  24
TORSDOF 4
ENDMDL
MODEL 9
REMARK VINA RESULT:      -7.4      2.404      4.678
REMARK  4 active torsions:
REMARK  status: ('A' for Active; 'I' for Inactive)
REMARK    1  A    between atoms: C2_2  and  C3_3 
REMARK    2  A    between atoms: C3_3  and  C4_4 
REMARK    3  A    between atoms: N2_9  and  C8_10 
REMARK    4  A    between atoms: C8_10  and  C9_11 
ROOT
HETATM    1  C4  UNL     1      20.216   2.389  50.029  1.00  0.00     0.091 C 
HETATM    2  C5  UNL     1      20.245   1.877  48.616  1.00  0.00     0.033 C 
HETATM    3  C6  UNL     1      21.786   1.966  48.359  1.00  0.00     0.082 C 
HETATM    4  C7  UNL     1      22.172   2.980  49.432  1.00  0.00     0.127 C 
HETATM    5  N1  UNL     1      22.446   3.748  50.374  1.00  0.00    -0.162 NA
HETATM    6  N2  UNL     1      23.107   4.945  50.259  1.00  0.00    -0.290 N 
HETATM    7  C15 UNL     1      23.212   5.392  51.655  1.00  0.00     0.219 C 
HETATM    8  S1  UNL     1      24.211   4.331  52.681  1.00  0.00    -0.140 SA
HETATM    9  C16 UNL     1      23.616   2.687  52.952  1.00  0.00     0.117 C 
HETATM   10  C17 UNL     1      22.850   1.618  52.556  1.00  0.00     0.009 A 
HETATM   11  C18 UNL     1      23.188   0.741  53.676  1.00  0.00     0.039 A 
HETATM   12  C19 UNL     1      22.527  -0.583  53.458  1.00  0.00    -0.026 A 
HETATM   13  C20 UNL     1      21.738  -0.990  52.502  1.00  0.00    -0.002 A 
HETATM   14  C21 UNL     1      21.465  -0.011  51.494  1.00  0.00     0.025 A 
HETATM   15  C22 UNL     1      21.936   1.196  51.464  1.00  0.00     0.019 A 
HETATM   16  N3  UNL     1      21.553   2.097  50.421  1.00  0.00    -0.332 N 
ENDROOT
BRANCH   6  17
HETATM   17  C8  UNL     1      23.584   5.583  49.031  1.00  0.00     0.184 C 
BRANCH  17  18
HETATM   18  C9  UNL     1      25.067   5.419  48.910  1.00  0.00    -0.039 A 
HETATM   19  C10 UNL     1      25.766   4.261  49.188  1.00  0.00     0.009 A 
HETATM   20  C11 UNL     1      27.141   4.252  49.028  1.00  0.00     0.001 A 
HETATM   21  C12 UNL     1      27.825   5.368  48.600  1.00  0.00     0.000 A 
HETATM   22  C13 UNL     1      27.090   6.496  48.335  1.00  0.00     0.001 A 
HETATM   23  C14 UNL     1      25.724   6.568  48.474  1.00  0.00     0.009 A 
ENDBRANCH  17  18
ENDBRANCH   6  17
BRANCH   1  24
HETATM   24  C3  UNL     1      19.060   2.054  50.801  1.00  0.00     0.025 C 
BRANCH  24  25
HETATM   25  C2  UNL     1      18.200   1.004  50.166  1.00  0.00    -0.002 C 
HETATM   26  C1  UNL     1      17.808  -0.184  50.955  1.00  0.00     0.005 C 
ENDBRANCH  24  25
ENDBRANCH   1  24
TORSDOF 4
ENDMDL
