MODEL 1
REMARK VINA RESULT:      -7.3      0.000      0.000
REMARK  7 active torsions:
REMARK  status: ('A' for Active; 'I' for Inactive)
REMARK    1  A    between atoms: N1_1  and  C1_2 
REMARK    2  A    between atoms: C1_2  and  C2_3 
REMARK    3  A    between atoms: C2_3  and  N2_4 
REMARK    4  A    between atoms: C9_13  and  O1_14 
REMARK    5  A    between atoms: C10_15  and  O2_16 
REMARK    6  A    between atoms: O2_16  and  C11_17 
REMARK    7  A    between atoms: C11_17  and  C12_18 
ROOT
HETATM    1  C1  UNL     1      25.731   1.542  53.082  1.00  0.00     0.194 A 
HETATM    2  C8  UNL     1      24.591   1.864  52.177  1.00  0.00     0.055 A 
HETATM    3  C9  UNL     1      23.400   1.345  51.912  1.00  0.00     0.097 A 
HETATM    4  C10 UNL     1      23.092   0.143  52.691  1.00  0.00     0.098 A 
HETATM    5  C15 UNL     1      24.045  -0.231  53.527  1.00  0.00     0.016 A 
HETATM    6  C16 UNL     1      25.376   0.299  53.861  1.00  0.00     0.077 A 
ENDROOT
BRANCH   1   7
HETATM    7  N1  UNL     1      25.850   2.645  54.010  1.00  0.00     0.093 N 
HETATM    8  H1  UNL     1      25.186   3.439  53.768  1.00  0.00     0.314 HD
HETATM    9  H2  UNL     1      26.810   3.073  53.963  1.00  0.00     0.314 HD
ENDBRANCH   1   7
BRANCH   1  10
HETATM   10  C2  UNL     1      27.000   1.266  52.335  1.00  0.00     0.170 C 
BRANCH  10  11
HETATM   11  N2  UNL     1      27.620   0.003  52.634  1.00  0.00    -0.364 N 
HETATM   12  C3  UNL     1      26.930  -1.184  52.256  1.00  0.00     0.087 A 
HETATM   13  C4  UNL     1      27.427  -2.396  52.497  1.00  0.00     0.020 A 
HETATM   14  C5  UNL     1      28.691  -2.597  53.152  1.00  0.00     0.042 A 
HETATM   15  C6  UNL     1      29.333  -1.477  53.504  1.00  0.00     0.131 A 
HETATM   16  F1  UNL     1      30.544  -1.534  54.135  1.00  0.00    -0.207 F 
HETATM   17  C7  UNL     1      28.904  -0.068  53.302  1.00  0.00     0.243 A 
HETATM   18 CL1  UNL     1      28.803   0.715  54.908  1.00  0.00    -0.095 Cl
ENDBRANCH  10  11
ENDBRANCH   1  10
BRANCH   3  19
HETATM   19  O1  UNL     1      22.432   1.800  51.001  1.00  0.00    -0.358 OA
HETATM   20  H10 UNL     1      21.856   2.623  51.186  1.00  0.00     0.217 HD
ENDBRANCH   3  19
BRANCH   4  21
HETATM   21  O2  UNL     1      21.898  -0.536  52.555  1.00  0.00    -0.348 OA
BRANCH  21  22
HETATM   22  C11 UNL     1      21.114  -0.761  53.716  1.00  0.00     0.180 C 
BRANCH  22  23
HETATM   23  C12 UNL     1      19.755  -0.133  53.575  1.00  0.00     0.010 A 
HETATM   24  C13 UNL     1      18.582  -1.082  53.226  1.00  0.00     0.007 A 
HETATM   25  C14 UNL     1      19.102  -0.105  52.239  1.00  0.00     0.007 A 
ENDBRANCH  22  23
ENDBRANCH  21  22
ENDBRANCH   4  21
TORSDOF 7
ENDMDL
MODEL 2
REMARK VINA RESULT:      -7.3      3.351      5.069
REMARK  7 active torsions:
REMARK  status: ('A' for Active; 'I' for Inactive)
REMARK    1  A    between atoms: N1_1  and  C1_2 
REMARK    2  A    between atoms: C1_2  and  C2_3 
REMARK    3  A    between atoms: C2_3  and  N2_4 
REMARK    4  A    between atoms: C9_13  and  O1_14 
REMARK    5  A    between atoms: C10_15  and  O2_16 
REMARK    6  A    between atoms: O2_16  and  C11_17 
REMARK    7  A    between atoms: C11_17  and  C12_18 
ROOT
HETATM    1  C1  UNL     1      24.186   1.650  52.413  1.00  0.00     0.194 A 
HETATM    2  C8  UNL     1      24.263   3.006  53.027  1.00  0.00     0.055 A 
HETATM    3  C9  UNL     1      23.655   4.171  52.859  1.00  0.00     0.097 A 
HETATM    4  C10 UNL     1      22.639   4.162  51.803  1.00  0.00     0.098 A 
HETATM    5  C15 UNL     1      22.493   3.000  51.190  1.00  0.00     0.016 A 
HETATM    6  C16 UNL     1      23.135   1.683  51.331  1.00  0.00     0.077 A 
ENDROOT
BRANCH   1   7
HETATM    7  N1  UNL     1      23.745   0.747  53.453  1.00  0.00     0.093 N 
HETATM    8  H1  UNL     1      24.172  -0.221  53.345  1.00  0.00     0.314 HD
HETATM    9  H2  UNL     1      22.706   0.590  53.398  1.00  0.00     0.314 HD
ENDBRANCH   1   7
BRANCH   1  10
HETATM   10  C2  UNL     1      25.479   1.229  51.781  1.00  0.00     0.170 C 
BRANCH  10  11
HETATM   11  N2  UNL     1      26.624   1.279  52.649  1.00  0.00    -0.364 N 
HETATM   12  C3  UNL     1      27.527   2.369  52.499  1.00  0.00     0.087 A 
HETATM   13  C4  UNL     1      28.615   2.495  53.257  1.00  0.00     0.020 A 
HETATM   14  C5  UNL     1      28.957   1.544  54.281  1.00  0.00     0.042 A 
HETATM   15  C6  UNL     1      28.104   0.522  54.416  1.00  0.00     0.131 A 
HETATM   16  F1  UNL     1      28.319  -0.449  55.353  1.00  0.00    -0.207 F 
HETATM   17  C7  UNL     1      26.860   0.255  53.647  1.00  0.00     0.243 A 
HETATM   18 CL1  UNL     1      27.031  -1.342  52.857  1.00  0.00    -0.095 Cl
ENDBRANCH  10  11
ENDBRANCH   1  10
BRANCH   3  19
HETATM   19  O1  UNL     1      23.866   5.376  53.553  1.00  0.00    -0.358 OA
HETATM   20  H10 UNL     1      24.793   5.794  53.646  1.00  0.00     0.217 HD
ENDBRANCH   3  19
BRANCH   4  21
HETATM   21  O2  UNL     1      21.899   5.282  51.484  1.00  0.00    -0.348 OA
BRANCH  21  22
HETATM   22  C11 UNL     1      22.280   6.041  50.347  1.00  0.00     0.180 C 
BRANCH  22  23
HETATM   23  C12 UNL     1      22.822   7.383  50.756  1.00  0.00     0.010 A 
HETATM   24  C13 UNL     1      23.484   8.234  49.644  1.00  0.00     0.007 A 
HETATM   25  C14 UNL     1      24.291   7.614  50.724  1.00  0.00     0.007 A 
ENDBRANCH  22  23
ENDBRANCH  21  22
ENDBRANCH   4  21
TORSDOF 7
ENDMDL
MODEL 3
REMARK VINA RESULT:      -7.2      4.018      7.074
REMARK  7 active torsions:
REMARK  status: ('A' for Active; 'I' for Inactive)
REMARK    1  A    between atoms: N1_1  and  C1_2 
REMARK    2  A    between atoms: C1_2  and  C2_3 
REMARK    3  A    between atoms: C2_3  and  N2_4 
REMARK    4  A    between atoms: C9_13  and  O1_14 
REMARK    5  A    between atoms: C10_15  and  O2_16 
REMARK    6  A    between atoms: O2_16  and  C11_17 
REMARK    7  A    between atoms: C11_17  and  C12_18 
ROOT
HETATM    1  C1  UNL     1      24.362   2.854  52.318  1.00  0.00     0.194 A 
HETATM    2  C8  UNL     1      23.841   1.651  53.029  1.00  0.00     0.055 A 
HETATM    3  C9  UNL     1      24.278   0.429  53.295  1.00  0.00     0.097 A 
HETATM    4  C10 UNL     1      25.617   0.152  52.768  1.00  0.00     0.098 A 
HETATM    5  C15 UNL     1      26.171   1.159  52.114  1.00  0.00     0.016 A 
HETATM    6  C16 UNL     1      25.737   2.527  51.788  1.00  0.00     0.077 A 
ENDROOT
BRANCH   1   7
HETATM    7  N1  UNL     1      24.490   3.900  53.309  1.00  0.00     0.093 N 
HETATM    8  H1  UNL     1      23.768   3.803  54.083  1.00  0.00     0.314 HD
HETATM    9  H2  UNL     1      24.303   4.844  52.884  1.00  0.00     0.314 HD
ENDBRANCH   1   7
BRANCH   1  10
HETATM   10  C2  UNL     1      23.506   3.251  51.154  1.00  0.00     0.170 C 
BRANCH  10  11
HETATM   11  N2  UNL     1      22.278   2.514  51.023  1.00  0.00    -0.364 N 
HETATM   12  C3  UNL     1      22.269   1.385  50.156  1.00  0.00     0.087 A 
HETATM   13  C4  UNL     1      21.176   0.645  49.972  1.00  0.00     0.020 A 
HETATM   14  C5  UNL     1      19.930   0.930  50.631  1.00  0.00     0.042 A 
HETATM   15  C6  UNL     1      19.947   1.994  51.444  1.00  0.00     0.131 A 
HETATM   16  F1  UNL     1      18.825   2.369  52.127  1.00  0.00    -0.207 F 
HETATM   17  C7  UNL     1      21.083   2.903  51.745  1.00  0.00     0.243 A 
HETATM   18 CL1  UNL     1      20.600   4.563  51.280  1.00  0.00    -0.095 Cl
ENDBRANCH  10  11
ENDBRANCH   1  10
BRANCH   3  19
HETATM   19  O1  UNL     1      23.628  -0.598  54.000  1.00  0.00    -0.358 OA
HETATM   20  H10 UNL     1      23.683  -0.678  55.017  1.00  0.00     0.217 HD
ENDBRANCH   3  19
BRANCH   4  21
HETATM   21  O2  UNL     1      26.241  -1.065  52.947  1.00  0.00    -0.348 OA
BRANCH  21  22
HETATM   22  C11 UNL     1      27.615  -1.176  52.609  1.00  0.00     0.180 C 
BRANCH  22  23
HETATM   23  C12 UNL     1      28.485  -0.858  53.793  1.00  0.00     0.010 A 
HETATM   24  C13 UNL     1      29.445   0.349  53.648  1.00  0.00     0.007 A 
HETATM   25  C14 UNL     1      29.957  -1.044  53.685  1.00  0.00     0.007 A 
ENDBRANCH  22  23
ENDBRANCH  21  22
ENDBRANCH   4  21
TORSDOF 7
ENDMDL
MODEL 4
REMARK VINA RESULT:      -7.2      2.752      3.460
REMARK  7 active torsions:
REMARK  status: ('A' for Active; 'I' for Inactive)
REMARK    1  A    between atoms: N1_1  and  C1_2 
REMARK    2  A    between atoms: C1_2  and  C2_3 
REMARK    3  A    between atoms: C2_3  and  N2_4 
REMARK    4  A    between atoms: C9_13  and  O1_14 
REMARK    5  A    between atoms: C10_15  and  O2_16 
REMARK    6  A    between atoms: O2_16  and  C11_17 
REMARK    7  A    between atoms: C11_17  and  C12_18 
ROOT
HETATM    1  C1  UNL     1      26.042   2.074  53.251  1.00  0.00     0.194 A 
HETATM    2  C8  UNL     1      26.585   2.122  51.864  1.00  0.00     0.055 A 
HETATM    3  C9  UNL     1      26.213   2.648  50.706  1.00  0.00     0.097 A 
HETATM    4  C10 UNL     1      24.943   3.376  50.767  1.00  0.00     0.098 A 
HETATM    5  C15 UNL     1      24.375   3.392  51.961  1.00  0.00     0.016 A 
HETATM    6  C16 UNL     1      24.736   2.830  53.272  1.00  0.00     0.077 A 
ENDROOT
BRANCH   1   7
HETATM    7  N1  UNL     1      26.989   2.772  54.092  1.00  0.00     0.093 N 
HETATM    8  H1  UNL     1      27.855   3.071  53.553  1.00  0.00     0.314 HD
HETATM    9  H2  UNL     1      27.351   2.143  54.854  1.00  0.00     0.314 HD
ENDBRANCH   1   7
BRANCH   1  10
HETATM   10  C2  UNL     1      25.768   0.675  53.715  1.00  0.00     0.170 C 
BRANCH  10  11
HETATM   11  N2  UNL     1      26.801  -0.278  53.413  1.00  0.00    -0.364 N 
HETATM   12  C3  UNL     1      26.421  -1.494  52.778  1.00  0.00     0.087 A 
HETATM   13  C4  UNL     1      27.310  -2.435  52.465  1.00  0.00     0.020 A 
HETATM   14  C5  UNL     1      28.714  -2.295  52.742  1.00  0.00     0.042 A 
HETATM   15  C6  UNL     1      29.063  -1.149  53.340  1.00  0.00     0.131 A 
HETATM   16  F1  UNL     1      30.369  -0.896  53.657  1.00  0.00    -0.207 F 
HETATM   17  C7  UNL     1      28.188  -0.019  53.745  1.00  0.00     0.243 A 
HETATM   18 CL1  UNL     1      28.363   0.210  55.511  1.00  0.00    -0.095 Cl
ENDBRANCH  10  11
ENDBRANCH   1  10
BRANCH   3  19
HETATM   19  O1  UNL     1      26.873   2.589  49.466  1.00  0.00    -0.358 OA
HETATM   20  H10 UNL     1      26.447   2.942  48.607  1.00  0.00     0.217 HD
ENDBRANCH   3  19
BRANCH   4  21
HETATM   21  O2  UNL     1      24.395   3.995  49.662  1.00  0.00    -0.348 OA
BRANCH  21  22
HETATM   22  C11 UNL     1      23.033   3.741  49.353  1.00  0.00     0.180 C 
BRANCH  22  23
HETATM   23  C12 UNL     1      22.851   2.336  48.849  1.00  0.00     0.010 A 
HETATM   24  C13 UNL     1      21.437   1.957  48.344  1.00  0.00     0.007 A 
HETATM   25  C14 UNL     1      21.980   1.400  49.607  1.00  0.00     0.007 A 
ENDBRANCH  22  23
ENDBRANCH  21  22
ENDBRANCH   4  21
TORSDOF 7
ENDMDL
MODEL 5
REMARK VINA RESULT:      -7.2      4.296      7.384
REMARK  7 active torsions:
REMARK  status: ('A' for Active; 'I' for Inactive)
REMARK    1  A    between atoms: N1_1  and  C1_2 
REMARK    2  A    between atoms: C1_2  and  C2_3 
REMARK    3  A    between atoms: C2_3  and  N2_4 
REMARK    4  A    between atoms: C9_13  and  O1_14 
REMARK    5  A    between atoms: C10_15  and  O2_16 
REMARK    6  A    between atoms: O2_16  and  C11_17 
REMARK    7  A    between atoms: C11_17  and  C12_18 
ROOT
HETATM    1  C1  UNL     1      24.241   2.993  52.258  1.00  0.00     0.194 A 
HETATM    2  C8  UNL     1      23.688   1.778  52.921  1.00  0.00     0.055 A 
HETATM    3  C9  UNL     1      24.121   0.558  53.203  1.00  0.00     0.097 A 
HETATM    4  C10 UNL     1      25.495   0.301  52.764  1.00  0.00     0.098 A 
HETATM    5  C15 UNL     1      26.079   1.321  52.159  1.00  0.00     0.016 A 
HETATM    6  C16 UNL     1      25.652   2.687  51.818  1.00  0.00     0.077 A 
ENDROOT
BRANCH   1   7
HETATM    7  N1  UNL     1      24.290   4.030  53.265  1.00  0.00     0.093 N 
HETATM    8  H1  UNL     1      23.674   4.859  53.012  1.00  0.00     0.314 HD
HETATM    9  H2  UNL     1      25.260   4.430  53.346  1.00  0.00     0.314 HD
ENDBRANCH   1   7
BRANCH   1  10
HETATM   10  C2  UNL     1      23.461   3.393  51.043  1.00  0.00     0.170 C 
BRANCH  10  11
HETATM   11  N2  UNL     1      23.270   4.810  50.882  1.00  0.00    -0.364 N 
HETATM   12  C3  UNL     1      21.955   5.327  51.051  1.00  0.00     0.087 A 
HETATM   13  C4  UNL     1      21.684   6.625  50.919  1.00  0.00     0.020 A 
HETATM   14  C5  UNL     1      22.695   7.596  50.598  1.00  0.00     0.042 A 
HETATM   15  C6  UNL     1      23.929   7.101  50.441  1.00  0.00     0.131 A 
HETATM   16  F1  UNL     1      24.977   7.922  50.133  1.00  0.00    -0.207 F 
HETATM   17  C7  UNL     1      24.375   5.689  50.557  1.00  0.00     0.243 A 
HETATM   18 CL1  UNL     1      25.100   5.207  48.993  1.00  0.00    -0.095 Cl
ENDBRANCH  10  11
ENDBRANCH   1  10
BRANCH   3  19
HETATM   19  O1  UNL     1      23.437  -0.485  53.853  1.00  0.00    -0.358 OA
HETATM   20  H10 UNL     1      22.417  -0.518  53.900  1.00  0.00     0.217 HD
ENDBRANCH   3  19
BRANCH   4  21
HETATM   21  O2  UNL     1      26.120  -0.911  52.972  1.00  0.00    -0.348 OA
BRANCH  21  22
HETATM   22  C11 UNL     1      27.484  -1.041  52.601  1.00  0.00     0.180 C 
BRANCH  22  23
HETATM   23  C12 UNL     1      28.386  -0.782  53.777  1.00  0.00     0.010 A 
HETATM   24  C13 UNL     1      29.397   0.382  53.634  1.00  0.00     0.007 A 
HETATM   25  C14 UNL     1      29.845  -1.033  53.642  1.00  0.00     0.007 A 
ENDBRANCH  22  23
ENDBRANCH  21  22
ENDBRANCH   4  21
TORSDOF 7
ENDMDL
MODEL 6
REMARK VINA RESULT:      -7.2      4.410      7.715
REMARK  7 active torsions:
REMARK  status: ('A' for Active; 'I' for Inactive)
REMARK    1  A    between atoms: N1_1  and  C1_2 
REMARK    2  A    between atoms: C1_2  and  C2_3 
REMARK    3  A    between atoms: C2_3  and  N2_4 
REMARK    4  A    between atoms: C9_13  and  O1_14 
REMARK    5  A    between atoms: C10_15  and  O2_16 
REMARK    6  A    between atoms: O2_16  and  C11_17 
REMARK    7  A    between atoms: C11_17  and  C12_18 
ROOT
HETATM    1  C1  UNL     1      21.855   0.402  52.811  1.00  0.00     0.194 A 
HETATM    2  C8  UNL     1      22.046  -0.526  53.963  1.00  0.00     0.055 A 
HETATM    3  C9  UNL     1      23.071  -0.976  54.672  1.00  0.00     0.097 A 
HETATM    4  C10 UNL     1      24.367  -0.447  54.240  1.00  0.00     0.098 A 
HETATM    5  C15 UNL     1      24.308   0.388  53.217  1.00  0.00     0.016 A 
HETATM    6  C16 UNL     1      23.210   0.920  52.395  1.00  0.00     0.077 A 
ENDROOT
BRANCH   1   7
HETATM    7  N1  UNL     1      21.070   1.513  53.299  1.00  0.00     0.093 N 
HETATM    8  H1  UNL     1      20.327   1.812  52.599  1.00  0.00     0.314 HD
HETATM    9  H2  UNL     1      21.670   2.367  53.434  1.00  0.00     0.314 HD
ENDBRANCH   1   7
BRANCH   1  10
HETATM   10  C2  UNL     1      21.240  -0.274  51.623  1.00  0.00     0.170 C 
BRANCH  10  11
HETATM   11  N2  UNL     1      20.178   0.460  50.989  1.00  0.00    -0.364 N 
HETATM   12  C3  UNL     1      18.838   0.078  51.279  1.00  0.00     0.087 A 
HETATM   13  C4  UNL     1      17.793   0.700  50.735  1.00  0.00     0.020 A 
HETATM   14  C5  UNL     1      17.939   1.799  49.818  1.00  0.00     0.042 A 
HETATM   15  C6  UNL     1      19.202   2.152  49.551  1.00  0.00     0.131 A 
HETATM   16  F1  UNL     1      19.473   3.182  48.694  1.00  0.00    -0.207 F 
HETATM   17  C7  UNL     1      20.456   1.555  50.080  1.00  0.00     0.243 A 
HETATM   18 CL1  UNL     1      21.417   0.966  48.689  1.00  0.00    -0.095 Cl
ENDBRANCH  10  11
ENDBRANCH   1  10
BRANCH   3  19
HETATM   19  O1  UNL     1      23.058  -1.872  55.755  1.00  0.00    -0.358 OA
HETATM   20  H10 UNL     1      23.459  -2.809  55.688  1.00  0.00     0.217 HD
ENDBRANCH   3  19
BRANCH   4  21
HETATM   21  O2  UNL     1      25.549  -0.799  54.860  1.00  0.00    -0.348 OA
BRANCH  21  22
HETATM   22  C11 UNL     1      26.523   0.210  55.077  1.00  0.00     0.180 C 
BRANCH  22  23
HETATM   23  C12 UNL     1      27.840  -0.176  54.461  1.00  0.00     0.010 A 
HETATM   24  C13 UNL     1      28.363   0.727  53.317  1.00  0.00     0.007 A 
HETATM   25  C14 UNL     1      27.872  -0.648  53.051  1.00  0.00     0.007 A 
ENDBRANCH  22  23
ENDBRANCH  21  22
ENDBRANCH   4  21
TORSDOF 7
ENDMDL
MODEL 7
REMARK VINA RESULT:      -7.2      4.981      7.757
REMARK  7 active torsions:
REMARK  status: ('A' for Active; 'I' for Inactive)
REMARK    1  A    between atoms: N1_1  and  C1_2 
REMARK    2  A    between atoms: C1_2  and  C2_3 
REMARK    3  A    between atoms: C2_3  and  N2_4 
REMARK    4  A    between atoms: C9_13  and  O1_14 
REMARK    5  A    between atoms: C10_15  and  O2_16 
REMARK    6  A    between atoms: O2_16  and  C11_17 
REMARK    7  A    between atoms: C11_17  and  C12_18 
ROOT
HETATM    1  C1  UNL     1      23.741   2.911  51.057  1.00  0.00     0.194 A 
HETATM    2  C8  UNL     1      25.153   2.771  51.513  1.00  0.00     0.055 A 
HETATM    3  C9  UNL     1      26.348   3.115  51.055  1.00  0.00     0.097 A 
HETATM    4  C10 UNL     1      26.309   3.816  49.769  1.00  0.00     0.098 A 
HETATM    5  C15 UNL     1      25.096   3.991  49.273  1.00  0.00     0.016 A 
HETATM    6  C16 UNL     1      23.745   3.633  49.731  1.00  0.00     0.077 A 
ENDROOT
BRANCH   1   7
HETATM    7  N1  UNL     1      23.071   3.745  52.030  1.00  0.00     0.093 N 
HETATM    8  H1  UNL     1      23.599   4.651  52.207  1.00  0.00     0.314 HD
HETATM    9  H2  UNL     1      23.032   3.270  52.968  1.00  0.00     0.314 HD
ENDBRANCH   1   7
BRANCH   1  10
HETATM   10  C2  UNL     1      23.066   1.589  50.855  1.00  0.00     0.170 C 
BRANCH  10  11
HETATM   11  N2  UNL     1      22.703   0.900  52.064  1.00  0.00    -0.364 N 
HETATM   12  C3  UNL     1      23.718   0.170  52.745  1.00  0.00     0.087 A 
HETATM   13  C4  UNL     1      23.472  -0.499  53.870  1.00  0.00     0.020 A 
HETATM   14  C5  UNL     1      22.170  -0.534  54.480  1.00  0.00     0.042 A 
HETATM   15  C6  UNL     1      21.221   0.155  53.834  1.00  0.00     0.131 A 
HETATM   16  F1  UNL     1      19.942   0.199  54.312  1.00  0.00    -0.207 F 
HETATM   17  C7  UNL     1      21.349   0.942  52.580  1.00  0.00     0.243 A 
HETATM   18 CL1  UNL     1      20.215   0.255  51.378  1.00  0.00    -0.095 Cl
ENDBRANCH  10  11
ENDBRANCH   1  10
BRANCH   3  19
HETATM   19  O1  UNL     1      27.607   2.892  51.640  1.00  0.00    -0.358 OA
HETATM   20  H10 UNL     1      28.373   2.452  51.128  1.00  0.00     0.217 HD
ENDBRANCH   3  19
BRANCH   4  21
HETATM   21  O2  UNL     1      27.454   4.255  49.135  1.00  0.00    -0.348 OA
BRANCH  21  22
HETATM   22  C11 UNL     1      27.445   5.545  48.543  1.00  0.00     0.180 C 
BRANCH  22  23
HETATM   23  C12 UNL     1      28.842   5.990  48.207  1.00  0.00     0.010 A 
HETATM   24  C13 UNL     1      29.214   7.448  48.572  1.00  0.00     0.007 A 
HETATM   25  C14 UNL     1      29.042   7.026  47.160  1.00  0.00     0.007 A 
ENDBRANCH  22  23
ENDBRANCH  21  22
ENDBRANCH   4  21
TORSDOF 7
ENDMDL
MODEL 8
REMARK VINA RESULT:      -7.2      9.240     11.968
REMARK  7 active torsions:
REMARK  status: ('A' for Active; 'I' for Inactive)
REMARK    1  A    between atoms: N1_1  and  C1_2 
REMARK    2  A    between atoms: C1_2  and  C2_3 
REMARK    3  A    between atoms: C2_3  and  N2_4 
REMARK    4  A    between atoms: C9_13  and  O1_14 
REMARK    5  A    between atoms: C10_15  and  O2_16 
REMARK    6  A    between atoms: O2_16  and  C11_17 
REMARK    7  A    between atoms: C11_17  and  C12_18 
ROOT
HETATM    1  C1  UNL     1      30.912   8.356  48.060  1.00  0.00     0.194 A 
HETATM    2  C8  UNL     1      30.958   7.407  49.209  1.00  0.00     0.055 A 
HETATM    3  C9  UNL     1      31.653   6.327  49.535  1.00  0.00     0.097 A 
HETATM    4  C10 UNL     1      32.641   5.933  48.527  1.00  0.00     0.098 A 
HETATM    5  C15 UNL     1      32.679   6.713  47.459  1.00  0.00     0.016 A 
HETATM    6  C16 UNL     1      31.937   7.914  47.045  1.00  0.00     0.077 A 
ENDROOT
BRANCH   1   7
HETATM    7  N1  UNL     1      31.302   9.650  48.573  1.00  0.00     0.093 N 
HETATM    8  H1  UNL     1      32.241   9.612  49.071  1.00  0.00     0.314 HD
HETATM    9  H2  UNL     1      30.623   9.985  49.303  1.00  0.00     0.314 HD
ENDBRANCH   1   7
BRANCH   1  10
HETATM   10  C2  UNL     1      29.576   8.373  47.381  1.00  0.00     0.170 C 
BRANCH  10  11
HETATM   11  N2  UNL     1      28.449   8.168  48.250  1.00  0.00    -0.364 N 
HETATM   12  C3  UNL     1      28.239   9.105  49.301  1.00  0.00     0.087 A 
HETATM   13  C4  UNL     1      27.223   8.993  50.155  1.00  0.00     0.020 A 
HETATM   14  C5  UNL     1      26.266   7.921  50.081  1.00  0.00     0.042 A 
HETATM   15  C6  UNL     1      26.471   7.044  49.091  1.00  0.00     0.131 A 
HETATM   16  F1  UNL     1      25.631   5.981  48.915  1.00  0.00    -0.207 F 
HETATM   17  C7  UNL     1      27.552   7.044  48.071  1.00  0.00     0.243 A 
HETATM   18 CL1  UNL     1      28.457   5.508  48.226  1.00  0.00    -0.095 Cl
ENDBRANCH  10  11
ENDBRANCH   1  10
BRANCH   3  19
HETATM   19  O1  UNL     1      31.556   5.542  50.696  1.00  0.00    -0.358 OA
HETATM   20  H10 UNL     1      30.663   5.370  51.163  1.00  0.00     0.217 HD
ENDBRANCH   3  19
BRANCH   4  21
HETATM   21  O2  UNL     1      33.461   4.836  48.689  1.00  0.00    -0.348 OA
BRANCH  21  22
HETATM   22  C11 UNL     1      34.714   4.825  48.024  1.00  0.00     0.180 C 
BRANCH  22  23
HETATM   23  C12 UNL     1      34.936   3.514  47.320  1.00  0.00     0.010 A 
HETATM   24  C13 UNL     1      35.043   3.564  45.776  1.00  0.00     0.007 A 
HETATM   25  C14 UNL     1      33.863   2.967  46.448  1.00  0.00     0.007 A 
ENDBRANCH  22  23
ENDBRANCH  21  22
ENDBRANCH   4  21
TORSDOF 7
ENDMDL
MODEL 9
REMARK VINA RESULT:      -7.1      4.470      8.008
REMARK  7 active torsions:
REMARK  status: ('A' for Active; 'I' for Inactive)
REMARK    1  A    between atoms: N1_1  and  C1_2 
REMARK    2  A    between atoms: C1_2  and  C2_3 
REMARK    3  A    between atoms: C2_3  and  N2_4 
REMARK    4  A    between atoms: C9_13  and  O1_14 
REMARK    5  A    between atoms: C10_15  and  O2_16 
REMARK    6  A    between atoms: O2_16  and  C11_17 
REMARK    7  A    between atoms: C11_17  and  C12_18 
ROOT
HETATM    1  C1  UNL     1      22.357   0.970  52.366  1.00  0.00     0.194 A 
HETATM    2  C8  UNL     1      23.473   1.896  52.716  1.00  0.00     0.055 A 
HETATM    3  C9  UNL     1      24.677   1.785  53.259  1.00  0.00     0.097 A 
HETATM    4  C10 UNL     1      25.038   0.412  53.623  1.00  0.00     0.098 A 
HETATM    5  C15 UNL     1      24.111  -0.491  53.354  1.00  0.00     0.016 A 
HETATM    6  C16 UNL     1      22.766  -0.428  52.759  1.00  0.00     0.077 A 
ENDROOT
BRANCH   1   7
HETATM    7  N1  UNL     1      22.213   1.019  50.928  1.00  0.00     0.093 N 
HETATM    8  H1  UNL     1      23.113   1.320  50.449  1.00  0.00     0.314 HD
HETATM    9  H2  UNL     1      21.503   1.742  50.646  1.00  0.00     0.314 HD
ENDBRANCH   1   7
BRANCH   1  10
HETATM   10  C2  UNL     1      21.088   1.296  53.094  1.00  0.00     0.170 C 
BRANCH  10  11
HETATM   11  N2  UNL     1      19.915   1.373  52.265  1.00  0.00    -0.364 N 
HETATM   12  C3  UNL     1      19.409   2.665  51.945  1.00  0.00     0.087 A 
HETATM   13  C4  UNL     1      18.327   2.831  51.187  1.00  0.00     0.020 A 
HETATM   14  C5  UNL     1      17.592   1.724  50.635  1.00  0.00     0.042 A 
HETATM   15  C6  UNL     1      18.074   0.513  50.941  1.00  0.00     0.131 A 
HETATM   16  F1  UNL     1      17.464  -0.619  50.478  1.00  0.00    -0.207 F 
HETATM   17  C7  UNL     1      19.262   0.178  51.768  1.00  0.00     0.243 A 
HETATM   18 CL1  UNL     1      18.713  -0.833  53.139  1.00  0.00    -0.095 Cl
ENDBRANCH  10  11
ENDBRANCH   1  10
BRANCH   3  19
HETATM   19  O1  UNL     1      25.616   2.798  53.518  1.00  0.00    -0.358 OA
HETATM   20  H10 UNL     1      25.829   3.111  54.467  1.00  0.00     0.217 HD
ENDBRANCH   3  19
BRANCH   4  21
HETATM   21  O2  UNL     1      26.253   0.099  54.197  1.00  0.00    -0.348 OA
BRANCH  21  22
HETATM   22  C11 UNL     1      27.309  -0.330  53.352  1.00  0.00     0.180 C 
BRANCH  22  23
HETATM   23  C12 UNL     1      28.593  -0.463  54.124  1.00  0.00     0.010 A 
HETATM   24  C13 UNL     1      29.851   0.187  53.497  1.00  0.00     0.007 A 
HETATM   25  C14 UNL     1      29.696  -1.287  53.563  1.00  0.00     0.007 A 
ENDBRANCH  22  23
ENDBRANCH  21  22
ENDBRANCH   4  21
TORSDOF 7
ENDMDL
