MODEL 1
REMARK VINA RESULT:      -7.6      0.000      0.000
REMARK  3 active torsions:
REMARK  status: ('A' for Active; 'I' for Inactive)
REMARK    1  A    between atoms: C2_2  and  C3_3 
REMARK    2  A    between atoms: C8_9  and  N1_10 
REMARK       I    between atoms: C9_11  and  N2_12 
REMARK       I    between atoms: C9_11  and  N3_13 
REMARK    3  A    between atoms: N3_13  and  C10_14 
ROOT
HETATM    1  C3  UNL     1      19.506  -0.077  52.407  1.00  0.00    -0.054 C 
HETATM    2  C4  UNL     1      20.626   0.222  53.015  1.00  0.00     0.039 A 
HETATM    3  C5  UNL     1      21.905   0.710  53.612  1.00  0.00     0.009 A 
HETATM    4  C6  UNL     1      21.511   1.651  52.831  1.00  0.00     0.050 A 
HETATM    5  O1  UNL     1      21.239   0.384  53.419  1.00  0.00     0.000 OA
HETATM    6  C7  UNL     1      20.675   0.645  54.885  1.00  0.00     0.012 A 
HETATM    7  C8  UNL     1      21.807   2.923  52.253  1.00  0.00     0.152 C 
HETATM    8  N4  UNL     1      20.929   3.672  51.757  1.00  0.00    -0.250 NA
HETATM    9  C16 UNL     1      19.538   3.365  51.726  1.00  0.00     0.323 C 
HETATM   10  N5  UNL     1      18.974   2.642  50.687  1.00  0.00    -0.176 NA
HETATM   11  N6  UNL     1      19.135   1.482  50.473  1.00  0.00    -0.192 NA
HETATM   12  C17 UNL     1      19.837   0.495  51.059  1.00  0.00     0.208 C 
ENDROOT
BRANCH   7  13
HETATM   13  N1  UNL     1      23.078   2.668  52.726  1.00  0.00    -0.049 NA
HETATM   14  C9  UNL     1      24.114   3.384  52.587  1.00  0.00     0.700 C 
HETATM   15  N2  UNL     1      24.241   4.648  51.903  1.00  0.00    -0.233 N 
HETATM   16  N3  UNL     1      25.294   2.830  53.196  1.00  0.00    -0.190 N 
HETATM   17  H9  UNL     1      23.958   4.666  50.892  1.00  0.00     0.174 HD
HETATM   18  H10 UNL     1      24.603   5.449  52.470  1.00  0.00     0.174 HD
HETATM   19  H11 UNL     1      25.945   3.471  53.743  1.00  0.00     0.184 HD
BRANCH  16  20
HETATM   20  C10 UNL     1      25.624   1.465  53.084  1.00  0.00     0.049 A 
HETATM   21  C11 UNL     1      25.367   0.507  54.012  1.00  0.00     0.030 A 
HETATM   22  C12 UNL     1      25.703  -0.826  53.892  1.00  0.00     0.002 A 
HETATM   23  C13 UNL     1      26.353  -1.247  52.751  1.00  0.00     0.000 A 
HETATM   24  C14 UNL     1      26.648  -0.325  51.762  1.00  0.00     0.002 A 
HETATM   25  C15 UNL     1      26.276   0.988  51.964  1.00  0.00     0.030 A 
ENDBRANCH  16  20
ENDBRANCH   7  13
BRANCH   1  26
HETATM   26  C2  UNL     1      18.313  -0.823  52.069  1.00  0.00    -0.005 C 
HETATM   27  C1  UNL     1      17.713  -1.489  52.993  1.00  0.00     0.011 C 
ENDBRANCH   1  26
TORSDOF 3
ENDMDL
MODEL 2
REMARK VINA RESULT:      -7.5      2.284      2.897
REMARK  3 active torsions:
REMARK  status: ('A' for Active; 'I' for Inactive)
REMARK    1  A    between atoms: C2_2  and  C3_3 
REMARK    2  A    between atoms: C8_9  and  N1_10 
REMARK       I    between atoms: C9_11  and  N2_12 
REMARK       I    between atoms: C9_11  and  N3_13 
REMARK    3  A    between atoms: N3_13  and  C10_14 
ROOT
HETATM    1  C3  UNL     1      20.702   1.372  50.523  1.00  0.00    -0.054 C 
HETATM    2  C4  UNL     1      21.739   1.742  51.229  1.00  0.00     0.039 A 
HETATM    3  C5  UNL     1      22.991   2.224  51.885  1.00  0.00     0.009 A 
HETATM    4  C6  UNL     1      23.082   2.595  50.658  1.00  0.00     0.050 A 
HETATM    5  O1  UNL     1      22.295   1.984  51.674  1.00  0.00     0.000 OA
HETATM    6  C7  UNL     1      21.623   3.148  52.528  1.00  0.00     0.012 A 
HETATM    7  C8  UNL     1      23.891   3.213  49.656  1.00  0.00     0.152 C 
HETATM    8  N4  UNL     1      23.422   3.690  48.594  1.00  0.00    -0.250 NA
HETATM    9  C16 UNL     1      22.036   3.700  48.263  1.00  0.00     0.323 C 
HETATM   10  N5  UNL     1      21.436   2.637  47.608  1.00  0.00    -0.176 NA
HETATM   11  N6  UNL     1      21.217   1.563  48.072  1.00  0.00    -0.192 NA
HETATM   12  C17 UNL     1      21.427   0.982  49.267  1.00  0.00     0.208 C 
ENDROOT
BRANCH   7  13
HETATM   13  N1  UNL     1      24.899   3.036  50.582  1.00  0.00    -0.049 NA
HETATM   14  C9  UNL     1      26.132   3.295  50.444  1.00  0.00     0.700 C 
HETATM   15  N2  UNL     1      26.806   3.838  49.291  1.00  0.00    -0.233 N 
HETATM   16  N3  UNL     1      26.927   2.986  51.603  1.00  0.00    -0.190 N 
HETATM   17  H9  UNL     1      26.704   3.307  48.392  1.00  0.00     0.174 HD
HETATM   18  H10 UNL     1      27.343   4.724  49.441  1.00  0.00     0.174 HD
HETATM   19  H11 UNL     1      27.676   3.676  51.916  1.00  0.00     0.184 HD
BRANCH  16  20
HETATM   20  C10 UNL     1      26.757   1.794  52.333  1.00  0.00     0.049 A 
HETATM   21  C11 UNL     1      26.777   0.537  51.819  1.00  0.00     0.030 A 
HETATM   22  C12 UNL     1      26.601  -0.622  52.545  1.00  0.00     0.002 A 
HETATM   23  C13 UNL     1      26.384  -0.528  53.904  1.00  0.00     0.000 A 
HETATM   24  C14 UNL     1      26.350   0.721  54.498  1.00  0.00     0.002 A 
HETATM   25  C15 UNL     1      26.536   1.829  53.696  1.00  0.00     0.030 A 
ENDBRANCH  16  20
ENDBRANCH   7  13
BRANCH   1  26
HETATM   26  C2  UNL     1      19.396   0.817  50.232  1.00  0.00    -0.005 C 
HETATM   27  C1  UNL     1      18.753   0.215  51.170  1.00  0.00     0.011 C 
ENDBRANCH   1  26
TORSDOF 3
ENDMDL
MODEL 3
REMARK VINA RESULT:      -7.4      2.496      6.590
REMARK  3 active torsions:
REMARK  status: ('A' for Active; 'I' for Inactive)
REMARK    1  A    between atoms: C2_2  and  C3_3 
REMARK    2  A    between atoms: C8_9  and  N1_10 
REMARK       I    between atoms: C9_11  and  N2_12 
REMARK       I    between atoms: C9_11  and  N3_13 
REMARK    3  A    between atoms: N3_13  and  C10_14 
ROOT
HETATM    1  C3  UNL     1      26.343   1.552  52.656  1.00  0.00    -0.054 C 
HETATM    2  C4  UNL     1      25.094   1.925  52.544  1.00  0.00     0.039 A 
HETATM    3  C5  UNL     1      23.626   2.194  52.486  1.00  0.00     0.009 A 
HETATM    4  C6  UNL     1      23.743   1.062  53.082  1.00  0.00     0.050 A 
HETATM    5  O1  UNL     1      24.391   2.192  52.510  1.00  0.00     0.000 OA
HETATM    6  C7  UNL     1      24.373   3.358  53.593  1.00  0.00     0.012 A 
HETATM    7  C8  UNL     1      23.069  -0.061  53.651  1.00  0.00     0.152 C 
HETATM    8  N4  UNL     1      23.611  -0.844  54.470  1.00  0.00    -0.250 NA
HETATM    9  C16 UNL     1      24.945  -0.704  54.951  1.00  0.00     0.323 C 
HETATM   10  N5  UNL     1      26.023  -1.258  54.281  1.00  0.00    -0.176 NA
HETATM   11  N6  UNL     1      26.464  -0.888  53.238  1.00  0.00    -0.192 NA
HETATM   12  C17 UNL     1      26.156   0.090  52.368  1.00  0.00     0.208 C 
ENDROOT
BRANCH   7  13
HETATM   13  N1  UNL     1      21.975   0.457  52.990  1.00  0.00    -0.049 NA
HETATM   14  C9  UNL     1      20.774   0.056  53.045  1.00  0.00     0.700 C 
HETATM   15  N2  UNL     1      20.234  -1.041  53.809  1.00  0.00    -0.233 N 
HETATM   16  N3  UNL     1      19.866   0.812  52.222  1.00  0.00    -0.190 N 
HETATM   17  H9  UNL     1      20.657  -1.986  53.640  1.00  0.00     0.174 HD
HETATM   18  H10 UNL     1      19.462  -0.807  54.476  1.00  0.00     0.174 HD
HETATM   19  H11 UNL     1      18.914   1.081  52.614  1.00  0.00     0.184 HD
BRANCH  16  20
HETATM   20  C10 UNL     1      20.192   1.200  50.908  1.00  0.00     0.049 A 
HETATM   21  C11 UNL     1      21.135   0.620  50.119  1.00  0.00     0.030 A 
HETATM   22  C12 UNL     1      21.449   1.016  48.836  1.00  0.00     0.002 A 
HETATM   23  C13 UNL     1      20.768   2.080  48.283  1.00  0.00     0.000 A 
HETATM   24  C14 UNL     1      19.793   2.719  49.028  1.00  0.00     0.002 A 
HETATM   25  C15 UNL     1      19.543   2.258  50.305  1.00  0.00     0.030 A 
ENDBRANCH  16  20
ENDBRANCH   7  13
BRANCH   1  26
HETATM   26  C2  UNL     1      27.786   1.632  52.579  1.00  0.00    -0.005 C 
HETATM   27  C1  UNL     1      28.414   2.372  53.424  1.00  0.00     0.011 C 
ENDBRANCH   1  26
TORSDOF 3
ENDMDL
MODEL 4
REMARK VINA RESULT:      -7.4      2.724      5.907
REMARK  3 active torsions:
REMARK  status: ('A' for Active; 'I' for Inactive)
REMARK    1  A    between atoms: C2_2  and  C3_3 
REMARK    2  A    between atoms: C8_9  and  N1_10 
REMARK       I    between atoms: C9_11  and  N2_12 
REMARK       I    between atoms: C9_11  and  N3_13 
REMARK    3  A    between atoms: N3_13  and  C10_14 
ROOT
HETATM    1  C3  UNL     1      24.810   4.472  49.449  1.00  0.00    -0.054 C 
HETATM    2  C4  UNL     1      23.941   3.503  49.585  1.00  0.00     0.039 A 
HETATM    3  C5  UNL     1      22.855   2.510  49.839  1.00  0.00     0.009 A 
HETATM    4  C6  UNL     1      22.458   3.600  50.392  1.00  0.00     0.050 A 
HETATM    5  O1  UNL     1      23.441   2.942  49.600  1.00  0.00     0.000 OA
HETATM    6  C7  UNL     1      22.892   2.877  48.107  1.00  0.00     0.012 A 
HETATM    7  C8  UNL     1      21.458   4.238  51.188  1.00  0.00     0.152 C 
HETATM    8  N4  UNL     1      21.297   5.483  51.218  1.00  0.00    -0.250 NA
HETATM    9  C16 UNL     1      22.064   6.410  50.454  1.00  0.00     0.323 C 
HETATM   10  N5  UNL     1      23.258   6.930  50.925  1.00  0.00    -0.176 NA
HETATM   11  N6  UNL     1      24.281   6.334  51.048  1.00  0.00    -0.192 NA
HETATM   12  C17 UNL     1      24.679   5.070  50.820  1.00  0.00     0.208 C 
ENDROOT
BRANCH   7  13
HETATM   13  N1  UNL     1      21.063   2.942  51.450  1.00  0.00    -0.049 NA
HETATM   14  C9  UNL     1      19.892   2.525  51.698  1.00  0.00     0.700 C 
HETATM   15  N2  UNL     1      18.669   3.287  51.771  1.00  0.00    -0.233 N 
HETATM   16  N3  UNL     1      19.815   1.108  51.939  1.00  0.00    -0.190 N 
HETATM   17  H9  UNL     1      18.650   4.082  52.457  1.00  0.00     0.174 HD
HETATM   18  H10 UNL     1      17.897   2.989  51.131  1.00  0.00     0.174 HD
HETATM   19  H11 UNL     1      19.018   0.552  51.505  1.00  0.00     0.184 HD
BRANCH  16  20
HETATM   20  C10 UNL     1      20.754   0.432  52.741  1.00  0.00     0.049 A 
HETATM   21  C11 UNL     1      21.886  -0.175  52.298  1.00  0.00     0.030 A 
HETATM   22  C12 UNL     1      22.794  -0.841  53.094  1.00  0.00     0.002 A 
HETATM   23  C13 UNL     1      22.562  -0.912  54.452  1.00  0.00     0.000 A 
HETATM   24  C14 UNL     1      21.428  -0.315  54.975  1.00  0.00     0.002 A 
HETATM   25  C15 UNL     1      20.572   0.330  54.105  1.00  0.00     0.030 A 
ENDBRANCH  16  20
ENDBRANCH   7  13
BRANCH   1  26
HETATM   26  C2  UNL     1      25.998   5.164  48.994  1.00  0.00    -0.005 C 
HETATM   27  C1  UNL     1      27.111   4.520  48.937  1.00  0.00     0.011 C 
ENDBRANCH   1  26
TORSDOF 3
ENDMDL
MODEL 5
REMARK VINA RESULT:      -7.3      2.563      4.499
REMARK  3 active torsions:
REMARK  status: ('A' for Active; 'I' for Inactive)
REMARK    1  A    between atoms: C2_2  and  C3_3 
REMARK    2  A    between atoms: C8_9  and  N1_10 
REMARK       I    between atoms: C9_11  and  N2_12 
REMARK       I    between atoms: C9_11  and  N3_13 
REMARK    3  A    between atoms: N3_13  and  C10_14 
ROOT
HETATM    1  C3  UNL     1      19.884   0.560  51.833  1.00  0.00    -0.054 C 
HETATM    2  C4  UNL     1      20.844   1.212  51.229  1.00  0.00     0.039 A 
HETATM    3  C5  UNL     1      22.048   1.892  50.664  1.00  0.00     0.009 A 
HETATM    4  C6  UNL     1      22.483   1.184  51.644  1.00  0.00     0.050 A 
HETATM    5  O1  UNL     1      21.379   1.558  50.828  1.00  0.00     0.000 OA
HETATM    6  C7  UNL     1      21.462   0.706  49.485  1.00  0.00     0.012 A 
HETATM    7  C8  UNL     1      23.608   0.825  52.448  1.00  0.00     0.152 C 
HETATM    8  N4  UNL     1      23.649  -0.221  53.141  1.00  0.00    -0.250 NA
HETATM    9  C16 UNL     1      22.603  -1.187  53.198  1.00  0.00     0.323 C 
HETATM   10  N5  UNL     1      21.559  -1.079  54.101  1.00  0.00    -0.176 NA
HETATM   11  N6  UNL     1      20.682  -0.275  54.063  1.00  0.00    -0.192 NA
HETATM   12  C17 UNL     1      20.359   0.743  53.246  1.00  0.00     0.208 C 
ENDROOT
BRANCH   7  13
HETATM   13  N1  UNL     1      24.188   1.927  51.854  1.00  0.00    -0.049 NA
HETATM   14  C9  UNL     1      25.044   2.717  52.354  1.00  0.00     0.700 C 
HETATM   15  N2  UNL     1      25.636   2.674  53.668  1.00  0.00    -0.233 N 
HETATM   16  N3  UNL     1      25.445   3.780  51.471  1.00  0.00    -0.190 N 
HETATM   17  H9  UNL     1      24.976   2.698  54.483  1.00  0.00     0.174 HD
HETATM   18  H10 UNL     1      26.681   2.620  53.705  1.00  0.00     0.174 HD
HETATM   19  H11 UNL     1      26.475   4.041  51.409  1.00  0.00     0.184 HD
BRANCH  16  20
HETATM   20  C10 UNL     1      24.516   4.496  50.691  1.00  0.00     0.049 A 
HETATM   21  C11 UNL     1      24.405   4.441  49.338  1.00  0.00     0.030 A 
HETATM   22  C12 UNL     1      23.495   5.154  48.586  1.00  0.00     0.002 A 
HETATM   23  C13 UNL     1      22.616   5.999  49.231  1.00  0.00     0.000 A 
HETATM   24  C14 UNL     1      22.672   6.107  50.609  1.00  0.00     0.002 A 
HETATM   25  C15 UNL     1      23.614   5.357  51.284  1.00  0.00     0.030 A 
ENDBRANCH  16  20
ENDBRANCH   7  13
BRANCH   1  26
HETATM   26  C2  UNL     1      18.554   0.048  52.087  1.00  0.00    -0.005 C 
HETATM   27  C1  UNL     1      17.788  -0.217  51.088  1.00  0.00     0.011 C 
ENDBRANCH   1  26
TORSDOF 3
ENDMDL
MODEL 6
REMARK VINA RESULT:      -7.3      2.581      4.650
REMARK  3 active torsions:
REMARK  status: ('A' for Active; 'I' for Inactive)
REMARK    1  A    between atoms: C2_2  and  C3_3 
REMARK    2  A    between atoms: C8_9  and  N1_10 
REMARK       I    between atoms: C9_11  and  N2_12 
REMARK       I    between atoms: C9_11  and  N3_13 
REMARK    3  A    between atoms: N3_13  and  C10_14 
ROOT
HETATM    1  C3  UNL     1      23.805   4.935  51.461  1.00  0.00    -0.054 C 
HETATM    2  C4  UNL     1      24.318   3.757  51.709  1.00  0.00     0.039 A 
HETATM    3  C5  UNL     1      24.739   2.350  51.980  1.00  0.00     0.009 A 
HETATM    4  C6  UNL     1      23.480   2.289  51.731  1.00  0.00     0.050 A 
HETATM    5  O1  UNL     1      24.653   3.091  51.804  1.00  0.00     0.000 OA
HETATM    6  C7  UNL     1      25.468   2.876  50.453  1.00  0.00     0.012 A 
HETATM    7  C8  UNL     1      22.316   1.463  51.665  1.00  0.00     0.152 C 
HETATM    8  N4  UNL     1      21.286   1.780  51.021  1.00  0.00    -0.250 NA
HETATM    9  C16 UNL     1      21.152   2.977  50.261  1.00  0.00     0.323 C 
HETATM   10  N5  UNL     1      20.701   4.156  50.832  1.00  0.00    -0.176 NA
HETATM   11  N6  UNL     1      21.300   4.831  51.609  1.00  0.00    -0.192 NA
HETATM   12  C17 UNL     1      22.507   4.761  52.197  1.00  0.00     0.208 C 
ENDROOT
BRANCH   7  13
HETATM   13  N1  UNL     1      23.106   0.564  52.352  1.00  0.00    -0.049 NA
HETATM   14  C9  UNL     1      22.859   0.006  53.463  1.00  0.00     0.700 C 
HETATM   15  N2  UNL     1      21.694   0.162  54.300  1.00  0.00    -0.233 N 
HETATM   16  N3  UNL     1      23.898  -0.880  53.917  1.00  0.00    -0.190 N 
HETATM   17  H9  UNL     1      21.467   1.137  54.614  1.00  0.00     0.174 HD
HETATM   18  H10 UNL     1      21.166  -0.712  54.527  1.00  0.00     0.174 HD
HETATM   19  H11 UNL     1      23.629  -1.821  54.337  1.00  0.00     0.184 HD
BRANCH  16  20
HETATM   20  C10 UNL     1      25.262  -0.540  53.833  1.00  0.00     0.049 A 
HETATM   21  C11 UNL     1      25.934   0.265  54.696  1.00  0.00     0.030 A 
HETATM   22  C12 UNL     1      27.270   0.596  54.598  1.00  0.00     0.002 A 
HETATM   23  C13 UNL     1      28.007   0.082  53.551  1.00  0.00     0.000 A 
HETATM   24  C14 UNL     1      27.387  -0.747  52.632  1.00  0.00     0.002 A 
HETATM   25  C15 UNL     1      26.047  -1.025  52.806  1.00  0.00     0.030 A 
ENDBRANCH  16  20
ENDBRANCH   7  13
BRANCH   1  26
HETATM   26  C2  UNL     1      23.758   6.362  51.218  1.00  0.00    -0.005 C 
HETATM   27  C1  UNL     1      24.819   6.956  50.796  1.00  0.00     0.011 C 
ENDBRANCH   1  26
TORSDOF 3
ENDMDL
MODEL 7
REMARK VINA RESULT:      -7.0      2.525      6.609
REMARK  3 active torsions:
REMARK  status: ('A' for Active; 'I' for Inactive)
REMARK    1  A    between atoms: C2_2  and  C3_3 
REMARK    2  A    between atoms: C8_9  and  N1_10 
REMARK       I    between atoms: C9_11  and  N2_12 
REMARK       I    between atoms: C9_11  and  N3_13 
REMARK    3  A    between atoms: N3_13  and  C10_14 
ROOT
HETATM    1  C3  UNL     1      25.316   4.182  50.304  1.00  0.00    -0.054 C 
HETATM    2  C4  UNL     1      24.178   3.925  50.896  1.00  0.00     0.039 A 
HETATM    3  C5  UNL     1      22.965   3.508  51.662  1.00  0.00     0.009 A 
HETATM    4  C6  UNL     1      23.931   2.811  52.144  1.00  0.00     0.050 A 
HETATM    5  O1  UNL     1      23.519   3.839  51.250  1.00  0.00     0.000 OA
HETATM    6  C7  UNL     1      23.362   5.179  52.096  1.00  0.00     0.012 A 
HETATM    7  C8  UNL     1      24.319   1.777  53.049  1.00  0.00     0.152 C 
HETATM    8  N4  UNL     1      25.497   1.630  53.459  1.00  0.00    -0.250 NA
HETATM    9  C16 UNL     1      26.583   2.479  53.098  1.00  0.00     0.323 C 
HETATM   10  N5  UNL     1      27.346   2.244  51.965  1.00  0.00    -0.176 NA
HETATM   11  N6  UNL     1      26.988   2.386  50.839  1.00  0.00    -0.192 NA
HETATM   12  C17 UNL     1      25.846   2.778  50.245  1.00  0.00     0.208 C 
ENDROOT
BRANCH   7  13
HETATM   13  N1  UNL     1      22.964   1.521  53.093  1.00  0.00    -0.049 NA
HETATM   14  C9  UNL     1      22.389   0.441  53.425  1.00  0.00     0.700 C 
HETATM   15  N2  UNL     1      22.994  -0.800  53.842  1.00  0.00    -0.233 N 
HETATM   16  N3  UNL     1      20.953   0.498  53.356  1.00  0.00    -0.190 N 
HETATM   17  H9  UNL     1      23.677  -1.238  53.176  1.00  0.00     0.174 HD
HETATM   18  H10 UNL     1      22.707  -1.165  54.779  1.00  0.00     0.174 HD
HETATM   19  H11 UNL     1      20.380   0.065  54.142  1.00  0.00     0.184 HD
BRANCH  16  20
HETATM   20  C10 UNL     1      20.277   1.099  52.277  1.00  0.00     0.049 A 
HETATM   21  C11 UNL     1      19.588   2.269  52.324  1.00  0.00     0.030 A 
HETATM   22  C12 UNL     1      18.924   2.843  51.260  1.00  0.00     0.002 A 
HETATM   23  C13 UNL     1      18.944   2.201  50.039  1.00  0.00     0.000 A 
HETATM   24  C14 UNL     1      19.628   1.004  49.917  1.00  0.00     0.002 A 
HETATM   25  C15 UNL     1      20.265   0.501  51.033  1.00  0.00     0.030 A 
ENDBRANCH  16  20
ENDBRANCH   7  13
BRANCH   1  26
HETATM   26  C2  UNL     1      26.261   4.837  49.424  1.00  0.00    -0.005 C 
HETATM   27  C1  UNL     1      26.075   6.074  49.121  1.00  0.00     0.011 C 
ENDBRANCH   1  26
TORSDOF 3
ENDMDL
MODEL 8
REMARK VINA RESULT:      -7.0      3.485      6.470
REMARK  3 active torsions:
REMARK  status: ('A' for Active; 'I' for Inactive)
REMARK    1  A    between atoms: C2_2  and  C3_3 
REMARK    2  A    between atoms: C8_9  and  N1_10 
REMARK       I    between atoms: C9_11  and  N2_12 
REMARK       I    between atoms: C9_11  and  N3_13 
REMARK    3  A    between atoms: N3_13  and  C10_14 
ROOT
HETATM    1  C3  UNL     1      23.347   1.722  52.400  1.00  0.00    -0.054 C 
HETATM    2  C4  UNL     1      23.189   2.528  51.381  1.00  0.00     0.039 A 
HETATM    3  C5  UNL     1      23.184   3.476  50.227  1.00  0.00     0.009 A 
HETATM    4  C6  UNL     1      24.419   3.339  50.552  1.00  0.00     0.050 A 
HETATM    5  O1  UNL     1      23.069   2.944  50.766  1.00  0.00     0.000 OA
HETATM    6  C7  UNL     1      22.696   1.875  49.647  1.00  0.00     0.012 A 
HETATM    7  C8  UNL     1      25.767   3.752  50.317  1.00  0.00     0.152 C 
HETATM    8  N4  UNL     1      26.763   3.072  50.667  1.00  0.00    -0.250 NA
HETATM    9  C16 UNL     1      26.682   1.805  51.315  1.00  0.00     0.323 C 
HETATM   10  N5  UNL     1      26.594   1.696  52.693  1.00  0.00    -0.176 NA
HETATM   11  N6  UNL     1      25.652   1.987  53.360  1.00  0.00    -0.192 NA
HETATM   12  C17 UNL     1      24.427   2.485  53.111  1.00  0.00     0.208 C 
ENDROOT
BRANCH   7  13
HETATM   13  N1  UNL     1      25.166   4.778  49.618  1.00  0.00    -0.049 NA
HETATM   14  C9  UNL     1      25.686   5.875  49.253  1.00  0.00     0.700 C 
HETATM   15  N2  UNL     1      27.035   6.339  49.468  1.00  0.00    -0.233 N 
HETATM   16  N3  UNL     1      24.783   6.742  48.543  1.00  0.00    -0.190 N 
HETATM   17  H9  UNL     1      27.362   6.389  50.464  1.00  0.00     0.174 HD
HETATM   18  H10 UNL     1      27.582   6.587  48.612  1.00  0.00     0.174 HD
HETATM   19  H11 UNL     1      25.130   7.253  47.675  1.00  0.00     0.184 HD
BRANCH  16  20
HETATM   20  C10 UNL     1      23.455   6.947  48.963  1.00  0.00     0.049 A 
HETATM   21  C11 UNL     1      23.072   7.524  50.132  1.00  0.00     0.030 A 
HETATM   22  C12 UNL     1      21.766   7.712  50.535  1.00  0.00     0.002 A 
HETATM   23  C13 UNL     1      20.747   7.291  49.705  1.00  0.00     0.000 A 
HETATM   24  C14 UNL     1      21.063   6.694  48.498  1.00  0.00     0.002 A 
HETATM   25  C15 UNL     1      22.396   6.545  48.173  1.00  0.00     0.030 A 
ENDBRANCH  16  20
ENDBRANCH   7  13
BRANCH   1  26
HETATM   26  C2  UNL     1      22.995   0.775  53.437  1.00  0.00    -0.005 C 
HETATM   27  C1  UNL     1      22.890  -0.472  53.132  1.00  0.00     0.011 C 
ENDBRANCH   1  26
TORSDOF 3
ENDMDL
MODEL 9
REMARK VINA RESULT:      -6.9     11.120     13.947
REMARK  3 active torsions:
REMARK  status: ('A' for Active; 'I' for Inactive)
REMARK    1  A    between atoms: C2_2  and  C3_3 
REMARK    2  A    between atoms: C8_9  and  N1_10 
REMARK       I    between atoms: C9_11  and  N2_12 
REMARK       I    between atoms: C9_11  and  N3_13 
REMARK    3  A    between atoms: N3_13  and  C10_14 
ROOT
HETATM    1  C3  UNL     1      33.701   5.491  44.376  1.00  0.00    -0.054 C 
HETATM    2  C4  UNL     1      33.175   6.417  45.136  1.00  0.00     0.039 A 
HETATM    3  C5  UNL     1      32.610   7.368  46.140  1.00  0.00     0.009 A 
HETATM    4  C6  UNL     1      33.102   6.399  46.825  1.00  0.00     0.050 A 
HETATM    5  O1  UNL     1      32.911   6.991  45.545  1.00  0.00     0.000 OA
HETATM    6  C7  UNL     1      34.015   8.125  45.370  1.00  0.00     0.012 A 
HETATM    7  C8  UNL     1      33.279   5.825  48.121  1.00  0.00     0.152 C 
HETATM    8  N4  UNL     1      34.164   4.971  48.377  1.00  0.00    -0.250 NA
HETATM    9  C16 UNL     1      35.110   4.487  47.428  1.00  0.00     0.323 C 
HETATM   10  N5  UNL     1      34.833   3.403  46.611  1.00  0.00    -0.176 NA
HETATM   11  N6  UNL     1      34.062   3.391  45.703  1.00  0.00    -0.192 NA
HETATM   12  C17 UNL     1      33.232   4.291  45.147  1.00  0.00     0.208 C 
ENDROOT
BRANCH   7  13
HETATM   13  N1  UNL     1      32.314   6.740  48.488  1.00  0.00    -0.049 NA
HETATM   14  C9  UNL     1      31.608   6.741  49.540  1.00  0.00     0.700 C 
HETATM   15  N2  UNL     1      31.624   5.793  50.627  1.00  0.00    -0.233 N 
HETATM   16  N3  UNL     1      30.679   7.838  49.620  1.00  0.00    -0.190 N 
HETATM   17  H9  UNL     1      31.449   4.788  50.378  1.00  0.00     0.174 HD
HETATM   18  H10 UNL     1      31.812   6.182  51.579  1.00  0.00     0.174 HD
HETATM   19  H11 UNL     1      30.562   8.350  50.545  1.00  0.00     0.184 HD
BRANCH  16  20
HETATM   20  C10 UNL     1      29.911   8.251  48.514  1.00  0.00     0.049 A 
HETATM   21  C11 UNL     1      30.013   9.447  47.878  1.00  0.00     0.030 A 
HETATM   22  C12 UNL     1      29.248   9.842  46.800  1.00  0.00     0.002 A 
HETATM   23  C13 UNL     1      28.295   8.974  46.308  1.00  0.00     0.000 A 
HETATM   24  C14 UNL     1      28.134   7.737  46.907  1.00  0.00     0.002 A 
HETATM   25  C15 UNL     1      28.942   7.424  47.981  1.00  0.00     0.030 A 
ENDBRANCH  16  20
ENDBRANCH   7  13
BRANCH   1  26
HETATM   26  C2  UNL     1      34.165   4.840  43.169  1.00  0.00    -0.005 C 
HETATM   27  C1  UNL     1      33.313   4.564  42.244  1.00  0.00     0.011 C 
ENDBRANCH   1  26
TORSDOF 3
ENDMDL
