MODEL 1
REMARK VINA RESULT:      -7.7      0.000      0.000
REMARK  3 active torsions:
REMARK  status: ('A' for Active; 'I' for Inactive)
REMARK    1  A    between atoms: C2_2  and  O1_3 
REMARK    2  A    between atoms: C12_14  and  N2_15 
REMARK    3  A    between atoms: C19_24  and  N5_25 
ROOT
HETATM    1  C1  UNL     1      26.477   2.564  53.921  1.00  0.00     0.057 C 
HETATM    2  C2  UNL     1      25.837   1.991  52.684  1.00  0.00     0.115 C 
HETATM    3  C3  UNL     1      26.804   1.055  52.091  1.00  0.00     0.017 C 
HETATM    4  C4  UNL     1      26.973  -0.265  52.091  1.00  0.00    -0.001 C 
HETATM    5  C5  UNL     1      26.090  -1.200  52.792  1.00  0.00     0.001 C 
HETATM    6  C6  UNL     1      24.840  -1.002  53.240  1.00  0.00     0.017 C 
HETATM    7  C7  UNL     1      24.081   0.241  53.113  1.00  0.00     0.035 C 
HETATM    8  C8  UNL     1      24.488   1.480  52.882  1.00  0.00     0.058 C 
HETATM    9  N1  UNL     1      23.512   2.507  52.808  1.00  0.00    -0.379 N 
HETATM   10  C9  UNL     1      22.450   3.098  52.061  1.00  0.00     0.050 C 
HETATM   11  C10 UNL     1      22.434   4.587  52.336  1.00  0.00     0.035 C 
HETATM   12  C11 UNL     1      21.568   5.119  51.220  1.00  0.00     0.038 C 
HETATM   13  C12 UNL     1      21.482   4.023  50.182  1.00  0.00     0.225 C 
HETATM   14  C16 UNL     1      22.609   3.093  50.573  1.00  0.00     0.068 C 
HETATM   15  C17 UNL     1      21.096   2.520  52.390  1.00  0.00     0.181 C 
HETATM   16  N3  UNL     1      20.723   1.491  51.416  1.00  0.00    -0.280 NA
HETATM   17  C18 UNL     1      20.891   0.271  51.729  1.00  0.00     0.229 C 
HETATM   18  N4  UNL     1      21.418  -0.170  52.963  1.00  0.00    -0.225 NA
HETATM   19  C19 UNL     1      22.665  -0.088  53.289  1.00  0.00     0.135 C 
HETATM   20  H9  UNL     1      23.786   2.935  53.732  1.00  0.00     0.160 HD
ENDROOT
BRANCH  13  21
HETATM   21  N2  UNL     1      21.654   4.624  48.882  1.00  0.00     0.093 N 
HETATM   22  C13 UNL     1      23.029   4.351  48.449  1.00  0.00     0.274 C 
HETATM   23  C14 UNL     1      22.985   5.690  47.751  1.00  0.00     0.060 C 
HETATM   24  C15 UNL     1      22.016   6.022  48.889  1.00  0.00     0.274 C 
ENDBRANCH  13  21
BRANCH   2  25
HETATM   25  O1  UNL     1      25.751   3.082  51.786  1.00  0.00    -0.380 OA
HETATM   26  H4  UNL     1      25.066   2.917  51.088  1.00  0.00     0.211 HD
ENDBRANCH   2  25
BRANCH  19  27
HETATM   27  N5  UNL     1      22.578  -0.672  54.599  1.00  0.00    -0.383 N 
HETATM   28  H26 UNL     1      22.560  -1.583  55.135  1.00  0.00     0.157 HD
HETATM   29  H27 UNL     1      22.497  -0.146  55.489  1.00  0.00     0.157 HD
ENDBRANCH  19  27
TORSDOF 3
ENDMDL
MODEL 2
REMARK VINA RESULT:      -7.7      2.272      4.150
REMARK  3 active torsions:
REMARK  status: ('A' for Active; 'I' for Inactive)
REMARK    1  A    between atoms: C2_2  and  O1_3 
REMARK    2  A    between atoms: C12_14  and  N2_15 
REMARK    3  A    between atoms: C19_24  and  N5_25 
ROOT
HETATM    1  C1  UNL     1      20.768   0.005  51.181  1.00  0.00     0.057 C 
HETATM    2  C2  UNL     1      21.434   0.958  52.139  1.00  0.00     0.115 C 
HETATM    3  C3  UNL     1      20.708   0.865  53.415  1.00  0.00     0.017 C 
HETATM    4  C4  UNL     1      20.902   0.244  54.576  1.00  0.00    -0.001 C 
HETATM    5  C5  UNL     1      22.059  -0.607  54.863  1.00  0.00     0.001 C 
HETATM    6  C6  UNL     1      23.242  -0.660  54.230  1.00  0.00     0.017 C 
HETATM    7  C7  UNL     1      23.625   0.156  53.079  1.00  0.00     0.035 C 
HETATM    8  C8  UNL     1      22.882   0.827  52.213  1.00  0.00     0.058 C 
HETATM    9  N1  UNL     1      23.536   1.545  51.178  1.00  0.00    -0.379 N 
HETATM   10  C9  UNL     1      24.334   2.672  50.822  1.00  0.00     0.050 C 
HETATM   11  C10 UNL     1      23.971   3.098  49.415  1.00  0.00     0.035 C 
HETATM   12  C11 UNL     1      24.567   4.483  49.326  1.00  0.00     0.038 C 
HETATM   13  C12 UNL     1      24.859   4.918  50.744  1.00  0.00     0.225 C 
HETATM   14  C16 UNL     1      24.060   3.937  51.574  1.00  0.00     0.068 C 
HETATM   15  C17 UNL     1      25.816   2.399  50.889  1.00  0.00     0.181 C 
HETATM   16  N3  UNL     1      26.370   2.866  52.163  1.00  0.00    -0.280 NA
HETATM   17  C18 UNL     1      26.563   2.016  53.087  1.00  0.00     0.229 C 
HETATM   18  N4  UNL     1      26.278   0.637  52.975  1.00  0.00    -0.225 NA
HETATM   19  C19 UNL     1      25.087   0.139  52.995  1.00  0.00     0.135 C 
HETATM   20  H9  UNL     1      23.234   0.874  50.422  1.00  0.00     0.160 HD
ENDROOT
BRANCH  13  21
HETATM   21  N2  UNL     1      24.424   6.286  50.891  1.00  0.00     0.093 N 
HETATM   22  C13 UNL     1      22.980   6.264  51.153  1.00  0.00     0.274 C 
HETATM   23  C14 UNL     1      22.909   7.568  50.394  1.00  0.00     0.060 C 
HETATM   24  C15 UNL     1      24.111   6.971  49.658  1.00  0.00     0.274 C 
ENDBRANCH  13  21
BRANCH   2  25
HETATM   25  O1  UNL     1      21.149   2.244  51.622  1.00  0.00    -0.380 OA
HETATM   26  H4  UNL     1      21.629   2.402  50.769  1.00  0.00     0.211 HD
ENDBRANCH   2  25
BRANCH  19  27
HETATM   27  N5  UNL     1      25.436  -1.247  52.847  1.00  0.00    -0.383 N 
HETATM   28  H26 UNL     1      25.480  -2.180  53.341  1.00  0.00     0.157 HD
HETATM   29  H27 UNL     1      25.807  -1.686  51.983  1.00  0.00     0.157 HD
ENDBRANCH  19  27
TORSDOF 3
ENDMDL
MODEL 3
REMARK VINA RESULT:      -7.5      1.721      1.989
REMARK  3 active torsions:
REMARK  status: ('A' for Active; 'I' for Inactive)
REMARK    1  A    between atoms: C2_2  and  O1_3 
REMARK    2  A    between atoms: C12_14  and  N2_15 
REMARK    3  A    between atoms: C19_24  and  N5_25 
ROOT
HETATM    1  C1  UNL     1      24.753   3.053  53.458  1.00  0.00     0.057 C 
HETATM    2  C2  UNL     1      24.239   2.021  52.489  1.00  0.00     0.115 C 
HETATM    3  C3  UNL     1      25.250   0.955  52.414  1.00  0.00     0.017 C 
HETATM    4  C4  UNL     1      25.400  -0.253  52.951  1.00  0.00    -0.001 C 
HETATM    5  C5  UNL     1      24.436  -0.862  53.870  1.00  0.00     0.001 C 
HETATM    6  C6  UNL     1      23.149  -0.540  54.075  1.00  0.00     0.017 C 
HETATM    7  C7  UNL     1      22.424   0.531  53.392  1.00  0.00     0.035 C 
HETATM    8  C8  UNL     1      22.869   1.590  52.735  1.00  0.00     0.058 C 
HETATM    9  N1  UNL     1      21.920   2.477  52.163  1.00  0.00    -0.379 N 
HETATM   10  C9  UNL     1      20.950   2.695  51.140  1.00  0.00     0.050 C 
HETATM   11  C10 UNL     1      20.926   4.172  50.803  1.00  0.00     0.035 C 
HETATM   12  C11 UNL     1      20.188   4.196  49.486  1.00  0.00     0.038 C 
HETATM   13  C12 UNL     1      20.196   2.778  48.961  1.00  0.00     0.225 C 
HETATM   14  C16 UNL     1      21.264   2.110  49.799  1.00  0.00     0.068 C 
HETATM   15  C17 UNL     1      19.562   2.254  51.531  1.00  0.00     0.181 C 
HETATM   16  N3  UNL     1      19.279   0.915  51.009  1.00  0.00    -0.280 NA
HETATM   17  C18 UNL     1      19.397  -0.078  51.793  1.00  0.00     0.229 C 
HETATM   18  N4  UNL     1      19.786   0.017  53.147  1.00  0.00    -0.225 NA
HETATM   19  C19 UNL     1      20.994   0.256  53.540  1.00  0.00     0.135 C 
HETATM   20  H9  UNL     1      22.103   3.241  52.866  1.00  0.00     0.160 HD
ENDROOT
BRANCH  13  21
HETATM   21  N2  UNL     1      20.512   2.824  47.554  1.00  0.00     0.093 N 
HETATM   22  C13 UNL     1      21.969   2.711  47.425  1.00  0.00     0.274 C 
HETATM   23  C14 UNL     1      21.845   3.608  46.215  1.00  0.00     0.060 C 
HETATM   24  C15 UNL     1      20.642   4.148  46.992  1.00  0.00     0.274 C 
ENDBRANCH  13  21
BRANCH   2  25
HETATM   25  O1  UNL     1      24.261   2.668  51.230  1.00  0.00    -0.380 OA
HETATM   26  H4  UNL     1      23.358   2.685  50.820  1.00  0.00     0.211 HD
ENDBRANCH   2  25
BRANCH  19  27
HETATM   27  N5  UNL     1      20.763   0.232  54.957  1.00  0.00    -0.383 N 
HETATM   28  H26 UNL     1      20.127   0.572  55.730  1.00  0.00     0.157 HD
HETATM   29  H27 UNL     1      21.348  -0.264  55.655  1.00  0.00     0.157 HD
ENDBRANCH  19  27
TORSDOF 3
ENDMDL
MODEL 4
REMARK VINA RESULT:      -7.0     10.108     12.105
REMARK  3 active torsions:
REMARK  status: ('A' for Active; 'I' for Inactive)
REMARK    1  A    between atoms: C2_2  and  O1_3 
REMARK    2  A    between atoms: C12_14  and  N2_15 
REMARK    3  A    between atoms: C19_24  and  N5_25 
ROOT
HETATM    1  C1  UNL     1      34.480   8.318  43.726  1.00  0.00     0.057 C 
HETATM    2  C2  UNL     1      33.289   7.419  43.929  1.00  0.00     0.115 C 
HETATM    3  C3  UNL     1      32.776   7.072  42.594  1.00  0.00     0.017 C 
HETATM    4  C4  UNL     1      32.881   6.026  41.777  1.00  0.00    -0.001 C 
HETATM    5  C5  UNL     1      33.649   4.819  42.092  1.00  0.00     0.001 C 
HETATM    6  C6  UNL     1      34.075   4.380  43.287  1.00  0.00     0.017 C 
HETATM    7  C7  UNL     1      33.846   5.049  44.566  1.00  0.00     0.035 C 
HETATM    8  C8  UNL     1      33.521   6.304  44.837  1.00  0.00     0.058 C 
HETATM    9  N1  UNL     1      33.361   6.681  46.196  1.00  0.00    -0.379 N 
HETATM   10  C9  UNL     1      32.565   6.596  47.376  1.00  0.00     0.050 C 
HETATM   11  C10 UNL     1      32.722   7.882  48.160  1.00  0.00     0.035 C 
HETATM   12  C11 UNL     1      31.563   7.822  49.126  1.00  0.00     0.038 C 
HETATM   13  C12 UNL     1      30.614   6.771  48.596  1.00  0.00     0.225 C 
HETATM   14  C16 UNL     1      31.083   6.575  47.171  1.00  0.00     0.068 C 
HETATM   15  C17 UNL     1      32.932   5.430  48.260  1.00  0.00     0.181 C 
HETATM   16  N3  UNL     1      32.041   4.294  48.014  1.00  0.00    -0.280 NA
HETATM   17  C18 UNL     1      32.450   3.355  47.262  1.00  0.00     0.229 C 
HETATM   18  N4  UNL     1      33.717   3.327  46.639  1.00  0.00    -0.225 NA
HETATM   19  C19 UNL     1      34.042   4.055  45.623  1.00  0.00     0.135 C 
HETATM   20  H9  UNL     1      34.250   7.248  46.218  1.00  0.00     0.160 HD
ENDROOT
BRANCH  13  21
HETATM   21  N2  UNL     1      29.271   7.288  48.696  1.00  0.00     0.093 N 
HETATM   22  C13 UNL     1      28.357   6.235  48.240  1.00  0.00     0.274 C 
HETATM   23  C14 UNL     1      27.478   7.345  47.714  1.00  0.00     0.060 C 
HETATM   24  C15 UNL     1      28.821   8.063  47.563  1.00  0.00     0.274 C 
ENDBRANCH  13  21
BRANCH   2  25
HETATM   25  O1  UNL     1      32.307   8.250  44.518  1.00  0.00    -0.380 OA
HETATM   26  H4  UNL     1      32.282   8.132  45.503  1.00  0.00     0.211 HD
ENDBRANCH   2  25
BRANCH  19  27
HETATM   27  N5  UNL     1      35.393   3.597  45.459  1.00  0.00    -0.383 N 
HETATM   28  H26 UNL     1      36.389   3.902  45.281  1.00  0.00     0.157 HD
HETATM   29  H27 UNL     1      35.703   2.608  45.500  1.00  0.00     0.157 HD
ENDBRANCH  19  27
TORSDOF 3
ENDMDL
MODEL 5
REMARK VINA RESULT:      -6.8      8.171     11.178
REMARK  3 active torsions:
REMARK  status: ('A' for Active; 'I' for Inactive)
REMARK    1  A    between atoms: C2_2  and  O1_3 
REMARK    2  A    between atoms: C12_14  and  N2_15 
REMARK    3  A    between atoms: C19_24  and  N5_25 
ROOT
HETATM    1  C1  UNL     1      26.959   8.519  49.904  1.00  0.00     0.057 C 
HETATM    2  C2  UNL     1      27.318   7.676  48.708  1.00  0.00     0.115 C 
HETATM    3  C3  UNL     1      26.056   7.266  48.073  1.00  0.00     0.017 C 
HETATM    4  C4  UNL     1      25.341   7.673  47.028  1.00  0.00    -0.001 C 
HETATM    5  C5  UNL     1      25.727   8.789  46.161  1.00  0.00     0.001 C 
HETATM    6  C6  UNL     1      26.932   9.361  46.011  1.00  0.00     0.017 C 
HETATM    7  C7  UNL     1      28.151   8.965  46.715  1.00  0.00     0.035 C 
HETATM    8  C8  UNL     1      28.316   8.268  47.829  1.00  0.00     0.058 C 
HETATM    9  N1  UNL     1      29.638   8.032  48.287  1.00  0.00    -0.379 N 
HETATM   10  C9  UNL     1      30.865   7.332  48.091  1.00  0.00     0.050 C 
HETATM   11  C10 UNL     1      31.509   7.096  49.442  1.00  0.00     0.035 C 
HETATM   12  C11 UNL     1      32.542   6.039  49.134  1.00  0.00     0.038 C 
HETATM   13  C12 UNL     1      32.174   5.455  47.788  1.00  0.00     0.225 C 
HETATM   14  C16 UNL     1      30.750   5.927  47.590  1.00  0.00     0.068 C 
HETATM   15  C17 UNL     1      31.837   8.068  47.203  1.00  0.00     0.181 C 
HETATM   16  N3  UNL     1      31.755   7.573  45.827  1.00  0.00    -0.280 NA
HETATM   17  C18 UNL     1      31.077   8.238  44.983  1.00  0.00     0.229 C 
HETATM   18  N4  UNL     1      30.387   9.434  45.279  1.00  0.00    -0.225 NA
HETATM   19  C19 UNL     1      29.287   9.488  45.954  1.00  0.00     0.135 C 
HETATM   20  H9  UNL     1      29.553   8.698  49.100  1.00  0.00     0.160 HD
ENDROOT
BRANCH  13  21
HETATM   21  N2  UNL     1      32.301   4.021  47.873  1.00  0.00     0.093 N 
HETATM   22  C13 UNL     1      33.692   3.681  47.551  1.00  0.00     0.274 C 
HETATM   23  C14 UNL     1      33.150   2.410  46.940  1.00  0.00     0.060 C 
HETATM   24  C15 UNL     1      31.929   3.296  46.680  1.00  0.00     0.274 C 
ENDBRANCH  13  21
BRANCH   2  25
HETATM   25  O1  UNL     1      27.879   6.498  49.256  1.00  0.00    -0.380 OA
HETATM   26  H4  UNL     1      27.758   5.726  48.645  1.00  0.00     0.211 HD
ENDBRANCH   2  25
BRANCH  19  27
HETATM   27  N5  UNL     1      29.090  10.911  45.921  1.00  0.00    -0.383 N 
HETATM   28  H26 UNL     1      29.437  11.836  46.297  1.00  0.00     0.157 HD
HETATM   29  H27 UNL     1      28.371  11.407  45.363  1.00  0.00     0.157 HD
ENDBRANCH  19  27
TORSDOF 3
ENDMDL
MODEL 6
REMARK VINA RESULT:      -6.7      2.765      6.568
REMARK  3 active torsions:
REMARK  status: ('A' for Active; 'I' for Inactive)
REMARK    1  A    between atoms: C2_2  and  O1_3 
REMARK    2  A    between atoms: C12_14  and  N2_15 
REMARK    3  A    between atoms: C19_24  and  N5_25 
ROOT
HETATM    1  C1  UNL     1      22.583   7.712  50.763  1.00  0.00     0.057 C 
HETATM    2  C2  UNL     1      22.739   6.488  49.899  1.00  0.00     0.115 C 
HETATM    3  C3  UNL     1      22.187   6.819  48.577  1.00  0.00     0.017 C 
HETATM    4  C4  UNL     1      22.690   7.183  47.400  1.00  0.00    -0.001 C 
HETATM    5  C5  UNL     1      24.122   7.356  47.143  1.00  0.00     0.001 C 
HETATM    6  C6  UNL     1      25.165   6.887  47.846  1.00  0.00     0.017 C 
HETATM    7  C7  UNL     1      25.075   6.076  49.059  1.00  0.00     0.035 C 
HETATM    8  C8  UNL     1      24.075   5.907  49.910  1.00  0.00     0.058 C 
HETATM    9  N1  UNL     1      24.272   5.045  51.020  1.00  0.00    -0.379 N 
HETATM   10  C9  UNL     1      24.421   3.704  51.483  1.00  0.00     0.050 C 
HETATM   11  C10 UNL     1      23.855   3.611  52.885  1.00  0.00     0.035 C 
HETATM   12  C11 UNL     1      23.711   2.120  53.083  1.00  0.00     0.038 C 
HETATM   13  C12 UNL     1      23.801   1.493  51.710  1.00  0.00     0.225 C 
HETATM   14  C16 UNL     1      23.597   2.670  50.782  1.00  0.00     0.068 C 
HETATM   15  C17 UNL     1      25.854   3.233  51.496  1.00  0.00     0.181 C 
HETATM   16  N3  UNL     1      26.154   2.464  50.286  1.00  0.00    -0.280 NA
HETATM   17  C18 UNL     1      26.759   3.047  49.332  1.00  0.00     0.229 C 
HETATM   18  N4  UNL     1      27.168   4.399  49.355  1.00  0.00    -0.225 NA
HETATM   19  C19 UNL     1      26.362   5.401  49.234  1.00  0.00     0.135 C 
HETATM   20  H9  UNL     1      24.306   5.834  51.719  1.00  0.00     0.160 HD
ENDROOT
BRANCH  13  21
HETATM   21  N2  UNL     1      22.769   0.491  51.607  1.00  0.00     0.093 N 
HETATM   22  C13 UNL     1      21.654   1.081  50.857  1.00  0.00     0.274 C 
HETATM   23  C14 UNL     1      20.742   0.234  51.713  1.00  0.00     0.060 C 
HETATM   24  C15 UNL     1      21.868   0.413  52.733  1.00  0.00     0.274 C 
ENDBRANCH  13  21
BRANCH   2  25
HETATM   25  O1  UNL     1      21.857   5.536  50.463  1.00  0.00    -0.380 OA
HETATM   26  H4  UNL     1      22.179   4.612  50.306  1.00  0.00     0.211 HD
ENDBRANCH   2  25
BRANCH  19  27
HETATM   27  N5  UNL     1      27.328   6.460  49.332  1.00  0.00    -0.383 N 
HETATM   28  H26 UNL     1      28.105   6.964  48.825  1.00  0.00     0.157 HD
HETATM   29  H27 UNL     1      27.459   7.082  50.152  1.00  0.00     0.157 HD
ENDBRANCH  19  27
TORSDOF 3
ENDMDL
MODEL 7
REMARK VINA RESULT:      -6.6      4.783      7.807
REMARK  3 active torsions:
REMARK  status: ('A' for Active; 'I' for Inactive)
REMARK    1  A    between atoms: C2_2  and  O1_3 
REMARK    2  A    between atoms: C12_14  and  N2_15 
REMARK    3  A    between atoms: C19_24  and  N5_25 
ROOT
HETATM    1  C1  UNL     1      23.907   5.147  51.387  1.00  0.00     0.057 C 
HETATM    2  C2  UNL     1      24.575   4.950  50.051  1.00  0.00     0.115 C 
HETATM    3  C3  UNL     1      24.291   3.570  49.625  1.00  0.00     0.017 C 
HETATM    4  C4  UNL     1      23.430   2.990  48.793  1.00  0.00    -0.001 C 
HETATM    5  C5  UNL     1      22.432   3.724  48.010  1.00  0.00     0.001 C 
HETATM    6  C6  UNL     1      22.398   5.030  47.703  1.00  0.00     0.017 C 
HETATM    7  C7  UNL     1      23.393   6.022  48.106  1.00  0.00     0.035 C 
HETATM    8  C8  UNL     1      24.295   5.993  49.075  1.00  0.00     0.058 C 
HETATM    9  N1  UNL     1      25.145   7.118  49.239  1.00  0.00    -0.379 N 
HETATM   10  C9  UNL     1      26.240   7.875  48.728  1.00  0.00     0.050 C 
HETATM   11  C10 UNL     1      26.979   8.504  49.891  1.00  0.00     0.035 C 
HETATM   12  C11 UNL     1      28.289   8.917  49.264  1.00  0.00     0.038 C 
HETATM   13  C12 UNL     1      28.395   8.170  47.954  1.00  0.00     0.225 C 
HETATM   14  C16 UNL     1      27.344   7.090  48.091  1.00  0.00     0.068 C 
HETATM   15  C17 UNL     1      25.820   8.958  47.765  1.00  0.00     0.181 C 
HETATM   16  N3  UNL     1      25.961   8.501  46.381  1.00  0.00    -0.280 NA
HETATM   17  C18 UNL     1      24.925   8.092  45.770  1.00  0.00     0.229 C 
HETATM   18  N4  UNL     1      23.631   8.045  46.336  1.00  0.00    -0.225 NA
HETATM   19  C19 UNL     1      23.255   7.172  47.211  1.00  0.00     0.135 C 
HETATM   20  H9  UNL     1      24.675   7.435  50.128  1.00  0.00     0.160 HD
ENDROOT
BRANCH  13  21
HETATM   21  N2  UNL     1      29.738   7.658  47.838  1.00  0.00     0.093 N 
HETATM   22  C13 UNL     1      29.709   6.249  48.246  1.00  0.00     0.274 C 
HETATM   23  C14 UNL     1      31.105   6.464  48.781  1.00  0.00     0.060 C 
HETATM   24  C15 UNL     1      30.590   7.891  48.980  1.00  0.00     0.274 C 
ENDBRANCH  13  21
BRANCH   2  25
HETATM   25  O1  UNL     1      25.961   4.992  50.334  1.00  0.00    -0.380 OA
HETATM   26  H4  UNL     1      26.384   5.794  49.932  1.00  0.00     0.211 HD
ENDBRANCH   2  25
BRANCH  19  27
HETATM   27  N5  UNL     1      21.903   7.623  47.389  1.00  0.00    -0.383 N 
HETATM   28  H26 UNL     1      21.137   7.784  48.099  1.00  0.00     0.157 HD
HETATM   29  H27 UNL     1      21.276   7.963  46.636  1.00  0.00     0.157 HD
ENDBRANCH  19  27
TORSDOF 3
ENDMDL
MODEL 8
REMARK VINA RESULT:      -6.6      2.594      6.196
REMARK  3 active torsions:
REMARK  status: ('A' for Active; 'I' for Inactive)
REMARK    1  A    between atoms: C2_2  and  O1_3 
REMARK    2  A    between atoms: C12_14  and  N2_15 
REMARK    3  A    between atoms: C19_24  and  N5_25 
ROOT
HETATM    1  C1  UNL     1      24.631   4.646  49.203  1.00  0.00     0.057 C 
HETATM    2  C2  UNL     1      23.765   4.815  50.424  1.00  0.00     0.115 C 
HETATM    3  C3  UNL     1      24.187   6.059  51.085  1.00  0.00     0.017 C 
HETATM    4  C4  UNL     1      23.741   7.312  51.127  1.00  0.00    -0.001 C 
HETATM    5  C5  UNL     1      22.552   7.779  50.410  1.00  0.00     0.001 C 
HETATM    6  C6  UNL     1      21.541   7.059  49.899  1.00  0.00     0.017 C 
HETATM    7  C7  UNL     1      21.421   5.603  49.959  1.00  0.00     0.035 C 
HETATM    8  C8  UNL     1      22.337   4.672  50.176  1.00  0.00     0.058 C 
HETATM    9  N1  UNL     1      21.928   3.313  50.178  1.00  0.00    -0.379 N 
HETATM   10  C9  UNL     1      21.226   2.275  50.860  1.00  0.00     0.050 C 
HETATM   11  C10 UNL     1      21.893   0.952  50.546  1.00  0.00     0.035 C 
HETATM   12  C11 UNL     1      21.326   0.039  51.606  1.00  0.00     0.038 C 
HETATM   13  C12 UNL     1      20.724   0.931  52.667  1.00  0.00     0.225 C 
HETATM   14  C16 UNL     1      21.320   2.286  52.353  1.00  0.00     0.068 C 
HETATM   15  C17 UNL     1      19.767   2.195  50.483  1.00  0.00     0.181 C 
HETATM   16  N3  UNL     1      18.941   2.902  51.465  1.00  0.00    -0.280 NA
HETATM   17  C18 UNL     1      18.550   4.080  51.191  1.00  0.00     0.229 C 
HETATM   18  N4  UNL     1      18.857   4.764  49.995  1.00  0.00    -0.225 NA
HETATM   19  C19 UNL     1      20.016   5.268  49.725  1.00  0.00     0.135 C 
HETATM   20  H9  UNL     1      22.394   3.096  49.257  1.00  0.00     0.160 HD
ENDROOT
BRANCH  13  21
HETATM   21  N2  UNL     1      21.110   0.416  53.958  1.00  0.00     0.093 N 
HETATM   22  C13 UNL     1      22.508  -0.019  53.859  1.00  0.00     0.274 C 
HETATM   23  C14 UNL     1      22.152  -1.099  54.854  1.00  0.00     0.060 C 
HETATM   24  C15 UNL     1      20.776  -0.969  54.197  1.00  0.00     0.274 C 
ENDBRANCH  13  21
BRANCH   2  25
HETATM   25  O1  UNL     1      24.153   3.764  51.288  1.00  0.00    -0.380 OA
HETATM   26  H4  UNL     1      23.676   3.818  52.156  1.00  0.00     0.211 HD
ENDBRANCH   2  25
BRANCH  19  27
HETATM   27  N5  UNL     1      19.714   5.807  48.428  1.00  0.00    -0.383 N 
HETATM   28  H26 UNL     1      19.154   6.538  47.910  1.00  0.00     0.157 HD
HETATM   29  H27 UNL     1      20.109   5.472  47.529  1.00  0.00     0.157 HD
ENDBRANCH  19  27
TORSDOF 3
ENDMDL
MODEL 9
REMARK VINA RESULT:      -6.5      9.602     11.680
REMARK  3 active torsions:
REMARK  status: ('A' for Active; 'I' for Inactive)
REMARK    1  A    between atoms: C2_2  and  O1_3 
REMARK    2  A    between atoms: C12_14  and  N2_15 
REMARK    3  A    between atoms: C19_24  and  N5_25 
ROOT
HETATM    1  C1  UNL     1      33.496   9.316  44.114  1.00  0.00     0.057 C 
HETATM    2  C2  UNL     1      32.512   8.289  44.610  1.00  0.00     0.115 C 
HETATM    3  C3  UNL     1      32.269   7.353  43.502  1.00  0.00     0.017 C 
HETATM    4  C4  UNL     1      32.704   6.141  43.168  1.00  0.00    -0.001 C 
HETATM    5  C5  UNL     1      33.667   5.373  43.960  1.00  0.00     0.001 C 
HETATM    6  C6  UNL     1      34.016   5.533  45.247  1.00  0.00     0.017 C 
HETATM    7  C7  UNL     1      33.480   6.551  46.150  1.00  0.00     0.035 C 
HETATM    8  C8  UNL     1      32.857   7.691  45.892  1.00  0.00     0.058 C 
HETATM    9  N1  UNL     1      32.441   8.494  46.985  1.00  0.00    -0.379 N 
HETATM   10  C9  UNL     1      31.533   8.657  48.073  1.00  0.00     0.050 C 
HETATM   11  C10 UNL     1      31.302  10.139  48.292  1.00  0.00     0.035 C 
HETATM   12  C11 UNL     1      30.066  10.154  49.160  1.00  0.00     0.038 C 
HETATM   13  C12 UNL     1      29.446   8.779  49.051  1.00  0.00     0.225 C 
HETATM   14  C16 UNL     1      30.131   8.190  47.837  1.00  0.00     0.068 C 
HETATM   15  C17 UNL     1      32.023   8.038  49.358  1.00  0.00     0.181 C 
HETATM   16  N3  UNL     1      31.440   6.708  49.545  1.00  0.00    -0.280 NA
HETATM   17  C18 UNL     1      32.139   5.691  49.240  1.00  0.00     0.229 C 
HETATM   18  N4  UNL     1      33.453   5.752  48.727  1.00  0.00    -0.225 NA
HETATM   19  C19 UNL     1      33.744   6.106  47.519  1.00  0.00     0.135 C 
HETATM   20  H9  UNL     1      33.175   9.232  46.816  1.00  0.00     0.160 HD
ENDROOT
BRANCH  13  21
HETATM   21  N2  UNL     1      28.023   8.941  48.888  1.00  0.00     0.093 N 
HETATM   22  C13 UNL     1      27.473   9.341  50.189  1.00  0.00     0.274 C 
HETATM   23  C14 UNL     1      26.232   8.568  49.805  1.00  0.00     0.060 C 
HETATM   24  C15 UNL     1      27.243   7.732  49.017  1.00  0.00     0.274 C 
ENDBRANCH  13  21
BRANCH   2  25
HETATM   25  O1  UNL     1      31.305   9.006  44.787  1.00  0.00    -0.380 OA
HETATM   26  H4  UNL     1      30.591   8.658  44.193  1.00  0.00     0.211 HD
ENDBRANCH   2  25
BRANCH  19  27
HETATM   27  N5  UNL     1      35.173   5.974  47.600  1.00  0.00    -0.383 N 
HETATM   28  H26 UNL     1      35.961   5.361  47.946  1.00  0.00     0.157 HD
HETATM   29  H27 UNL     1      35.863   6.651  47.225  1.00  0.00     0.157 HD
ENDBRANCH  19  27
TORSDOF 3
ENDMDL
