MODEL 1
REMARK VINA RESULT:      -7.3      0.000      0.000
REMARK  6 active torsions:
REMARK  status: ('A' for Active; 'I' for Inactive)
REMARK    1  A    between atoms: O1_2  and  C2_3 
REMARK    2  A    between atoms: C6_9  and  N3_10 
REMARK    3  A    between atoms: N3_10  and  C8_12 
REMARK    4  A    between atoms: C8_12  and  N4_13 
REMARK       I    between atoms: N4_13  and  C10_15 
REMARK       I    between atoms: C10_15  and  N5_17 
REMARK    5  A    between atoms: N5_17  and  C11_18 
REMARK    6  A    between atoms: C17_25  and  O3_26 
ROOT
HETATM    1  C2  UNL     1      25.817  -0.385  53.687  1.00  0.00     0.103 A 
HETATM    2  C3  UNL     1      24.892  -0.898  54.526  1.00  0.00     0.072 A 
HETATM    3  C4  UNL     1      23.558  -0.607  54.253  1.00  0.00     0.075 A 
HETATM    4  N1  UNL     1      22.545  -1.066  55.007  1.00  0.00    -0.241 NA
HETATM    5  C5  UNL     1      21.283  -0.755  54.677  1.00  0.00     0.236 A 
HETATM    6  N2  UNL     1      20.920   0.017  53.605  1.00  0.00    -0.224 NA
HETATM    7  C6  UNL     1      21.908   0.508  52.809  1.00  0.00     0.140 A 
HETATM    8  C15 UNL     1      23.207   0.182  53.153  1.00  0.00     0.041 A 
HETATM    9  C16 UNL     1      24.241   0.653  52.363  1.00  0.00     0.057 A 
HETATM   10  C17 UNL     1      25.606   0.410  52.565  1.00  0.00     0.102 A 
ENDROOT
BRANCH   7  11
HETATM   11  N3  UNL     1      21.629   1.341  51.667  1.00  0.00    -0.353 N 
HETATM   12  C7  UNL     1      21.638   0.909  50.280  1.00  0.00     0.153 C 
BRANCH  11  13
HETATM   13  C8  UNL     1      21.317   2.608  52.242  1.00  0.00     0.254 C 
BRANCH  13  14
HETATM   14  N4  UNL     1      21.245   3.713  51.307  1.00  0.00    -0.322 N 
HETATM   15  C9  UNL     1      19.969   4.124  50.754  1.00  0.00     0.156 C 
HETATM   16  C10 UNL     1      22.421   4.448  50.885  1.00  0.00     0.323 C 
HETATM   17  O2  UNL     1      22.302   5.379  50.005  1.00  0.00    -0.247 OA
HETATM   18  N5  UNL     1      23.753   4.247  51.360  1.00  0.00    -0.308 N 
HETATM   19  H14 UNL     1      23.713   3.513  52.062  1.00  0.00     0.170 HD
BRANCH  18  20
HETATM   20  C11 UNL     1      24.518   5.200  50.651  1.00  0.00     0.043 A 
HETATM   21  C12 UNL     1      25.229   4.847  49.553  1.00  0.00     0.037 A 
HETATM   22  C13 UNL     1      25.944   5.825  48.890  1.00  0.00     0.052 A 
HETATM   23  S1  UNL     1      25.643   7.321  49.796  1.00  0.00    -0.111 SA
HETATM   24  C14 UNL     1      24.524   6.598  51.102  1.00  0.00     0.079 A 
ENDBRANCH  18  20
ENDBRANCH  13  14
ENDBRANCH  11  13
ENDBRANCH   7  11
BRANCH  10  25
HETATM   25  O3  UNL     1      26.604   0.903  51.745  1.00  0.00    -0.353 OA
HETATM   26  C18 UNL     1      26.871   2.277  51.747  1.00  0.00     0.210 C 
ENDBRANCH  10  25
BRANCH   1  27
HETATM   27  O1  UNL     1      27.191  -0.629  53.884  1.00  0.00    -0.353 OA
HETATM   28  C1  UNL     1      27.871   0.170  54.823  1.00  0.00     0.210 C 
ENDBRANCH   1  27
TORSDOF 6
ENDMDL
MODEL 2
REMARK VINA RESULT:      -7.2      1.845      2.505
REMARK  6 active torsions:
REMARK  status: ('A' for Active; 'I' for Inactive)
REMARK    1  A    between atoms: O1_2  and  C2_3 
REMARK    2  A    between atoms: C6_9  and  N3_10 
REMARK    3  A    between atoms: N3_10  and  C8_12 
REMARK    4  A    between atoms: C8_12  and  N4_13 
REMARK       I    between atoms: N4_13  and  C10_15 
REMARK       I    between atoms: C10_15  and  N5_17 
REMARK    5  A    between atoms: N5_17  and  C11_18 
REMARK    6  A    between atoms: C17_25  and  O3_26 
ROOT
HETATM    1  C2  UNL     1      26.449   0.235  54.377  1.00  0.00     0.103 A 
HETATM    2  C3  UNL     1      25.367  -0.543  54.162  1.00  0.00     0.072 A 
HETATM    3  C4  UNL     1      24.295   0.036  53.487  1.00  0.00     0.075 A 
HETATM    4  N1  UNL     1      23.167  -0.638  53.204  1.00  0.00    -0.241 NA
HETATM    5  C5  UNL     1      22.180  -0.019  52.540  1.00  0.00     0.236 A 
HETATM    6  N2  UNL     1      22.216   1.281  52.111  1.00  0.00    -0.224 NA
HETATM    7  C6  UNL     1      23.337   2.008  52.374  1.00  0.00     0.140 A 
HETATM    8  C15 UNL     1      24.352   1.364  53.057  1.00  0.00     0.041 A 
HETATM    9  C16 UNL     1      25.513   2.065  53.335  1.00  0.00     0.057 A 
HETATM   10  C17 UNL     1      26.635   1.563  54.006  1.00  0.00     0.102 A 
ENDROOT
BRANCH   7  11
HETATM   11  N3  UNL     1      23.466   3.387  51.977  1.00  0.00    -0.353 N 
HETATM   12  C7  UNL     1      23.187   4.540  52.815  1.00  0.00     0.153 C 
BRANCH  11  13
HETATM   13  C8  UNL     1      23.955   3.310  50.640  1.00  0.00     0.254 C 
BRANCH  13  14
HETATM   14  N4  UNL     1      23.640   4.444  49.797  1.00  0.00    -0.322 N 
HETATM   15  C9  UNL     1      22.315   4.586  49.223  1.00  0.00     0.156 C 
HETATM   16  C10 UNL     1      24.612   5.474  49.489  1.00  0.00     0.323 C 
HETATM   17  O2  UNL     1      24.292   6.425  48.683  1.00  0.00    -0.247 OA
HETATM   18  N5  UNL     1      25.942   5.557  50.005  1.00  0.00    -0.308 N 
HETATM   19  H14 UNL     1      26.064   4.774  50.643  1.00  0.00     0.170 HD
BRANCH  18  20
HETATM   20  C11 UNL     1      26.469   6.725  49.411  1.00  0.00     0.043 A 
HETATM   21  C12 UNL     1      27.120   6.672  48.224  1.00  0.00     0.037 A 
HETATM   22  C13 UNL     1      27.598   7.848  47.682  1.00  0.00     0.052 A 
HETATM   23  S1  UNL     1      27.146   9.115  48.840  1.00  0.00    -0.111 SA
HETATM   24  C14 UNL     1      26.290   8.018  50.084  1.00  0.00     0.079 A 
ENDBRANCH  18  20
ENDBRANCH  13  14
ENDBRANCH  11  13
ENDBRANCH   7  11
BRANCH  10  25
HETATM   25  O3  UNL     1      27.774   2.303  54.259  1.00  0.00    -0.353 OA
HETATM   26  C18 UNL     1      28.618   2.644  53.195  1.00  0.00     0.210 C 
ENDBRANCH  10  25
BRANCH   1  27
HETATM   27  O1  UNL     1      27.582  -0.267  55.051  1.00  0.00    -0.353 OA
HETATM   28  C1  UNL     1      28.664  -0.714  54.270  1.00  0.00     0.210 C 
ENDBRANCH   1  27
TORSDOF 6
ENDMDL
MODEL 3
REMARK VINA RESULT:      -6.8      2.954      4.319
REMARK  6 active torsions:
REMARK  status: ('A' for Active; 'I' for Inactive)
REMARK    1  A    between atoms: O1_2  and  C2_3 
REMARK    2  A    between atoms: C6_9  and  N3_10 
REMARK    3  A    between atoms: N3_10  and  C8_12 
REMARK    4  A    between atoms: C8_12  and  N4_13 
REMARK       I    between atoms: N4_13  and  C10_15 
REMARK       I    between atoms: C10_15  and  N5_17 
REMARK    5  A    between atoms: N5_17  and  C11_18 
REMARK    6  A    between atoms: C17_25  and  O3_26 
ROOT
HETATM    1  C2  UNL     1      26.564   0.229  53.293  1.00  0.00     0.103 A 
HETATM    2  C3  UNL     1      27.168   1.013  52.375  1.00  0.00     0.072 A 
HETATM    3  C4  UNL     1      26.344   1.787  51.562  1.00  0.00     0.075 A 
HETATM    4  N1  UNL     1      26.825   2.615  50.619  1.00  0.00    -0.241 NA
HETATM    5  C5  UNL     1      25.972   3.339  49.881  1.00  0.00     0.236 A 
HETATM    6  N2  UNL     1      24.608   3.310  50.003  1.00  0.00    -0.224 NA
HETATM    7  C6  UNL     1      24.069   2.488  50.944  1.00  0.00     0.140 A 
HETATM    8  C15 UNL     1      24.954   1.744  51.704  1.00  0.00     0.041 A 
HETATM    9  C16 UNL     1      24.447   0.902  52.678  1.00  0.00     0.057 A 
HETATM   10  C17 UNL     1      25.201   0.092  53.537  1.00  0.00     0.102 A 
ENDROOT
BRANCH   7  11
HETATM   11  N3  UNL     1      22.646   2.375  51.139  1.00  0.00    -0.353 N 
HETATM   12  C7  UNL     1      21.869   3.087  52.139  1.00  0.00     0.153 C 
BRANCH  11  13
HETATM   13  C8  UNL     1      22.235   1.470  50.118  1.00  0.00     0.254 C 
BRANCH  13  14
HETATM   14  N4  UNL     1      21.071   1.877  49.358  1.00  0.00    -0.322 N 
HETATM   15  C9  UNL     1      19.763   1.332  49.669  1.00  0.00     0.156 C 
HETATM   16  C10 UNL     1      21.152   2.832  48.270  1.00  0.00     0.323 C 
HETATM   17  O2  UNL     1      20.093   3.107  47.591  1.00  0.00    -0.247 OA
HETATM   18  N5  UNL     1      22.324   3.532  47.851  1.00  0.00    -0.308 N 
HETATM   19  H14 UNL     1      23.078   3.252  48.474  1.00  0.00     0.170 HD
BRANCH  18  20
HETATM   20  C11 UNL     1      21.881   4.329  46.772  1.00  0.00     0.043 A 
HETATM   21  C12 UNL     1      21.491   5.612  46.966  1.00  0.00     0.037 A 
HETATM   22  C13 UNL     1      21.085   6.348  45.871  1.00  0.00     0.052 A 
HETATM   23  S1  UNL     1      21.236   5.250  44.485  1.00  0.00    -0.111 SA
HETATM   24  C14 UNL     1      21.863   3.760  45.418  1.00  0.00     0.079 A 
ENDBRANCH  18  20
ENDBRANCH  13  14
ENDBRANCH  11  13
ENDBRANCH   7  11
BRANCH  10  25
HETATM   25  O3  UNL     1      24.648  -0.733  54.497  1.00  0.00    -0.353 OA
HETATM   26  C18 UNL     1      23.261  -0.929  54.513  1.00  0.00     0.210 C 
ENDBRANCH  10  25
BRANCH   1  27
HETATM   27  O1  UNL     1      27.319  -0.587  54.161  1.00  0.00    -0.353 OA
HETATM   28  C1  UNL     1      28.392   0.007  54.851  1.00  0.00     0.210 C 
ENDBRANCH   1  27
TORSDOF 6
ENDMDL
MODEL 4
REMARK VINA RESULT:      -6.8      2.104      3.476
REMARK  6 active torsions:
REMARK  status: ('A' for Active; 'I' for Inactive)
REMARK    1  A    between atoms: O1_2  and  C2_3 
REMARK    2  A    between atoms: C6_9  and  N3_10 
REMARK    3  A    between atoms: N3_10  and  C8_12 
REMARK    4  A    between atoms: C8_12  and  N4_13 
REMARK       I    between atoms: N4_13  and  C10_15 
REMARK       I    between atoms: C10_15  and  N5_17 
REMARK    5  A    between atoms: N5_17  and  C11_18 
REMARK    6  A    between atoms: C17_25  and  O3_26 
ROOT
HETATM    1  C2  UNL     1      26.600   0.257  53.475  1.00  0.00     0.103 A 
HETATM    2  C3  UNL     1      27.222   1.107  52.633  1.00  0.00     0.072 A 
HETATM    3  C4  UNL     1      26.417   1.842  51.766  1.00  0.00     0.075 A 
HETATM    4  N1  UNL     1      26.917   2.729  50.888  1.00  0.00    -0.241 NA
HETATM    5  C5  UNL     1      26.080   3.411  50.092  1.00  0.00     0.236 A 
HETATM    6  N2  UNL     1      24.716   3.279  50.090  1.00  0.00    -0.224 NA
HETATM    7  C6  UNL     1      24.160   2.393  50.960  1.00  0.00     0.140 A 
HETATM    8  C15 UNL     1      25.028   1.695  51.780  1.00  0.00     0.041 A 
HETATM    9  C16 UNL     1      24.501   0.791  52.687  1.00  0.00     0.057 A 
HETATM   10  C17 UNL     1      25.235   0.014  53.592  1.00  0.00     0.102 A 
ENDROOT
BRANCH   7  11
HETATM   11  N3  UNL     1      22.738   2.172  51.025  1.00  0.00    -0.353 N 
HETATM   12  C7  UNL     1      22.017   1.094  50.372  1.00  0.00     0.153 C 
BRANCH  11  13
HETATM   13  C8  UNL     1      22.274   3.209  51.887  1.00  0.00     0.254 C 
BRANCH  13  14
HETATM   14  N4  UNL     1      21.275   4.090  51.317  1.00  0.00    -0.322 N 
HETATM   15  C9  UNL     1      19.865   3.856  51.563  1.00  0.00     0.156 C 
HETATM   16  C10 UNL     1      21.626   5.226  50.489  1.00  0.00     0.323 C 
HETATM   17  O2  UNL     1      20.691   5.935  49.960  1.00  0.00    -0.247 OA
HETATM   18  N5  UNL     1      22.950   5.668  50.184  1.00  0.00    -0.308 N 
HETATM   19  H14 UNL     1      23.591   5.050  50.676  1.00  0.00     0.170 HD
BRANCH  18  20
HETATM   20  C11 UNL     1      22.755   6.796  49.358  1.00  0.00     0.043 A 
HETATM   21  C12 UNL     1      22.635   6.665  48.014  1.00  0.00     0.037 A 
HETATM   22  C13 UNL     1      22.428   7.802  47.258  1.00  0.00     0.052 A 
HETATM   23  S1  UNL     1      22.388   9.139  48.424  1.00  0.00    -0.111 SA
HETATM   24  C14 UNL     1      22.661   8.128  49.969  1.00  0.00     0.079 A 
ENDBRANCH  18  20
ENDBRANCH  13  14
ENDBRANCH  11  13
ENDBRANCH   7  11
BRANCH  10  25
HETATM   25  O3  UNL     1      24.663  -0.876  54.481  1.00  0.00    -0.353 OA
HETATM   26  C18 UNL     1      23.269  -0.917  54.603  1.00  0.00     0.210 C 
ENDBRANCH  10  25
BRANCH   1  27
HETATM   27  O1  UNL     1      27.334  -0.527  54.389  1.00  0.00    -0.353 OA
HETATM   28  C1  UNL     1      28.628  -0.092  54.735  1.00  0.00     0.210 C 
ENDBRANCH   1  27
TORSDOF 6
ENDMDL
MODEL 5
REMARK VINA RESULT:      -6.8      3.542      5.208
REMARK  6 active torsions:
REMARK  status: ('A' for Active; 'I' for Inactive)
REMARK    1  A    between atoms: O1_2  and  C2_3 
REMARK    2  A    between atoms: C6_9  and  N3_10 
REMARK    3  A    between atoms: N3_10  and  C8_12 
REMARK    4  A    between atoms: C8_12  and  N4_13 
REMARK       I    between atoms: N4_13  and  C10_15 
REMARK       I    between atoms: C10_15  and  N5_17 
REMARK    5  A    between atoms: N5_17  and  C11_18 
REMARK    6  A    between atoms: C17_25  and  O3_26 
ROOT
HETATM    1  C2  UNL     1      25.899  -0.402  53.666  1.00  0.00     0.103 A 
HETATM    2  C3  UNL     1      24.962  -0.941  54.473  1.00  0.00     0.072 A 
HETATM    3  C4  UNL     1      23.637  -0.583  54.232  1.00  0.00     0.075 A 
HETATM    4  N1  UNL     1      22.613  -1.061  54.960  1.00  0.00    -0.241 NA
HETATM    5  C5  UNL     1      21.361  -0.682  54.663  1.00  0.00     0.236 A 
HETATM    6  N2  UNL     1      21.020   0.179  53.653  1.00  0.00    -0.224 NA
HETATM    7  C6  UNL     1      22.021   0.691  52.887  1.00  0.00     0.140 A 
HETATM    8  C15 UNL     1      23.309   0.295  53.196  1.00  0.00     0.041 A 
HETATM    9  C16 UNL     1      24.355   0.786  52.435  1.00  0.00     0.057 A 
HETATM   10  C17 UNL     1      25.711   0.480  52.606  1.00  0.00     0.102 A 
ENDROOT
BRANCH   7  11
HETATM   11  N3  UNL     1      21.766   1.615  51.811  1.00  0.00    -0.353 N 
HETATM   12  C7  UNL     1      21.826   3.063  51.904  1.00  0.00     0.153 C 
BRANCH  11  13
HETATM   13  C8  UNL     1      21.502   0.768  50.695  1.00  0.00     0.254 C 
BRANCH  13  14
HETATM   14  N4  UNL     1      20.418   1.196  49.834  1.00  0.00    -0.322 N 
HETATM   15  C9  UNL     1      20.699   1.842  48.566  1.00  0.00     0.156 C 
HETATM   16  C10 UNL     1      19.025   1.004  50.188  1.00  0.00     0.323 C 
HETATM   17  O2  UNL     1      18.107   1.461  49.412  1.00  0.00    -0.247 OA
HETATM   18  N5  UNL     1      18.538   0.333  51.352  1.00  0.00    -0.308 N 
HETATM   19  H14 UNL     1      19.350  -0.002  51.865  1.00  0.00     0.170 HD
BRANCH  18  20
HETATM   20  C11 UNL     1      17.134   0.414  51.233  1.00  0.00     0.043 A 
HETATM   21  C12 UNL     1      16.419  -0.600  50.688  1.00  0.00     0.037 A 
HETATM   22  C13 UNL     1      15.047  -0.473  50.614  1.00  0.00     0.052 A 
HETATM   23  S1  UNL     1      14.684   1.113  51.322  1.00  0.00    -0.111 SA
HETATM   24  C14 UNL     1      16.438   1.610  51.725  1.00  0.00     0.079 A 
ENDBRANCH  18  20
ENDBRANCH  13  14
ENDBRANCH  11  13
ENDBRANCH   7  11
BRANCH  10  25
HETATM   25  O3  UNL     1      26.722   0.996  51.817  1.00  0.00    -0.353 OA
HETATM   26  C18 UNL     1      27.013   2.363  51.889  1.00  0.00     0.210 C 
ENDBRANCH  10  25
BRANCH   1  27
HETATM   27  O1  UNL     1      27.265  -0.709  53.835  1.00  0.00    -0.353 OA
HETATM   28  C1  UNL     1      27.982   0.008  54.810  1.00  0.00     0.210 C 
ENDBRANCH   1  27
TORSDOF 6
ENDMDL
MODEL 6
REMARK VINA RESULT:      -6.7      1.769      2.347
REMARK  6 active torsions:
REMARK  status: ('A' for Active; 'I' for Inactive)
REMARK    1  A    between atoms: O1_2  and  C2_3 
REMARK    2  A    between atoms: C6_9  and  N3_10 
REMARK    3  A    between atoms: N3_10  and  C8_12 
REMARK    4  A    between atoms: C8_12  and  N4_13 
REMARK       I    between atoms: N4_13  and  C10_15 
REMARK       I    between atoms: C10_15  and  N5_17 
REMARK    5  A    between atoms: N5_17  and  C11_18 
REMARK    6  A    between atoms: C17_25  and  O3_26 
ROOT
HETATM    1  C2  UNL     1      26.613   1.768  52.440  1.00  0.00     0.103 A 
HETATM    2  C3  UNL     1      26.235   0.800  53.300  1.00  0.00     0.072 A 
HETATM    3  C4  UNL     1      24.889   0.439  53.296  1.00  0.00     0.075 A 
HETATM    4  N1  UNL     1      24.392  -0.518  54.098  1.00  0.00    -0.241 NA
HETATM    5  C5  UNL     1      23.087  -0.821  54.031  1.00  0.00     0.236 A 
HETATM    6  N2  UNL     1      22.184  -0.221  53.194  1.00  0.00    -0.224 NA
HETATM    7  C6  UNL     1      22.637   0.756  52.361  1.00  0.00     0.140 A 
HETATM    8  C15 UNL     1      23.983   1.062  52.433  1.00  0.00     0.041 A 
HETATM    9  C16 UNL     1      24.486   2.043  51.597  1.00  0.00     0.057 A 
HETATM   10  C17 UNL     1      25.820   2.466  51.535  1.00  0.00     0.102 A 
ENDROOT
BRANCH   7  11
HETATM   11  N3  UNL     1      21.763   1.455  51.454  1.00  0.00    -0.353 N 
HETATM   12  C7  UNL     1      21.515   1.096  50.069  1.00  0.00     0.153 C 
BRANCH  11  13
HETATM   13  C8  UNL     1      21.212   2.499  52.254  1.00  0.00     0.254 C 
BRANCH  13  14
HETATM   14  N4  UNL     1      20.405   3.468  51.541  1.00  0.00    -0.322 N 
HETATM   15  C9  UNL     1      18.962   3.336  51.503  1.00  0.00     0.156 C 
HETATM   16  C10 UNL     1      20.989   4.597  50.842  1.00  0.00     0.323 C 
HETATM   17  O2  UNL     1      20.226   5.389  50.174  1.00  0.00    -0.247 OA
HETATM   18  N5  UNL     1      22.374   4.944  50.814  1.00  0.00    -0.308 N 
HETATM   19  H14 UNL     1      22.864   4.266  51.394  1.00  0.00     0.170 HD
BRANCH  18  20
HETATM   20  C11 UNL     1      22.422   6.105  50.012  1.00  0.00     0.043 A 
HETATM   21  C12 UNL     1      22.307   7.338  50.562  1.00  0.00     0.037 A 
HETATM   22  C13 UNL     1      22.379   8.438  49.731  1.00  0.00     0.052 A 
HETATM   23  S1  UNL     1      22.618   7.779  48.101  1.00  0.00    -0.111 SA
HETATM   24  C14 UNL     1      22.618   5.971  48.563  1.00  0.00     0.079 A 
ENDBRANCH  18  20
ENDBRANCH  13  14
ENDBRANCH  11  13
ENDBRANCH   7  11
BRANCH  10  25
HETATM   25  O3  UNL     1      26.275   3.451  50.679  1.00  0.00    -0.353 OA
HETATM   26  C18 UNL     1      25.538   3.749  49.527  1.00  0.00     0.210 C 
ENDBRANCH  10  25
BRANCH   1  27
HETATM   27  O1  UNL     1      27.955   2.196  52.374  1.00  0.00    -0.353 OA
HETATM   28  C1  UNL     1      28.632   2.421  53.587  1.00  0.00     0.210 C 
ENDBRANCH   1  27
TORSDOF 6
ENDMDL
MODEL 7
REMARK VINA RESULT:      -6.7      3.036      4.645
REMARK  6 active torsions:
REMARK  status: ('A' for Active; 'I' for Inactive)
REMARK    1  A    between atoms: O1_2  and  C2_3 
REMARK    2  A    between atoms: C6_9  and  N3_10 
REMARK    3  A    between atoms: N3_10  and  C8_12 
REMARK    4  A    between atoms: C8_12  and  N4_13 
REMARK       I    between atoms: N4_13  and  C10_15 
REMARK       I    between atoms: C10_15  and  N5_17 
REMARK    5  A    between atoms: N5_17  and  C11_18 
REMARK    6  A    between atoms: C17_25  and  O3_26 
ROOT
HETATM    1  C2  UNL     1      25.247  -0.379  53.666  1.00  0.00     0.103 A 
HETATM    2  C3  UNL     1      24.164  -0.746  54.382  1.00  0.00     0.072 A 
HETATM    3  C4  UNL     1      22.937  -0.217  53.990  1.00  0.00     0.075 A 
HETATM    4  N1  UNL     1      21.785  -0.514  54.616  1.00  0.00    -0.241 NA
HETATM    5  C5  UNL     1      20.638   0.024  54.176  1.00  0.00     0.236 A 
HETATM    6  N2  UNL     1      20.530   0.881  53.112  1.00  0.00    -0.224 NA
HETATM    7  C6  UNL     1      21.668   1.215  52.444  1.00  0.00     0.140 A 
HETATM    8  C15 UNL     1      22.847   0.655  52.901  1.00  0.00     0.041 A 
HETATM    9  C16 UNL     1      24.025   0.961  52.244  1.00  0.00     0.057 A 
HETATM   10  C17 UNL     1      25.298   0.475  52.569  1.00  0.00     0.102 A 
ENDROOT
BRANCH   7  11
HETATM   11  N3  UNL     1      21.660   2.119  51.323  1.00  0.00    -0.353 N 
HETATM   12  C7  UNL     1      21.893   1.752  49.937  1.00  0.00     0.153 C 
BRANCH  11  13
HETATM   13  C8  UNL     1      21.337   3.379  51.907  1.00  0.00     0.254 C 
BRANCH  13  14
HETATM   14  N4  UNL     1      20.426   4.203  51.139  1.00  0.00    -0.322 N 
HETATM   15  C9  UNL     1      20.919   5.350  50.401  1.00  0.00     0.156 C 
HETATM   16  C10 UNL     1      19.004   3.930  51.073  1.00  0.00     0.323 C 
HETATM   17  O2  UNL     1      18.235   4.734  50.426  1.00  0.00    -0.247 OA
HETATM   18  N5  UNL     1      18.332   2.818  51.668  1.00  0.00    -0.308 N 
HETATM   19  H14 UNL     1      19.042   2.249  52.122  1.00  0.00     0.170 HD
BRANCH  18  20
HETATM   20  C11 UNL     1      16.978   3.006  51.316  1.00  0.00     0.043 A 
HETATM   21  C12 UNL     1      16.158   3.773  52.075  1.00  0.00     0.037 A 
HETATM   22  C13 UNL     1      14.848   3.935  51.672  1.00  0.00     0.052 A 
HETATM   23  S1  UNL     1      14.700   2.999  50.172  1.00  0.00    -0.111 SA
HETATM   24  C14 UNL     1      16.457   2.375  50.096  1.00  0.00     0.079 A 
ENDBRANCH  18  20
ENDBRANCH  13  14
ENDBRANCH  11  13
ENDBRANCH   7  11
BRANCH  10  25
HETATM   25  O3  UNL     1      26.448   0.810  51.879  1.00  0.00    -0.353 OA
HETATM   26  C18 UNL     1      26.780   2.161  51.722  1.00  0.00     0.210 C 
ENDBRANCH  10  25
BRANCH   1  27
HETATM   27  O1  UNL     1      26.530  -0.867  53.989  1.00  0.00    -0.353 OA
HETATM   28  C1  UNL     1      27.332  -0.088  54.844  1.00  0.00     0.210 C 
ENDBRANCH   1  27
TORSDOF 6
ENDMDL
MODEL 8
REMARK VINA RESULT:      -6.4      2.748      4.402
REMARK  6 active torsions:
REMARK  status: ('A' for Active; 'I' for Inactive)
REMARK    1  A    between atoms: O1_2  and  C2_3 
REMARK    2  A    between atoms: C6_9  and  N3_10 
REMARK    3  A    between atoms: N3_10  and  C8_12 
REMARK    4  A    between atoms: C8_12  and  N4_13 
REMARK       I    between atoms: N4_13  and  C10_15 
REMARK       I    between atoms: C10_15  and  N5_17 
REMARK    5  A    between atoms: N5_17  and  C11_18 
REMARK    6  A    between atoms: C17_25  and  O3_26 
ROOT
HETATM    1  C2  UNL     1      19.492  -0.537  53.217  1.00  0.00     0.103 A 
HETATM    2  C3  UNL     1      20.570  -1.063  53.836  1.00  0.00     0.072 A 
HETATM    3  C4  UNL     1      21.811  -0.512  53.524  1.00  0.00     0.075 A 
HETATM    4  N1  UNL     1      22.957  -0.940  54.082  1.00  0.00    -0.241 NA
HETATM    5  C5  UNL     1      24.114  -0.354  53.743  1.00  0.00     0.236 A 
HETATM    6  N2  UNL     1      24.240   0.675  52.848  1.00  0.00    -0.224 NA
HETATM    7  C6  UNL     1      23.110   1.146  52.254  1.00  0.00     0.140 A 
HETATM    8  C15 UNL     1      21.919   0.540  52.610  1.00  0.00     0.041 A 
HETATM    9  C16 UNL     1      20.745   0.996  52.036  1.00  0.00     0.057 A 
HETATM   10  C17 UNL     1      19.460   0.501  52.292  1.00  0.00     0.102 A 
ENDROOT
BRANCH   7  11
HETATM   11  N3  UNL     1      23.140   2.216  51.289  1.00  0.00    -0.353 N 
HETATM   12  C7  UNL     1      22.965   2.069  49.855  1.00  0.00     0.153 C 
BRANCH  11  13
HETATM   13  C8  UNL     1      23.328   3.384  52.086  1.00  0.00     0.254 C 
BRANCH  13  14
HETATM   14  N4  UNL     1      22.915   4.628  51.470  1.00  0.00    -0.322 N 
HETATM   15  C9  UNL     1      21.535   5.066  51.554  1.00  0.00     0.156 C 
HETATM   16  C10 UNL     1      23.841   5.482  50.753  1.00  0.00     0.323 C 
HETATM   17  O2  UNL     1      23.402   6.544  50.174  1.00  0.00    -0.247 OA
HETATM   18  N5  UNL     1      25.246   5.269  50.613  1.00  0.00    -0.308 N 
HETATM   19  H14 UNL     1      25.473   4.423  51.131  1.00  0.00     0.170 HD
BRANCH  18  20
HETATM   20  C11 UNL     1      25.686   6.366  49.840  1.00  0.00     0.043 A 
HETATM   21  C12 UNL     1      25.969   6.223  48.523  1.00  0.00     0.037 A 
HETATM   22  C13 UNL     1      26.378   7.335  47.814  1.00  0.00     0.052 A 
HETATM   23  S1  UNL     1      26.382   8.665  48.988  1.00  0.00    -0.111 SA
HETATM   24  C14 UNL     1      25.818   7.685  50.473  1.00  0.00     0.079 A 
ENDBRANCH  18  20
ENDBRANCH  13  14
ENDBRANCH  11  13
ENDBRANCH   7  11
BRANCH  10  25
HETATM   25  O3  UNL     1      18.314   0.992  51.693  1.00  0.00    -0.353 OA
HETATM   26  C18 UNL     1      17.958   0.531  50.420  1.00  0.00     0.210 C 
ENDBRANCH  10  25
BRANCH   1  27
HETATM   27  O1  UNL     1      18.197  -1.031  53.472  1.00  0.00    -0.353 OA
HETATM   28  C1  UNL     1      18.057  -2.409  53.721  1.00  0.00     0.210 C 
ENDBRANCH   1  27
TORSDOF 6
ENDMDL
MODEL 9
REMARK VINA RESULT:      -6.4      1.736      2.523
REMARK  6 active torsions:
REMARK  status: ('A' for Active; 'I' for Inactive)
REMARK    1  A    between atoms: O1_2  and  C2_3 
REMARK    2  A    between atoms: C6_9  and  N3_10 
REMARK    3  A    between atoms: N3_10  and  C8_12 
REMARK    4  A    between atoms: C8_12  and  N4_13 
REMARK       I    between atoms: N4_13  and  C10_15 
REMARK       I    between atoms: C10_15  and  N5_17 
REMARK    5  A    between atoms: N5_17  and  C11_18 
REMARK    6  A    between atoms: C17_25  and  O3_26 
ROOT
HETATM    1  C2  UNL     1      24.259  -0.341  54.033  1.00  0.00     0.103 A 
HETATM    2  C3  UNL     1      22.916  -0.289  54.162  1.00  0.00     0.072 A 
HETATM    3  C4  UNL     1      22.243   0.664  53.402  1.00  0.00     0.075 A 
HETATM    4  N1  UNL     1      20.907   0.806  53.434  1.00  0.00    -0.241 NA
HETATM    5  C5  UNL     1      20.324   1.738  52.666  1.00  0.00     0.236 A 
HETATM    6  N2  UNL     1      20.990   2.588  51.823  1.00  0.00    -0.224 NA
HETATM    7  C6  UNL     1      22.345   2.486  51.753  1.00  0.00     0.140 A 
HETATM    8  C15 UNL     1      22.940   1.521  52.547  1.00  0.00     0.041 A 
HETATM    9  C16 UNL     1      24.315   1.378  52.498  1.00  0.00     0.057 A 
HETATM   10  C17 UNL     1      25.071   0.449  53.226  1.00  0.00     0.102 A 
ENDROOT
BRANCH   7  11
HETATM   11  N3  UNL     1      23.137   3.344  50.909  1.00  0.00    -0.353 N 
HETATM   12  C7  UNL     1      23.573   3.036  49.558  1.00  0.00     0.153 C 
BRANCH  11  13
HETATM   13  C8  UNL     1      23.319   4.518  51.697  1.00  0.00     0.254 C 
BRANCH  13  14
HETATM   14  N4  UNL     1      23.136   5.772  50.994  1.00  0.00    -0.322 N 
HETATM   15  C9  UNL     1      21.828   6.397  50.938  1.00  0.00     0.156 C 
HETATM   16  C10 UNL     1      24.227   6.451  50.325  1.00  0.00     0.323 C 
HETATM   17  O2  UNL     1      23.990   7.530  49.664  1.00  0.00    -0.247 OA
HETATM   18  N5  UNL     1      25.596   6.041  50.319  1.00  0.00    -0.308 N 
HETATM   19  H14 UNL     1      25.658   5.201  50.890  1.00  0.00     0.170 HD
BRANCH  18  20
HETATM   20  C11 UNL     1      26.246   7.024  49.541  1.00  0.00     0.043 A 
HETATM   21  C12 UNL     1      26.560   6.793  48.244  1.00  0.00     0.037 A 
HETATM   22  C13 UNL     1      27.179   7.798  47.527  1.00  0.00     0.052 A 
HETATM   23  S1  UNL     1      27.353   9.146  48.667  1.00  0.00    -0.111 SA
HETATM   24  C14 UNL     1      26.568   8.323  50.146  1.00  0.00     0.079 A 
ENDBRANCH  18  20
ENDBRANCH  13  14
ENDBRANCH  11  13
ENDBRANCH   7  11
BRANCH  10  25
HETATM   25  O3  UNL     1      26.446   0.343  53.142  1.00  0.00    -0.353 OA
HETATM   26  C18 UNL     1      27.077   0.593  51.917  1.00  0.00     0.210 C 
ENDBRANCH  10  25
BRANCH   1  27
HETATM   27  O1  UNL     1      25.023  -1.275  54.762  1.00  0.00    -0.353 OA
HETATM   28  C1  UNL     1      25.156  -1.073  56.149  1.00  0.00     0.210 C 
ENDBRANCH   1  27
TORSDOF 6
ENDMDL
