MODEL 1
REMARK VINA RESULT:      -8.8      0.000      0.000
REMARK  4 active torsions:
REMARK  status: ('A' for Active; 'I' for Inactive)
REMARK    1  A    between atoms: C2_2  and  C3_3 
REMARK    2  A    between atoms: N1_6  and  S1_7 
REMARK    3  A    between atoms: C12_16  and  N2_17 
REMARK    4  A    between atoms: N2_17  and  C13_18 
ROOT
HETATM    1  C3  UNL     1      21.308   1.286  52.712  1.00  0.00     0.130 C 
HETATM    2  C4  UNL     1      20.424   2.389  52.350  1.00  0.00     0.053 C 
HETATM    3  C5  UNL     1      20.469   3.085  51.065  1.00  0.00     0.138 C 
HETATM    4  N1  UNL     1      21.506   3.531  50.319  1.00  0.00    -0.302 N 
HETATM    5  C7  UNL     1      22.675   4.191  50.531  1.00  0.00     0.129 C 
HETATM    6  C8  UNL     1      22.915   4.842  51.894  1.00  0.00     0.002 C 
HETATM    7  C9  UNL     1      22.495   3.742  52.501  1.00  0.00     0.035 C 
HETATM    8  C10 UNL     1      23.378   2.546  52.332  1.00  0.00     0.079 C 
HETATM    9  C11 UNL     1      24.423   2.829  51.617  1.00  0.00     0.029 C 
HETATM   10  C12 UNL     1      25.848   2.916  51.530  1.00  0.00     0.132 C 
HETATM   11  N3  UNL     1      26.163   3.518  50.461  1.00  0.00    -0.272 NA
HETATM   12  C19 UNL     1      25.045   3.938  49.652  1.00  0.00     0.163 C 
HETATM   13  C20 UNL     1      23.878   3.266  50.270  1.00  0.00     0.072 C 
HETATM   14  O3  UNL     1      22.637   1.663  53.040  1.00  0.00    -0.345 OA
ENDROOT
BRANCH  10  15
HETATM   15  N2  UNL     1      26.650   2.370  52.562  1.00  0.00    -0.341 N 
HETATM   16  H17 UNL     1      27.035   2.995  53.305  1.00  0.00     0.167 HD
BRANCH  15  17
HETATM   17  C13 UNL     1      26.958   0.989  52.617  1.00  0.00     0.035 A 
HETATM   18  C14 UNL     1      26.181  -0.075  52.235  1.00  0.00     0.032 A 
HETATM   19  C15 UNL     1      26.534  -1.400  52.318  1.00  0.00     0.046 A 
HETATM   20  C16 UNL     1      27.771  -1.725  52.826  1.00  0.00     0.138 A 
HETATM   21  F1  UNL     1      28.101  -3.035  52.901  1.00  0.00    -0.204 F 
HETATM   22  C17 UNL     1      28.600  -0.701  53.229  1.00  0.00     0.074 A 
HETATM   23 CL1  UNL     1      30.174  -1.097  53.877  1.00  0.00    -0.081 Cl
HETATM   24  C18 UNL     1      28.185   0.597  53.118  1.00  0.00     0.056 A 
ENDBRANCH  15  17
ENDBRANCH  10  15
BRANCH   1  25
HETATM   25  C2  UNL     1      20.788   0.692  54.036  1.00  0.00     0.028 C 
HETATM   26  C1  UNL     1      21.729  -0.405  54.459  1.00  0.00     0.007 C 
ENDBRANCH   1  25
BRANCH   4  27
HETATM   27  S1  UNL     1      21.600   2.580  48.856  1.00  0.00     0.225 S 
HETATM   28  C6  UNL     1      19.929   2.456  48.186  1.00  0.00     0.186 C 
HETATM   29  O1  UNL     1      22.156   1.216  49.099  1.00  0.00    -0.206 OA
HETATM   30  O2  UNL     1      22.382   3.271  47.782  1.00  0.00    -0.206 OA
ENDBRANCH   4  27
TORSDOF 4
ENDMDL
MODEL 2
REMARK VINA RESULT:      -8.6      2.307      4.180
REMARK  4 active torsions:
REMARK  status: ('A' for Active; 'I' for Inactive)
REMARK    1  A    between atoms: C2_2  and  C3_3 
REMARK    2  A    between atoms: N1_6  and  S1_7 
REMARK    3  A    between atoms: C12_16  and  N2_17 
REMARK    4  A    between atoms: N2_17  and  C13_18 
ROOT
HETATM    1  C3  UNL     1      25.092   6.237  49.421  1.00  0.00     0.130 C 
HETATM    2  C4  UNL     1      24.204   5.923  48.307  1.00  0.00     0.053 C 
HETATM    3  C5  UNL     1      22.793   5.569  48.459  1.00  0.00     0.138 C 
HETATM    4  N1  UNL     1      22.160   4.753  49.334  1.00  0.00    -0.302 N 
HETATM    5  C7  UNL     1      22.358   3.518  49.867  1.00  0.00     0.129 C 
HETATM    6  C8  UNL     1      23.430   2.616  49.255  1.00  0.00     0.002 C 
HETATM    7  C9  UNL     1      24.285   3.629  49.242  1.00  0.00     0.035 C 
HETATM    8  C10 UNL     1      24.718   4.113  50.589  1.00  0.00     0.079 C 
HETATM    9  C11 UNL     1      24.171   3.418  51.539  1.00  0.00     0.029 C 
HETATM   10  C12 UNL     1      24.342   2.549  52.663  1.00  0.00     0.132 C 
HETATM   11  N3  UNL     1      23.217   2.078  52.999  1.00  0.00    -0.272 NA
HETATM   12  C19 UNL     1      22.108   2.525  52.192  1.00  0.00     0.163 C 
HETATM   13  C20 UNL     1      22.677   3.619  51.371  1.00  0.00     0.072 C 
HETATM   14  O3  UNL     1      25.525   5.118  50.179  1.00  0.00    -0.345 OA
ENDROOT
BRANCH  10  15
HETATM   15  N2  UNL     1      25.637   2.345  53.201  1.00  0.00    -0.341 N 
HETATM   16  H17 UNL     1      26.132   3.134  53.673  1.00  0.00     0.167 HD
BRANCH  15  17
HETATM   17  C13 UNL     1      26.293   1.094  53.114  1.00  0.00     0.035 A 
HETATM   18  C14 UNL     1      25.757  -0.133  52.815  1.00  0.00     0.032 A 
HETATM   19  C15 UNL     1      26.447  -1.320  52.750  1.00  0.00     0.046 A 
HETATM   20  C16 UNL     1      27.800  -1.313  53.003  1.00  0.00     0.138 A 
HETATM   21  F1  UNL     1      28.463  -2.490  52.934  1.00  0.00    -0.204 F 
HETATM   22  C17 UNL     1      28.400  -0.111  53.309  1.00  0.00     0.074 A 
HETATM   23 CL1  UNL     1      30.117  -0.086  53.633  1.00  0.00    -0.081 Cl
HETATM   24  C18 UNL     1      27.652   1.033  53.357  1.00  0.00     0.056 A 
ENDBRANCH  15  17
ENDBRANCH  10  15
BRANCH   1  25
HETATM   25  C2  UNL     1      26.408   6.773  48.826  1.00  0.00     0.028 C 
HETATM   26  C1  UNL     1      27.322   5.603  48.577  1.00  0.00     0.007 C 
ENDBRANCH   1  25
BRANCH   4  27
HETATM   27  S1  UNL     1      21.165   5.722  50.394  1.00  0.00     0.225 S 
HETATM   28  C6  UNL     1      20.478   7.067  49.406  1.00  0.00     0.186 C 
HETATM   29  O1  UNL     1      21.934   6.275  51.547  1.00  0.00    -0.206 OA
HETATM   30  O2  UNL     1      19.967   4.971  50.887  1.00  0.00    -0.206 OA
ENDBRANCH   4  27
TORSDOF 4
ENDMDL
MODEL 3
REMARK VINA RESULT:      -8.5      1.577      1.956
REMARK  4 active torsions:
REMARK  status: ('A' for Active; 'I' for Inactive)
REMARK    1  A    between atoms: C2_2  and  C3_3 
REMARK    2  A    between atoms: N1_6  and  S1_7 
REMARK    3  A    between atoms: C12_16  and  N2_17 
REMARK    4  A    between atoms: N2_17  and  C13_18 
ROOT
HETATM    1  C3  UNL     1      21.867   0.444  52.199  1.00  0.00     0.130 C 
HETATM    2  C4  UNL     1      20.937   1.402  52.787  1.00  0.00     0.053 C 
HETATM    3  C5  UNL     1      20.378   2.546  52.068  1.00  0.00     0.138 C 
HETATM    4  N1  UNL     1      20.943   3.446  51.231  1.00  0.00    -0.302 N 
HETATM    5  C7  UNL     1      22.084   4.184  51.183  1.00  0.00     0.129 C 
HETATM    6  C8  UNL     1      22.955   4.273  52.437  1.00  0.00     0.002 C 
HETATM    7  C9  UNL     1      22.855   2.962  52.608  1.00  0.00     0.035 C 
HETATM    8  C10 UNL     1      23.529   2.131  51.562  1.00  0.00     0.079 C 
HETATM    9  C11 UNL     1      24.113   2.875  50.673  1.00  0.00     0.029 C 
HETATM   10  C12 UNL     1      25.327   3.269  50.025  1.00  0.00     0.132 C 
HETATM   11  N3  UNL     1      25.106   4.295  49.318  1.00  0.00    -0.272 NA
HETATM   12  C19 UNL     1      23.745   4.773  49.354  1.00  0.00     0.163 C 
HETATM   13  C20 UNL     1      23.001   3.695  50.046  1.00  0.00     0.072 C 
HETATM   14  O3  UNL     1      23.198   0.913  52.047  1.00  0.00    -0.345 OA
ENDROOT
BRANCH  10  15
HETATM   15  N2  UNL     1      26.513   2.526  50.245  1.00  0.00    -0.341 N 
HETATM   16  H17 UNL     1      27.218   2.437  49.479  1.00  0.00     0.167 HD
BRANCH  15  17
HETATM   17  C13 UNL     1      26.775   1.886  51.480  1.00  0.00     0.035 A 
HETATM   18  C14 UNL     1      27.099   2.456  52.685  1.00  0.00     0.032 A 
HETATM   19  C15 UNL     1      27.350   1.779  53.855  1.00  0.00     0.046 A 
HETATM   20  C16 UNL     1      27.280   0.404  53.852  1.00  0.00     0.138 A 
HETATM   21  F1  UNL     1      27.530  -0.246  55.012  1.00  0.00    -0.204 F 
HETATM   22  C17 UNL     1      26.959  -0.229  52.671  1.00  0.00     0.074 A 
HETATM   23 CL1  UNL     1      26.866  -1.975  52.651  1.00  0.00    -0.081 Cl
HETATM   24  C18 UNL     1      26.722   0.506  51.543  1.00  0.00     0.056 A 
ENDBRANCH  15  17
ENDBRANCH  10  15
BRANCH   1  25
HETATM   25  C2  UNL     1      22.029  -0.717  53.199  1.00  0.00     0.028 C 
HETATM   26  C1  UNL     1      23.382  -0.593  53.847  1.00  0.00     0.007 C 
ENDBRANCH   1  25
BRANCH   4  27
HETATM   27  S1  UNL     1      20.312   3.195  49.620  1.00  0.00     0.225 S 
HETATM   28  C6  UNL     1      18.562   2.788  49.786  1.00  0.00     0.186 C 
HETATM   29  O1  UNL     1      21.026   2.103  48.895  1.00  0.00    -0.206 OA
HETATM   30  O2  UNL     1      20.329   4.451  48.804  1.00  0.00    -0.206 OA
ENDBRANCH   4  27
TORSDOF 4
ENDMDL
MODEL 4
REMARK VINA RESULT:      -8.3      2.912      5.077
REMARK  4 active torsions:
REMARK  status: ('A' for Active; 'I' for Inactive)
REMARK    1  A    between atoms: C2_2  and  C3_3 
REMARK    2  A    between atoms: N1_6  and  S1_7 
REMARK    3  A    between atoms: C12_16  and  N2_17 
REMARK    4  A    between atoms: N2_17  and  C13_18 
ROOT
HETATM    1  C3  UNL     1      25.346   3.383  50.696  1.00  0.00     0.130 C 
HETATM    2  C4  UNL     1      25.358   4.330  49.586  1.00  0.00     0.053 C 
HETATM    3  C5  UNL     1      24.333   5.350  49.371  1.00  0.00     0.138 C 
HETATM    4  N1  UNL     1      22.983   5.302  49.454  1.00  0.00    -0.302 N 
HETATM    5  C7  UNL     1      21.990   4.457  49.068  1.00  0.00     0.129 C 
HETATM    6  C8  UNL     1      22.325   3.326  48.094  1.00  0.00     0.002 C 
HETATM    7  C9  UNL     1      23.402   3.024  48.805  1.00  0.00     0.035 C 
HETATM    8  C10 UNL     1      23.130   2.474  50.169  1.00  0.00     0.079 C 
HETATM    9  C11 UNL     1      21.855   2.381  50.395  1.00  0.00     0.029 C 
HETATM   10  C12 UNL     1      20.731   1.547  50.691  1.00  0.00     0.132 C 
HETATM   11  N3  UNL     1      19.667   2.220  50.558  1.00  0.00    -0.272 NA
HETATM   12  C19 UNL     1      19.866   3.593  50.159  1.00  0.00     0.163 C 
HETATM   13  C20 UNL     1      21.327   3.800  50.292  1.00  0.00     0.072 C 
HETATM   14  O3  UNL     1      24.412   2.321  50.571  1.00  0.00    -0.345 OA
ENDROOT
BRANCH  10  15
HETATM   15  N2  UNL     1      20.937   0.194  51.057  1.00  0.00    -0.341 N 
HETATM   16  H17 UNL     1      20.731  -0.566  50.370  1.00  0.00     0.167 HD
BRANCH  15  17
HETATM   17  C13 UNL     1      21.413  -0.169  52.340  1.00  0.00     0.035 A 
HETATM   18  C14 UNL     1      20.689  -0.434  53.474  1.00  0.00     0.032 A 
HETATM   19  C15 UNL     1      21.209  -0.778  54.699  1.00  0.00     0.046 A 
HETATM   20  C16 UNL     1      22.575  -0.872  54.835  1.00  0.00     0.138 A 
HETATM   21  F1  UNL     1      23.070  -1.210  56.048  1.00  0.00    -0.204 F 
HETATM   22  C17 UNL     1      23.359  -0.615  53.731  1.00  0.00     0.074 A 
HETATM   23 CL1  UNL     1      25.097  -0.730  53.888  1.00  0.00    -0.081 Cl
HETATM   24  C18 UNL     1      22.775  -0.279  52.542  1.00  0.00     0.056 A 
ENDBRANCH  15  17
ENDBRANCH  10  15
BRANCH   1  25
HETATM   25  C2  UNL     1      26.699   2.646  50.690  1.00  0.00     0.028 C 
HETATM   26  C1  UNL     1      26.583   1.444  51.588  1.00  0.00     0.007 C 
ENDBRANCH   1  25
BRANCH   4  27
HETATM   27  S1  UNL     1      22.465   6.268  50.815  1.00  0.00     0.225 S 
HETATM   28  C6  UNL     1      23.562   7.698  50.908  1.00  0.00     0.186 C 
HETATM   29  O1  UNL     1      22.506   5.508  52.100  1.00  0.00    -0.206 OA
HETATM   30  O2  UNL     1      21.104   6.854  50.607  1.00  0.00    -0.206 OA
ENDBRANCH   4  27
TORSDOF 4
ENDMDL
MODEL 5
REMARK VINA RESULT:      -8.1      2.516      4.255
REMARK  4 active torsions:
REMARK  status: ('A' for Active; 'I' for Inactive)
REMARK    1  A    between atoms: C2_2  and  C3_3 
REMARK    2  A    between atoms: N1_6  and  S1_7 
REMARK    3  A    between atoms: C12_16  and  N2_17 
REMARK    4  A    between atoms: N2_17  and  C13_18 
ROOT
HETATM    1  C3  UNL     1      24.112   3.868  49.814  1.00  0.00     0.130 C 
HETATM    2  C4  UNL     1      23.217   3.995  48.668  1.00  0.00     0.053 C 
HETATM    3  C5  UNL     1      21.761   4.077  48.773  1.00  0.00     0.138 C 
HETATM    4  N1  UNL     1      20.873   3.389  49.526  1.00  0.00    -0.302 N 
HETATM    5  C7  UNL     1      20.660   2.094  49.882  1.00  0.00     0.129 C 
HETATM    6  C8  UNL     1      21.429   0.994  49.149  1.00  0.00     0.002 C 
HETATM    7  C9  UNL     1      22.553   1.686  49.275  1.00  0.00     0.035 C 
HETATM    8  C10 UNL     1      23.057   1.829  50.676  1.00  0.00     0.079 C 
HETATM    9  C11 UNL     1      22.284   1.216  51.520  1.00  0.00     0.029 C 
HETATM   10  C12 UNL     1      22.135   0.196  52.512  1.00  0.00     0.132 C 
HETATM   11  N3  UNL     1      20.906   0.056  52.782  1.00  0.00    -0.272 NA
HETATM   12  C19 UNL     1      20.022   0.927  52.046  1.00  0.00     0.163 C 
HETATM   13  C20 UNL     1      20.932   1.890  51.384  1.00  0.00     0.072 C 
HETATM   14  O3  UNL     1      24.150   2.579  50.408  1.00  0.00    -0.345 OA
ENDROOT
BRANCH  10  15
HETATM   15  N2  UNL     1      23.281  -0.468  53.014  1.00  0.00    -0.341 N 
HETATM   16  H17 UNL     1      23.238  -1.491  53.223  1.00  0.00     0.167 HD
BRANCH  15  17
HETATM   17  C13 UNL     1      24.496   0.217  53.254  1.00  0.00     0.035 A 
HETATM   18  C14 UNL     1      24.681   1.530  53.606  1.00  0.00     0.032 A 
HETATM   19  C15 UNL     1      25.891   2.143  53.822  1.00  0.00     0.046 A 
HETATM   20  C16 UNL     1      27.043   1.403  53.679  1.00  0.00     0.138 A 
HETATM   21  F1  UNL     1      28.226   2.023  53.894  1.00  0.00    -0.204 F 
HETATM   22  C17 UNL     1      26.925   0.077  53.326  1.00  0.00     0.074 A 
HETATM   23 CL1  UNL     1      28.378  -0.877  53.140  1.00  0.00    -0.081 Cl
HETATM   24  C18 UNL     1      25.688  -0.470  53.127  1.00  0.00     0.056 A 
ENDBRANCH  15  17
ENDBRANCH  10  15
BRANCH   1  25
HETATM   25  C2  UNL     1      25.553   4.045  49.297  1.00  0.00     0.028 C 
HETATM   26  C1  UNL     1      26.453   3.143  50.099  1.00  0.00     0.007 C 
ENDBRANCH   1  25
BRANCH   4  27
HETATM   27  S1  UNL     1      20.179   4.468  50.712  1.00  0.00     0.225 S 
HETATM   28  C6  UNL     1      19.861   6.041  49.887  1.00  0.00     0.186 C 
HETATM   29  O1  UNL     1      21.079   4.677  51.885  1.00  0.00    -0.206 OA
HETATM   30  O2  UNL     1      18.831   4.009  51.174  1.00  0.00    -0.206 OA
ENDBRANCH   4  27
TORSDOF 4
ENDMDL
MODEL 6
REMARK VINA RESULT:      -7.9      2.469      4.117
REMARK  4 active torsions:
REMARK  status: ('A' for Active; 'I' for Inactive)
REMARK    1  A    between atoms: C2_2  and  C3_3 
REMARK    2  A    between atoms: N1_6  and  S1_7 
REMARK    3  A    between atoms: C12_16  and  N2_17 
REMARK    4  A    between atoms: N2_17  and  C13_18 
ROOT
HETATM    1  C3  UNL     1      21.491   4.738  49.301  1.00  0.00     0.130 C 
HETATM    2  C4  UNL     1      20.693   3.903  48.410  1.00  0.00     0.053 C 
HETATM    3  C5  UNL     1      19.642   2.993  48.864  1.00  0.00     0.138 C 
HETATM    4  N1  UNL     1      19.590   2.124  49.900  1.00  0.00    -0.302 N 
HETATM    5  C7  UNL     1      20.409   1.197  50.465  1.00  0.00     0.129 C 
HETATM    6  C8  UNL     1      21.672   0.776  49.714  1.00  0.00     0.002 C 
HETATM    7  C9  UNL     1      21.954   2.046  49.462  1.00  0.00     0.035 C 
HETATM    8  C10 UNL     1      22.310   2.868  50.661  1.00  0.00     0.079 C 
HETATM    9  C11 UNL     1      22.289   2.154  51.745  1.00  0.00     0.029 C 
HETATM   10  C12 UNL     1      23.003   1.629  52.868  1.00  0.00     0.132 C 
HETATM   11  N3  UNL     1      22.283   0.768  53.453  1.00  0.00    -0.272 NA
HETATM   12  C19 UNL     1      20.987   0.556  52.854  1.00  0.00     0.163 C 
HETATM   13  C20 UNL     1      20.863   1.652  51.865  1.00  0.00     0.072 C 
HETATM   14  O3  UNL     1      22.496   4.050  50.031  1.00  0.00    -0.345 OA
ENDROOT
BRANCH  10  15
HETATM   15  N2  UNL     1      24.310   2.096  53.150  1.00  0.00    -0.341 N 
HETATM   16  H17 UNL     1      24.457   3.096  53.417  1.00  0.00     0.167 HD
BRANCH  15  17
HETATM   17  C13 UNL     1      25.440   1.247  53.075  1.00  0.00     0.035 A 
HETATM   18  C14 UNL     1      25.538   0.006  52.498  1.00  0.00     0.032 A 
HETATM   19  C15 UNL     1      26.667  -0.778  52.461  1.00  0.00     0.046 A 
HETATM   20  C16 UNL     1      27.819  -0.307  53.047  1.00  0.00     0.138 A 
HETATM   21  F1  UNL     1      28.920  -1.092  53.001  1.00  0.00    -0.204 F 
HETATM   22  C17 UNL     1      27.786   0.935  53.645  1.00  0.00     0.074 A 
HETATM   23 CL1  UNL     1      29.242   1.547  54.394  1.00  0.00    -0.081 Cl
HETATM   24  C18 UNL     1      26.629   1.662  53.645  1.00  0.00     0.056 A 
ENDBRANCH  15  17
ENDBRANCH  10  15
BRANCH   1  25
HETATM   25  C2  UNL     1      22.312   5.701  48.421  1.00  0.00     0.028 C 
HETATM   26  C1  UNL     1      22.302   5.173  47.012  1.00  0.00     0.007 C 
ENDBRANCH   1  25
BRANCH   4  27
HETATM   27  S1  UNL     1      18.430   2.705  51.070  1.00  0.00     0.225 S 
HETATM   28  C6  UNL     1      17.104   3.517  50.154  1.00  0.00     0.186 C 
HETATM   29  O1  UNL     1      19.035   3.658  52.046  1.00  0.00    -0.206 OA
HETATM   30  O2  UNL     1      17.750   1.586  51.797  1.00  0.00    -0.206 OA
ENDBRANCH   4  27
TORSDOF 4
ENDMDL
MODEL 7
REMARK VINA RESULT:      -7.9      3.646      5.139
REMARK  4 active torsions:
REMARK  status: ('A' for Active; 'I' for Inactive)
REMARK    1  A    between atoms: C2_2  and  C3_3 
REMARK    2  A    between atoms: N1_6  and  S1_7 
REMARK    3  A    between atoms: C12_16  and  N2_17 
REMARK    4  A    between atoms: N2_17  and  C13_18 
ROOT
HETATM    1  C3  UNL     1      23.590   0.310  52.590  1.00  0.00     0.130 C 
HETATM    2  C4  UNL     1      22.455   0.809  53.359  1.00  0.00     0.053 C 
HETATM    3  C5  UNL     1      21.258   1.399  52.761  1.00  0.00     0.138 C 
HETATM    4  N1  UNL     1      21.099   2.285  51.750  1.00  0.00    -0.302 N 
HETATM    5  C7  UNL     1      21.674   3.448  51.345  1.00  0.00     0.129 C 
HETATM    6  C8  UNL     1      22.627   4.169  52.300  1.00  0.00     0.002 C 
HETATM    7  C9  UNL     1      23.238   3.023  52.566  1.00  0.00     0.035 C 
HETATM    8  C10 UNL     1      23.998   2.428  51.422  1.00  0.00     0.079 C 
HETATM    9  C11 UNL     1      23.923   3.178  50.366  1.00  0.00     0.029 C 
HETATM   10  C12 UNL     1      24.604   3.967  49.385  1.00  0.00     0.132 C 
HETATM   11  N3  UNL     1      23.752   4.616  48.710  1.00  0.00    -0.272 NA
HETATM   12  C19 UNL     1      22.379   4.395  49.096  1.00  0.00     0.163 C 
HETATM   13  C20 UNL     1      22.446   3.245  50.028  1.00  0.00     0.072 C 
HETATM   14  O3  UNL     1      24.437   1.312  52.048  1.00  0.00    -0.345 OA
ENDROOT
BRANCH  10  15
HETATM   15  N2  UNL     1      26.017   3.925  49.307  1.00  0.00    -0.341 N 
HETATM   16  H17 UNL     1      26.522   3.037  49.524  1.00  0.00     0.167 HD
BRANCH  15  17
HETATM   17  C13 UNL     1      26.780   5.063  48.949  1.00  0.00     0.035 A 
HETATM   18  C14 UNL     1      26.391   6.378  48.925  1.00  0.00     0.032 A 
HETATM   19  C15 UNL     1      27.178   7.444  48.561  1.00  0.00     0.046 A 
HETATM   20  C16 UNL     1      28.479   7.206  48.179  1.00  0.00     0.138 A 
HETATM   21  F1  UNL     1      29.240   8.267  47.824  1.00  0.00    -0.204 F 
HETATM   22  C17 UNL     1      28.931   5.904  48.182  1.00  0.00     0.074 A 
HETATM   23 CL1  UNL     1      30.581   5.586  47.700  1.00  0.00    -0.081 Cl
HETATM   24  C18 UNL     1      28.094   4.891  48.556  1.00  0.00     0.056 A 
ENDBRANCH  15  17
ENDBRANCH  10  15
BRANCH   1  25
HETATM   25  C2  UNL     1      24.523  -0.428  53.569  1.00  0.00     0.028 C 
HETATM   26  C1  UNL     1      25.890  -0.509  52.944  1.00  0.00     0.007 C 
ENDBRANCH   1  25
BRANCH   4  27
HETATM   27  S1  UNL     1      20.354   1.471  50.395  1.00  0.00     0.225 S 
HETATM   28  C6  UNL     1      19.111   0.345  51.062  1.00  0.00     0.186 C 
HETATM   29  O1  UNL     1      21.343   0.712  49.574  1.00  0.00    -0.206 OA
HETATM   30  O2  UNL     1      19.578   2.412  49.527  1.00  0.00    -0.206 OA
ENDBRANCH   4  27
TORSDOF 4
ENDMDL
MODEL 8
REMARK VINA RESULT:      -7.7      3.999      5.925
REMARK  4 active torsions:
REMARK  status: ('A' for Active; 'I' for Inactive)
REMARK    1  A    between atoms: C2_2  and  C3_3 
REMARK    2  A    between atoms: N1_6  and  S1_7 
REMARK    3  A    between atoms: C12_16  and  N2_17 
REMARK    4  A    between atoms: N2_17  and  C13_18 
ROOT
HETATM    1  C3  UNL     1      21.126   3.836  47.077  1.00  0.00     0.130 C 
HETATM    2  C4  UNL     1      20.000   2.926  47.255  1.00  0.00     0.053 C 
HETATM    3  C5  UNL     1      19.308   2.720  48.527  1.00  0.00     0.138 C 
HETATM    4  N1  UNL     1      19.771   2.564  49.788  1.00  0.00    -0.302 N 
HETATM    5  C7  UNL     1      20.766   1.875  50.407  1.00  0.00     0.129 C 
HETATM    6  C8  UNL     1      21.507   0.791  49.623  1.00  0.00     0.002 C 
HETATM    7  C9  UNL     1      21.624   1.610  48.587  1.00  0.00     0.035 C 
HETATM    8  C10 UNL     1      22.513   2.792  48.810  1.00  0.00     0.079 C 
HETATM    9  C11 UNL     1      23.027   2.779  50.001  1.00  0.00     0.029 C 
HETATM   10  C12 UNL     1      24.200   2.731  50.819  1.00  0.00     0.132 C 
HETATM   11  N3  UNL     1      23.860   2.539  52.023  1.00  0.00    -0.272 NA
HETATM   12  C19 UNL     1      22.438   2.425  52.239  1.00  0.00     0.163 C 
HETATM   13  C20 UNL     1      21.841   2.836  50.947  1.00  0.00     0.072 C 
HETATM   14  O3  UNL     1      22.363   3.372  47.597  1.00  0.00    -0.345 OA
ENDROOT
BRANCH  10  15
HETATM   15  N2  UNL     1      25.476   2.887  50.225  1.00  0.00    -0.341 N 
HETATM   16  H17 UNL     1      26.150   2.088  50.226  1.00  0.00     0.167 HD
BRANCH  15  17
HETATM   17  C13 UNL     1      25.879   4.105  49.627  1.00  0.00     0.035 A 
HETATM   18  C14 UNL     1      25.138   5.242  49.424  1.00  0.00     0.032 A 
HETATM   19  C15 UNL     1      25.584   6.399  48.831  1.00  0.00     0.046 A 
HETATM   20  C16 UNL     1      26.886   6.456  48.388  1.00  0.00     0.138 A 
HETATM   21  F1  UNL     1      27.308   7.602  47.806  1.00  0.00    -0.204 F 
HETATM   22  C17 UNL     1      27.683   5.345  48.562  1.00  0.00     0.074 A 
HETATM   23 CL1  UNL     1      29.338   5.401  48.004  1.00  0.00    -0.081 Cl
HETATM   24  C18 UNL     1      27.174   4.226  49.161  1.00  0.00     0.056 A 
ENDBRANCH  15  17
ENDBRANCH  10  15
BRANCH   1  25
HETATM   25  C2  UNL     1      21.409   3.931  45.565  1.00  0.00     0.028 C 
HETATM   26  C1  UNL     1      22.019   5.278  45.285  1.00  0.00     0.007 C 
ENDBRANCH   1  25
BRANCH   4  27
HETATM   27  S1  UNL     1      19.323   3.965  50.733  1.00  0.00     0.225 S 
HETATM   28  C6  UNL     1      17.670   4.461  50.207  1.00  0.00     0.186 C 
HETATM   29  O1  UNL     1      20.278   5.098  50.556  1.00  0.00    -0.206 OA
HETATM   30  O2  UNL     1      19.171   3.642  52.187  1.00  0.00    -0.206 OA
ENDBRANCH   4  27
TORSDOF 4
ENDMDL
MODEL 9
REMARK VINA RESULT:      -7.7      4.347      6.032
REMARK  4 active torsions:
REMARK  status: ('A' for Active; 'I' for Inactive)
REMARK    1  A    between atoms: C2_2  and  C3_3 
REMARK    2  A    between atoms: N1_6  and  S1_7 
REMARK    3  A    between atoms: C12_16  and  N2_17 
REMARK    4  A    between atoms: N2_17  and  C13_18 
ROOT
HETATM    1  C3  UNL     1      21.273   3.658  47.326  1.00  0.00     0.130 C 
HETATM    2  C4  UNL     1      21.140   2.292  47.821  1.00  0.00     0.053 C 
HETATM    3  C5  UNL     1      20.748   1.952  49.188  1.00  0.00     0.138 C 
HETATM    4  N1  UNL     1      21.120   2.463  50.384  1.00  0.00    -0.302 N 
HETATM    5  C7  UNL     1      22.275   2.849  50.988  1.00  0.00     0.129 C 
HETATM    6  C8  UNL     1      23.606   2.474  50.335  1.00  0.00     0.002 C 
HETATM    7  C9  UNL     1      23.147   2.869  49.156  1.00  0.00     0.035 C 
HETATM    8  C10 UNL     1      22.901   4.339  49.030  1.00  0.00     0.079 C 
HETATM    9  C11 UNL     1      23.208   4.964  50.125  1.00  0.00     0.029 C 
HETATM   10  C12 UNL     1      24.016   5.950  50.775  1.00  0.00     0.132 C 
HETATM   11  N3  UNL     1      23.860   5.853  52.028  1.00  0.00    -0.272 NA
HETATM   12  C19 UNL     1      22.948   4.816  52.446  1.00  0.00     0.163 C 
HETATM   13  C20 UNL     1      22.301   4.375  51.188  1.00  0.00     0.072 C 
HETATM   14  O3  UNL     1      22.438   4.345  47.759  1.00  0.00    -0.345 OA
ENDROOT
BRANCH  10  15
HETATM   15  N2  UNL     1      24.816   6.825  50.001  1.00  0.00    -0.341 N 
HETATM   16  H17 UNL     1      24.505   7.811  49.845  1.00  0.00     0.167 HD
BRANCH  15  17
HETATM   17  C13 UNL     1      26.035   6.404  49.417  1.00  0.00     0.035 A 
HETATM   18  C14 UNL     1      26.471   5.124  49.182  1.00  0.00     0.032 A 
HETATM   19  C15 UNL     1      27.672   4.775  48.614  1.00  0.00     0.046 A 
HETATM   20  C16 UNL     1      28.541   5.773  48.236  1.00  0.00     0.138 A 
HETATM   21  F1  UNL     1      29.719   5.411  47.679  1.00  0.00    -0.204 F 
HETATM   22  C17 UNL     1      28.161   7.081  48.445  1.00  0.00     0.074 A 
HETATM   23 CL1  UNL     1      29.253   8.361  47.970  1.00  0.00    -0.081 Cl
HETATM   24  C18 UNL     1      26.950   7.358  49.016  1.00  0.00     0.056 A 
ENDBRANCH  15  17
ENDBRANCH  10  15
BRANCH   1  25
HETATM   25  C2  UNL     1      21.473   3.581  45.800  1.00  0.00     0.028 C 
HETATM   26  C1  UNL     1      21.971   4.919  45.323  1.00  0.00     0.007 C 
ENDBRANCH   1  25
BRANCH   4  27
HETATM   27  S1  UNL     1      19.756   3.293  51.095  1.00  0.00     0.225 S 
HETATM   28  C6  UNL     1      18.277   2.342  50.688  1.00  0.00     0.186 C 
HETATM   29  O1  UNL     1      19.618   4.692  50.593  1.00  0.00    -0.206 OA
HETATM   30  O2  UNL     1      19.805   3.285  52.591  1.00  0.00    -0.206 OA
ENDBRANCH   4  27
TORSDOF 4
ENDMDL
