MODEL 1
REMARK VINA RESULT:      -7.5      0.000      0.000
REMARK  8 active torsions:
REMARK  status: ('A' for Active; 'I' for Inactive)
REMARK    1  A    between atoms: C2_2  and  C3_3 
REMARK    2  A    between atoms: C3_3  and  C4_4 
REMARK    3  A    between atoms: C5_5  and  C6_6 
REMARK    4  A    between atoms: C5_5  and  N2_15 
REMARK    5  A    between atoms: C6_6  and  N1_7 
REMARK       I    between atoms: N1_7  and  C7_8 
REMARK    6  A    between atoms: C7_8  and  C8_10 
REMARK    7  A    between atoms: C8_10  and  C9_11 
REMARK    8  A    between atoms: C10_12  and  O2_13 
ROOT
HETATM    1  C4  UNL     1      24.232   1.282  52.044  1.00  0.00     0.002 C 
HETATM    2  C5  UNL     1      24.816   0.552  53.079  1.00  0.00     0.044 C 
ENDROOT
BRANCH   2   3
HETATM    3  C6  UNL     1      24.038  -0.516  53.887  1.00  0.00     0.181 C 
BRANCH   3   4
HETATM    4  N1  UNL     1      22.656  -0.519  53.531  1.00  0.00    -0.355 N 
HETATM    5  C7  UNL     1      21.634  -1.218  54.242  1.00  0.00     0.221 C 
HETATM    6  O1  UNL     1      21.873  -1.928  55.278  1.00  0.00    -0.273 OA
HETATM    7  H11 UNL     1      22.326   0.022  52.692  1.00  0.00     0.162 HD
BRANCH   5   8
HETATM    8  C8  UNL     1      20.202  -1.141  53.782  1.00  0.00     0.131 C 
BRANCH   8   9
HETATM    9  C9  UNL     1      20.063   0.188  53.107  1.00  0.00     0.006 C 
HETATM   10  C10 UNL     1      19.306   0.860  52.255  1.00  0.00     0.130 C 
BRANCH  10  11
HETATM   11  O2  UNL     1      19.442   2.159  51.797  1.00  0.00    -0.368 OA
HETATM   12  C11 UNL     1      20.326   3.019  52.459  1.00  0.00     0.208 C 
ENDBRANCH  10  11
ENDBRANCH   8   9
ENDBRANCH   5   8
ENDBRANCH   3   4
ENDBRANCH   2   3
BRANCH   2  13
HETATM   13  N2  UNL     1      26.148   0.893  53.565  1.00  0.00    -0.272 N 
HETATM   14  C12 UNL     1      26.777   2.183  53.749  1.00  0.00     0.297 C 
HETATM   15  N3  UNL     1      28.165   1.975  53.971  1.00  0.00    -0.275 NA
HETATM   16  C13 UNL     1      28.803   0.930  54.263  1.00  0.00     0.032 C 
HETATM   17  C14 UNL     1      30.082   0.352  53.902  1.00  0.00     0.084 C 
HETATM   18  C19 UNL     1      27.796   0.176  55.153  1.00  0.00     0.205 C 
HETATM   19  C15 UNL     1      29.998  -1.114  53.546  1.00  0.00    -0.002 C 
HETATM   20  C16 UNL     1      29.205  -2.156  53.158  1.00  0.00     0.115 C 
HETATM   21  N4  UNL     1      27.718  -2.246  53.133  1.00  0.00    -0.247 NA
HETATM   22  C17 UNL     1      26.835  -1.237  52.985  1.00  0.00     0.116 C 
HETATM   23  C18 UNL     1      25.807  -1.022  51.960  1.00  0.00     0.093 C 
HETATM   24  N5  UNL     1      26.953  -0.171  53.934  1.00  0.00    -0.270 N 
ENDBRANCH   2  13
BRANCH   1  25
HETATM   25  C3  UNL     1      24.625   2.344  51.081  1.00  0.00     0.029 C 
BRANCH  25  26
HETATM   26  C2  UNL     1      23.591   2.495  50.010  1.00  0.00    -0.001 C 
HETATM   27  C1  UNL     1      22.495   1.496  50.161  1.00  0.00     0.005 C 
ENDBRANCH  25  26
ENDBRANCH   1  25
TORSDOF 8
ENDMDL
MODEL 2
REMARK VINA RESULT:      -7.3      1.698      2.053
REMARK  8 active torsions:
REMARK  status: ('A' for Active; 'I' for Inactive)
REMARK    1  A    between atoms: C2_2  and  C3_3 
REMARK    2  A    between atoms: C3_3  and  C4_4 
REMARK    3  A    between atoms: C5_5  and  C6_6 
REMARK    4  A    between atoms: C5_5  and  N2_15 
REMARK    5  A    between atoms: C6_6  and  N1_7 
REMARK       I    between atoms: N1_7  and  C7_8 
REMARK    6  A    between atoms: C7_8  and  C8_10 
REMARK    7  A    between atoms: C8_10  and  C9_11 
REMARK    8  A    between atoms: C10_12  and  O2_13 
ROOT
HETATM    1  C4  UNL     1      25.755   2.505  51.370  1.00  0.00     0.002 C 
HETATM    2  C5  UNL     1      25.813   1.783  52.561  1.00  0.00     0.044 C 
ENDROOT
BRANCH   2   3
HETATM    3  C6  UNL     1      24.546   1.410  53.371  1.00  0.00     0.181 C 
BRANCH   3   4
HETATM    4  N1  UNL     1      23.413   1.280  52.514  1.00  0.00    -0.355 N 
HETATM    5  C7  UNL     1      22.538   0.151  52.487  1.00  0.00     0.221 C 
HETATM    6  O1  UNL     1      22.702  -0.870  53.238  1.00  0.00    -0.273 OA
HETATM    7  H11 UNL     1      23.170   2.049  51.840  1.00  0.00     0.162 HD
BRANCH   5   8
HETATM    8  C8  UNL     1      21.362   0.125  51.547  1.00  0.00     0.131 C 
BRANCH   8   9
HETATM    9  C9  UNL     1      20.720   1.474  51.661  1.00  0.00     0.006 C 
HETATM   10  C10 UNL     1      19.999   2.228  52.474  1.00  0.00     0.130 C 
BRANCH  10  11
HETATM   11  O2  UNL     1      19.528   3.517  52.286  1.00  0.00    -0.368 OA
HETATM   12  C11 UNL     1      18.457   3.724  51.410  1.00  0.00     0.208 C 
ENDBRANCH  10  11
ENDBRANCH   8   9
ENDBRANCH   5   8
ENDBRANCH   3   4
ENDBRANCH   2   3
BRANCH   2  13
HETATM   13  N2  UNL     1      27.096   1.496  53.192  1.00  0.00    -0.272 N 
HETATM   14  C12 UNL     1      28.212   2.370  53.485  1.00  0.00     0.297 C 
HETATM   15  N3  UNL     1      29.328   1.564  53.840  1.00  0.00    -0.275 NA
HETATM   16  C13 UNL     1      29.395   0.348  54.157  1.00  0.00     0.032 C 
HETATM   17  C14 UNL     1      30.310  -0.748  53.908  1.00  0.00     0.084 C 
HETATM   18  C19 UNL     1      28.069   0.139  54.913  1.00  0.00     0.205 C 
HETATM   19  C15 UNL     1      29.618  -2.025  53.494  1.00  0.00    -0.002 C 
HETATM   20  C16 UNL     1      28.489  -2.605  52.990  1.00  0.00     0.115 C 
HETATM   21  N4  UNL     1      27.132  -2.019  52.810  1.00  0.00    -0.247 NA
HETATM   22  C17 UNL     1      26.815  -0.723  52.610  1.00  0.00     0.116 C 
HETATM   23  C18 UNL     1      26.108  -0.084  51.493  1.00  0.00     0.093 C 
HETATM   24  N5  UNL     1      27.295   0.189  53.603  1.00  0.00    -0.270 N 
ENDBRANCH   2  13
BRANCH   1  25
HETATM   25  C3  UNL     1      26.699   3.036  50.351  1.00  0.00     0.029 C 
BRANCH  25  26
HETATM   26  C2  UNL     1      26.048   4.107  49.534  1.00  0.00    -0.001 C 
HETATM   27  C1  UNL     1      27.055   4.952  48.833  1.00  0.00     0.005 C 
ENDBRANCH  25  26
ENDBRANCH   1  25
TORSDOF 8
ENDMDL
MODEL 3
REMARK VINA RESULT:      -7.3      1.618      2.112
REMARK  8 active torsions:
REMARK  status: ('A' for Active; 'I' for Inactive)
REMARK    1  A    between atoms: C2_2  and  C3_3 
REMARK    2  A    between atoms: C3_3  and  C4_4 
REMARK    3  A    between atoms: C5_5  and  C6_6 
REMARK    4  A    between atoms: C5_5  and  N2_15 
REMARK    5  A    between atoms: C6_6  and  N1_7 
REMARK       I    between atoms: N1_7  and  C7_8 
REMARK    6  A    between atoms: C7_8  and  C8_10 
REMARK    7  A    between atoms: C8_10  and  C9_11 
REMARK    8  A    between atoms: C10_12  and  O2_13 
ROOT
HETATM    1  C4  UNL     1      25.573   2.341  51.422  1.00  0.00     0.002 C 
HETATM    2  C5  UNL     1      25.708   1.636  52.618  1.00  0.00     0.044 C 
ENDROOT
BRANCH   2   3
HETATM    3  C6  UNL     1      24.491   1.220  53.481  1.00  0.00     0.181 C 
BRANCH   3   4
HETATM    4  N1  UNL     1      23.282   1.294  52.726  1.00  0.00    -0.355 N 
HETATM    5  C7  UNL     1      22.351   0.222  52.573  1.00  0.00     0.221 C 
HETATM    6  O1  UNL     1      22.527  -0.928  53.102  1.00  0.00    -0.273 OA
HETATM    7  H11 UNL     1      23.021   2.185  52.234  1.00  0.00     0.162 HD
BRANCH   5   8
HETATM    8  C8  UNL     1      21.097   0.416  51.760  1.00  0.00     0.131 C 
BRANCH   8   9
HETATM    9  C9  UNL     1      19.986  -0.158  52.585  1.00  0.00     0.006 C 
HETATM   10  C10 UNL     1      18.685  -0.395  52.574  1.00  0.00     0.130 C 
BRANCH  10  11
HETATM   11  O2  UNL     1      17.892  -0.976  53.550  1.00  0.00    -0.368 OA
HETATM   12  C11 UNL     1      17.796  -2.371  53.601  1.00  0.00     0.208 C 
ENDBRANCH  10  11
ENDBRANCH   8   9
ENDBRANCH   5   8
ENDBRANCH   3   4
ENDBRANCH   2   3
BRANCH   2  13
HETATM   13  N2  UNL     1      27.026   1.411  53.201  1.00  0.00    -0.272 N 
HETATM   14  C12 UNL     1      28.121   2.330  53.424  1.00  0.00     0.297 C 
HETATM   15  N3  UNL     1      29.278   1.574  53.751  1.00  0.00    -0.275 NA
HETATM   16  C13 UNL     1      29.402   0.369  54.097  1.00  0.00     0.032 C 
HETATM   17  C14 UNL     1      30.345  -0.700  53.837  1.00  0.00     0.084 C 
HETATM   18  C19 UNL     1      28.117   0.135  54.913  1.00  0.00     0.205 C 
HETATM   19  C15 UNL     1      29.682  -2.011  53.485  1.00  0.00    -0.002 C 
HETATM   20  C16 UNL     1      28.555  -2.644  53.044  1.00  0.00     0.115 C 
HETATM   21  N4  UNL     1      27.171  -2.110  52.908  1.00  0.00    -0.247 NA
HETATM   22  C17 UNL     1      26.800  -0.831  52.688  1.00  0.00     0.116 C 
HETATM   23  C18 UNL     1      26.025  -0.248  51.586  1.00  0.00     0.093 C 
HETATM   24  N5  UNL     1      27.288   0.123  53.636  1.00  0.00    -0.270 N 
ENDBRANCH   2  13
BRANCH   1  25
HETATM   25  C3  UNL     1      26.454   2.900  50.362  1.00  0.00     0.029 C 
BRANCH  25  26
HETATM   26  C2  UNL     1      25.737   3.955  49.582  1.00  0.00    -0.001 C 
HETATM   27  C1  UNL     1      24.270   3.699  49.532  1.00  0.00     0.005 C 
ENDBRANCH  25  26
ENDBRANCH   1  25
TORSDOF 8
ENDMDL
MODEL 4
REMARK VINA RESULT:      -6.9      3.086      6.005
REMARK  8 active torsions:
REMARK  status: ('A' for Active; 'I' for Inactive)
REMARK    1  A    between atoms: C2_2  and  C3_3 
REMARK    2  A    between atoms: C3_3  and  C4_4 
REMARK    3  A    between atoms: C5_5  and  C6_6 
REMARK    4  A    between atoms: C5_5  and  N2_15 
REMARK    5  A    between atoms: C6_6  and  N1_7 
REMARK       I    between atoms: N1_7  and  C7_8 
REMARK    6  A    between atoms: C7_8  and  C8_10 
REMARK    7  A    between atoms: C8_10  and  C9_11 
REMARK    8  A    between atoms: C10_12  and  O2_13 
ROOT
HETATM    1  C4  UNL     1      24.485   1.441  52.378  1.00  0.00     0.002 C 
HETATM    2  C5  UNL     1      23.892   2.222  51.386  1.00  0.00     0.044 C 
ENDROOT
BRANCH   2   3
HETATM    3  C6  UNL     1      22.402   2.071  50.987  1.00  0.00     0.181 C 
BRANCH   3   4
HETATM    4  N1  UNL     1      21.754   1.090  51.796  1.00  0.00    -0.355 N 
HETATM    5  C7  UNL     1      20.768   1.376  52.788  1.00  0.00     0.221 C 
HETATM    6  O1  UNL     1      20.375   2.563  53.051  1.00  0.00    -0.273 OA
HETATM    7  H11 UNL     1      21.993   0.072  51.685  1.00  0.00     0.162 HD
BRANCH   5   8
HETATM    8  C8  UNL     1      20.140   0.258  53.579  1.00  0.00     0.131 C 
BRANCH   8   9
HETATM    9  C9  UNL     1      21.224  -0.268  54.469  1.00  0.00     0.006 C 
HETATM   10  C10 UNL     1      21.912  -1.362  54.752  1.00  0.00     0.130 C 
BRANCH  10  11
HETATM   11  O2  UNL     1      22.915  -1.548  55.689  1.00  0.00    -0.368 OA
HETATM   12  C11 UNL     1      24.229  -1.207  55.347  1.00  0.00     0.208 C 
ENDBRANCH  10  11
ENDBRANCH   8   9
ENDBRANCH   5   8
ENDBRANCH   3   4
ENDBRANCH   2   3
BRANCH   2  13
HETATM   13  N2  UNL     1      24.702   3.102  50.553  1.00  0.00    -0.272 N 
HETATM   14  C12 UNL     1      25.974   2.868  49.903  1.00  0.00     0.297 C 
HETATM   15  N3  UNL     1      26.480   4.117  49.451  1.00  0.00    -0.275 NA
HETATM   16  C13 UNL     1      25.913   5.233  49.316  1.00  0.00     0.032 C 
HETATM   17  C14 UNL     1      26.271   6.620  49.532  1.00  0.00     0.084 C 
HETATM   18  C19 UNL     1      24.489   4.822  48.895  1.00  0.00     0.205 C 
HETATM   19  C15 UNL     1      25.213   7.404  50.273  1.00  0.00    -0.002 C 
HETATM   20  C16 UNL     1      24.115   7.366  51.084  1.00  0.00     0.115 C 
HETATM   21  N4  UNL     1      23.260   6.203  51.451  1.00  0.00    -0.247 NA
HETATM   22  C17 UNL     1      23.619   4.904  51.513  1.00  0.00     0.116 C 
HETATM   23  C18 UNL     1      23.584   3.966  52.641  1.00  0.00     0.093 C 
HETATM   24  N5  UNL     1      24.184   4.363  50.314  1.00  0.00    -0.270 N 
ENDBRANCH   2  13
BRANCH   1  25
HETATM   25  C3  UNL     1      25.820   1.289  53.015  1.00  0.00     0.029 C 
BRANCH  25  26
HETATM   26  C2  UNL     1      26.592   0.184  52.366  1.00  0.00    -0.001 C 
HETATM   27  C1  UNL     1      27.468  -0.521  53.345  1.00  0.00     0.005 C 
ENDBRANCH  25  26
ENDBRANCH   1  25
TORSDOF 8
ENDMDL
MODEL 5
REMARK VINA RESULT:      -6.9      2.945      3.803
REMARK  8 active torsions:
REMARK  status: ('A' for Active; 'I' for Inactive)
REMARK    1  A    between atoms: C2_2  and  C3_3 
REMARK    2  A    between atoms: C3_3  and  C4_4 
REMARK    3  A    between atoms: C5_5  and  C6_6 
REMARK    4  A    between atoms: C5_5  and  N2_15 
REMARK    5  A    between atoms: C6_6  and  N1_7 
REMARK       I    between atoms: N1_7  and  C7_8 
REMARK    6  A    between atoms: C7_8  and  C8_10 
REMARK    7  A    between atoms: C8_10  and  C9_11 
REMARK    8  A    between atoms: C10_12  and  O2_13 
ROOT
HETATM    1  C4  UNL     1      25.820   2.735  51.296  1.00  0.00     0.002 C 
HETATM    2  C5  UNL     1      25.853   2.107  52.540  1.00  0.00     0.044 C 
ENDROOT
BRANCH   2   3
HETATM    3  C6  UNL     1      24.600   1.979  53.442  1.00  0.00     0.181 C 
BRANCH   3   4
HETATM    4  N1  UNL     1      23.444   2.498  52.785  1.00  0.00    -0.355 N 
HETATM    5  C7  UNL     1      23.068   3.875  52.766  1.00  0.00     0.221 C 
HETATM    6  O1  UNL     1      23.743   4.785  53.356  1.00  0.00    -0.273 OA
HETATM    7  H11 UNL     1      22.797   1.851  52.267  1.00  0.00     0.162 HD
BRANCH   5   8
HETATM    8  C8  UNL     1      21.829   4.313  52.030  1.00  0.00     0.131 C 
BRANCH   8   9
HETATM    9  C9  UNL     1      22.193   5.597  51.350  1.00  0.00     0.006 C 
HETATM   10  C10 UNL     1      21.678   6.727  50.894  1.00  0.00     0.130 C 
BRANCH  10  11
HETATM   11  O2  UNL     1      22.311   7.791  50.273  1.00  0.00    -0.368 OA
HETATM   12  C11 UNL     1      23.666   8.019  50.539  1.00  0.00     0.208 C 
ENDBRANCH  10  11
ENDBRANCH   8   9
ENDBRANCH   5   8
ENDBRANCH   3   4
ENDBRANCH   2   3
BRANCH   2  13
HETATM   13  N2  UNL     1      27.122   1.694  53.129  1.00  0.00    -0.272 N 
HETATM   14  C12 UNL     1      28.332   2.451  53.373  1.00  0.00     0.297 C 
HETATM   15  N3  UNL     1      29.371   1.537  53.696  1.00  0.00    -0.275 NA
HETATM   16  C13 UNL     1      29.325   0.322  54.024  1.00  0.00     0.032 C 
HETATM   17  C14 UNL     1      30.113  -0.863  53.755  1.00  0.00     0.084 C 
HETATM   18  C19 UNL     1      28.012   0.256  54.828  1.00  0.00     0.205 C 
HETATM   19  C15 UNL     1      29.279  -2.065  53.378  1.00  0.00    -0.002 C 
HETATM   20  C16 UNL     1      28.079  -2.530  52.921  1.00  0.00     0.115 C 
HETATM   21  N4  UNL     1      26.783  -1.809  52.783  1.00  0.00    -0.247 NA
HETATM   22  C17 UNL     1      26.594  -0.488  52.580  1.00  0.00     0.116 C 
HETATM   23  C18 UNL     1      25.916   0.212  51.483  1.00  0.00     0.093 C 
HETATM   24  N5  UNL     1      27.201   0.377  53.546  1.00  0.00    -0.270 N 
ENDBRANCH   2  13
BRANCH   1  25
HETATM   25  C3  UNL     1      26.763   3.048  50.189  1.00  0.00     0.029 C 
BRANCH  25  26
HETATM   26  C2  UNL     1      26.366   4.314  49.499  1.00  0.00    -0.001 C 
HETATM   27  C1  UNL     1      27.483   4.866  48.680  1.00  0.00     0.005 C 
ENDBRANCH  25  26
ENDBRANCH   1  25
TORSDOF 8
ENDMDL
MODEL 6
REMARK VINA RESULT:      -6.7      3.315      6.910
REMARK  8 active torsions:
REMARK  status: ('A' for Active; 'I' for Inactive)
REMARK    1  A    between atoms: C2_2  and  C3_3 
REMARK    2  A    between atoms: C3_3  and  C4_4 
REMARK    3  A    between atoms: C5_5  and  C6_6 
REMARK    4  A    between atoms: C5_5  and  N2_15 
REMARK    5  A    between atoms: C6_6  and  N1_7 
REMARK       I    between atoms: N1_7  and  C7_8 
REMARK    6  A    between atoms: C7_8  and  C8_10 
REMARK    7  A    between atoms: C8_10  and  C9_11 
REMARK    8  A    between atoms: C10_12  and  O2_13 
ROOT
HETATM    1  C4  UNL     1      23.846   1.192  52.850  1.00  0.00     0.002 C 
HETATM    2  C5  UNL     1      25.005   1.964  52.782  1.00  0.00     0.044 C 
ENDROOT
BRANCH   2   3
HETATM    3  C6  UNL     1      25.862   2.290  54.031  1.00  0.00     0.181 C 
BRANCH   3   4
HETATM    4  N1  UNL     1      26.914   1.340  54.190  1.00  0.00    -0.355 N 
HETATM    5  C7  UNL     1      28.306   1.644  54.095  1.00  0.00     0.221 C 
HETATM    6  O1  UNL     1      28.743   2.818  53.845  1.00  0.00    -0.273 OA
HETATM    7  H11 UNL     1      26.690   0.333  54.393  1.00  0.00     0.162 HD
BRANCH   5   8
HETATM    8  C8  UNL     1      29.335   0.560  54.292  1.00  0.00     0.131 C 
BRANCH   8   9
HETATM    9  C9  UNL     1      28.707  -0.695  53.769  1.00  0.00     0.006 C 
HETATM   10  C10 UNL     1      28.986  -1.831  53.152  1.00  0.00     0.130 C 
BRANCH  10  11
HETATM   11  O2  UNL     1      28.136  -2.859  52.779  1.00  0.00    -0.368 OA
HETATM   12  C11 UNL     1      26.864  -2.539  52.290  1.00  0.00     0.208 C 
ENDBRANCH  10  11
ENDBRANCH   8   9
ENDBRANCH   5   8
ENDBRANCH   3   4
ENDBRANCH   2   3
BRANCH   2  13
HETATM   13  N2  UNL     1      25.367   2.651  51.548  1.00  0.00    -0.272 N 
HETATM   14  C12 UNL     1      26.594   2.613  50.780  1.00  0.00     0.297 C 
HETATM   15  N3  UNL     1      26.555   3.666  49.826  1.00  0.00    -0.275 NA
HETATM   16  C13 UNL     1      25.596   4.377  49.426  1.00  0.00     0.032 C 
HETATM   17  C14 UNL     1      25.406   5.767  49.065  1.00  0.00     0.084 C 
HETATM   18  C19 UNL     1      24.418   3.384  49.472  1.00  0.00     0.205 C 
HETATM   19  C15 UNL     1      24.170   6.382  49.680  1.00  0.00    -0.002 C 
HETATM   20  C16 UNL     1      23.218   6.310  50.656  1.00  0.00     0.115 C 
HETATM   21  N4  UNL     1      22.897   5.180  51.572  1.00  0.00    -0.247 NA
HETATM   22  C17 UNL     1      23.730   4.215  52.012  1.00  0.00     0.116 C 
HETATM   23  C18 UNL     1      24.121   3.854  53.380  1.00  0.00     0.093 C 
HETATM   24  N5  UNL     1      24.392   3.460  50.992  1.00  0.00    -0.270 N 
ENDBRANCH   2  13
BRANCH   1  25
HETATM   25  C3  UNL     1      22.800   0.684  51.922  1.00  0.00     0.029 C 
BRANCH  25  26
HETATM   26  C2  UNL     1      21.470   1.289  52.246  1.00  0.00    -0.001 C 
HETATM   27  C1  UNL     1      20.581   0.318  52.945  1.00  0.00     0.005 C 
ENDBRANCH  25  26
ENDBRANCH   1  25
TORSDOF 8
ENDMDL
MODEL 7
REMARK VINA RESULT:      -6.7      1.495      3.017
REMARK  8 active torsions:
REMARK  status: ('A' for Active; 'I' for Inactive)
REMARK    1  A    between atoms: C2_2  and  C3_3 
REMARK    2  A    between atoms: C3_3  and  C4_4 
REMARK    3  A    between atoms: C5_5  and  C6_6 
REMARK    4  A    between atoms: C5_5  and  N2_15 
REMARK    5  A    between atoms: C6_6  and  N1_7 
REMARK       I    between atoms: N1_7  and  C7_8 
REMARK    6  A    between atoms: C7_8  and  C8_10 
REMARK    7  A    between atoms: C8_10  and  C9_11 
REMARK    8  A    between atoms: C10_12  and  O2_13 
ROOT
HETATM    1  C4  UNL     1      24.050  -0.257  53.763  1.00  0.00     0.002 C 
HETATM    2  C5  UNL     1      24.884   0.636  53.092  1.00  0.00     0.044 C 
ENDROOT
BRANCH   2   3
HETATM    3  C6  UNL     1      24.528   1.224  51.703  1.00  0.00     0.181 C 
BRANCH   3   4
HETATM    4  N1  UNL     1      23.185   1.707  51.682  1.00  0.00    -0.355 N 
HETATM    5  C7  UNL     1      22.764   2.961  52.218  1.00  0.00     0.221 C 
HETATM    6  O1  UNL     1      23.568   3.777  52.785  1.00  0.00    -0.273 OA
HETATM    7  H11 UNL     1      22.422   1.127  51.250  1.00  0.00     0.162 HD
BRANCH   5   8
HETATM    8  C8  UNL     1      21.318   3.376  52.132  1.00  0.00     0.131 C 
BRANCH   8   9
HETATM    9  C9  UNL     1      20.558   2.130  51.797  1.00  0.00     0.006 C 
HETATM   10  C10 UNL     1      19.605   1.329  52.244  1.00  0.00     0.130 C 
BRANCH  10  11
HETATM   11  O2  UNL     1      19.087   0.178  51.673  1.00  0.00    -0.368 OA
HETATM   12  C11 UNL     1      18.280  -0.658  52.452  1.00  0.00     0.208 C 
ENDBRANCH  10  11
ENDBRANCH   8   9
ENDBRANCH   5   8
ENDBRANCH   3   4
ENDBRANCH   2   3
BRANCH   2  13
HETATM   13  N2  UNL     1      26.222   0.923  53.595  1.00  0.00    -0.272 N 
HETATM   14  C12 UNL     1      26.890   2.189  53.813  1.00  0.00     0.297 C 
HETATM   15  N3  UNL     1      28.269   1.931  54.041  1.00  0.00    -0.275 NA
HETATM   16  C13 UNL     1      28.871   0.859  54.313  1.00  0.00     0.032 C 
HETATM   17  C14 UNL     1      30.133   0.249  53.949  1.00  0.00     0.084 C 
HETATM   18  C19 UNL     1      27.834   0.119  55.179  1.00  0.00     0.205 C 
HETATM   19  C15 UNL     1      30.006  -1.205  53.560  1.00  0.00    -0.002 C 
HETATM   20  C16 UNL     1      29.183  -2.212  53.142  1.00  0.00     0.115 C 
HETATM   21  N4  UNL     1      27.695  -2.254  53.104  1.00  0.00    -0.247 NA
HETATM   22  C17 UNL     1      26.846  -1.214  52.973  1.00  0.00     0.116 C 
HETATM   23  C18 UNL     1      25.833  -0.944  51.945  1.00  0.00     0.093 C 
HETATM   24  N5  UNL     1      26.990  -0.174  53.946  1.00  0.00    -0.270 N 
ENDBRANCH   2  13
BRANCH   1  25
HETATM   25  C3  UNL     1      24.040  -1.009  55.046  1.00  0.00     0.029 C 
BRANCH  25  26
HETATM   26  C2  UNL     1      22.648  -1.423  55.405  1.00  0.00    -0.001 C 
HETATM   27  C1  UNL     1      21.726  -1.317  54.238  1.00  0.00     0.005 C 
ENDBRANCH  25  26
ENDBRANCH   1  25
TORSDOF 8
ENDMDL
MODEL 8
REMARK VINA RESULT:      -6.6      3.169      7.577
REMARK  8 active torsions:
REMARK  status: ('A' for Active; 'I' for Inactive)
REMARK    1  A    between atoms: C2_2  and  C3_3 
REMARK    2  A    between atoms: C3_3  and  C4_4 
REMARK    3  A    between atoms: C5_5  and  C6_6 
REMARK    4  A    between atoms: C5_5  and  N2_15 
REMARK    5  A    between atoms: C6_6  and  N1_7 
REMARK       I    between atoms: N1_7  and  C7_8 
REMARK    6  A    between atoms: C7_8  and  C8_10 
REMARK    7  A    between atoms: C8_10  and  C9_11 
REMARK    8  A    between atoms: C10_12  and  O2_13 
ROOT
HETATM    1  C4  UNL     1      24.700   3.082  51.062  1.00  0.00     0.002 C 
HETATM    2  C5  UNL     1      23.586   2.264  51.246  1.00  0.00     0.044 C 
ENDROOT
BRANCH   2   3
HETATM    3  C6  UNL     1      23.479   1.253  52.415  1.00  0.00     0.181 C 
BRANCH   3   4
HETATM    4  N1  UNL     1      24.718   0.573  52.616  1.00  0.00    -0.355 N 
HETATM    5  C7  UNL     1      24.948  -0.420  53.615  1.00  0.00     0.221 C 
HETATM    6  O1  UNL     1      24.048  -0.791  54.443  1.00  0.00    -0.273 OA
HETATM    7  H11 UNL     1      25.545   0.792  52.005  1.00  0.00     0.162 HD
BRANCH   5   8
HETATM    8  C8  UNL     1      26.297  -1.082  53.732  1.00  0.00     0.131 C 
BRANCH   8   9
HETATM    9  C9  UNL     1      27.266   0.021  54.029  1.00  0.00     0.006 C 
HETATM   10  C10 UNL     1      28.327   0.318  54.760  1.00  0.00     0.130 C 
BRANCH  10  11
HETATM   11  O2  UNL     1      29.047   1.500  54.821  1.00  0.00    -0.368 OA
HETATM   12  C11 UNL     1      28.925   2.420  53.773  1.00  0.00     0.208 C 
ENDBRANCH  10  11
ENDBRANCH   8   9
ENDBRANCH   5   8
ENDBRANCH   3   4
ENDBRANCH   2   3
BRANCH   2  13
HETATM   13  N2  UNL     1      22.538   2.201  50.234  1.00  0.00    -0.272 N 
HETATM   14  C12 UNL     1      22.631   2.127  48.792  1.00  0.00     0.297 C 
HETATM   15  N3  UNL     1      21.342   2.373  48.249  1.00  0.00    -0.275 NA
HETATM   16  C13 UNL     1      20.207   2.380  48.795  1.00  0.00     0.032 C 
HETATM   17  C14 UNL     1      18.998   3.171  48.682  1.00  0.00     0.084 C 
HETATM   18  C19 UNL     1      20.357   1.277  49.860  1.00  0.00     0.205 C 
HETATM   19  C15 UNL     1      18.432   3.593  50.018  1.00  0.00    -0.002 C 
HETATM   20  C16 UNL     1      18.660   3.788  51.350  1.00  0.00     0.115 C 
HETATM   21  N4  UNL     1      19.816   3.348  52.179  1.00  0.00    -0.247 NA
HETATM   22  C17 UNL     1      21.084   3.130  51.772  1.00  0.00     0.116 C 
HETATM   23  C18 UNL     1      22.338   3.757  52.209  1.00  0.00     0.093 C 
HETATM   24  N5  UNL     1      21.236   2.189  50.705  1.00  0.00    -0.270 N 
ENDBRANCH   2  13
BRANCH   1  25
HETATM   25  C3  UNL     1      25.160   4.126  50.109  1.00  0.00     0.029 C 
BRANCH  25  26
HETATM   26  C2  UNL     1      26.361   3.657  49.350  1.00  0.00    -0.001 C 
HETATM   27  C1  UNL     1      27.182   4.800  48.859  1.00  0.00     0.005 C 
ENDBRANCH  25  26
ENDBRANCH   1  25
TORSDOF 8
ENDMDL
MODEL 9
REMARK VINA RESULT:      -6.6      2.265      3.687
REMARK  8 active torsions:
REMARK  status: ('A' for Active; 'I' for Inactive)
REMARK    1  A    between atoms: C2_2  and  C3_3 
REMARK    2  A    between atoms: C3_3  and  C4_4 
REMARK    3  A    between atoms: C5_5  and  C6_6 
REMARK    4  A    between atoms: C5_5  and  N2_15 
REMARK    5  A    between atoms: C6_6  and  N1_7 
REMARK       I    between atoms: N1_7  and  C7_8 
REMARK    6  A    between atoms: C7_8  and  C8_10 
REMARK    7  A    between atoms: C8_10  and  C9_11 
REMARK    8  A    between atoms: C10_12  and  O2_13 
ROOT
HETATM    1  C4  UNL     1      24.061  -0.168  53.725  1.00  0.00     0.002 C 
HETATM    2  C5  UNL     1      24.923   0.699  53.054  1.00  0.00     0.044 C 
ENDROOT
BRANCH   2   3
HETATM    3  C6  UNL     1      24.592   1.289  51.660  1.00  0.00     0.181 C 
BRANCH   3   4
HETATM    4  N1  UNL     1      23.298   1.892  51.656  1.00  0.00    -0.355 N 
HETATM    5  C7  UNL     1      23.002   3.187  52.180  1.00  0.00     0.221 C 
HETATM    6  O1  UNL     1      23.887   3.934  52.720  1.00  0.00    -0.273 OA
HETATM    7  H11 UNL     1      22.478   1.378  51.246  1.00  0.00     0.162 HD
BRANCH   5   8
HETATM    8  C8  UNL     1      21.598   3.729  52.113  1.00  0.00     0.131 C 
BRANCH   8   9
HETATM    9  C9  UNL     1      21.742   5.193  51.828  1.00  0.00     0.006 C 
HETATM   10  C10 UNL     1      21.747   6.075  50.843  1.00  0.00     0.130 C 
BRANCH  10  11
HETATM   11  O2  UNL     1      21.915   7.449  50.897  1.00  0.00    -0.368 OA
HETATM   12  C11 UNL     1      22.482   8.104  49.798  1.00  0.00     0.208 C 
ENDBRANCH  10  11
ENDBRANCH   8   9
ENDBRANCH   5   8
ENDBRANCH   3   4
ENDBRANCH   2   3
BRANCH   2  13
HETATM   13  N2  UNL     1      26.266   0.950  53.563  1.00  0.00    -0.272 N 
HETATM   14  C12 UNL     1      26.968   2.197  53.782  1.00  0.00     0.297 C 
HETATM   15  N3  UNL     1      28.338   1.902  54.017  1.00  0.00    -0.275 NA
HETATM   16  C13 UNL     1      28.909   0.815  54.294  1.00  0.00     0.032 C 
HETATM   17  C14 UNL     1      30.156   0.170  53.937  1.00  0.00     0.084 C 
HETATM   18  C19 UNL     1      27.848   0.105  55.156  1.00  0.00     0.205 C 
HETATM   19  C15 UNL     1      29.991  -1.281  53.549  1.00  0.00    -0.002 C 
HETATM   20  C16 UNL     1      29.143  -2.266  53.129  1.00  0.00     0.115 C 
HETATM   21  N4  UNL     1      27.654  -2.267  53.084  1.00  0.00    -0.247 NA
HETATM   22  C17 UNL     1      26.834  -1.204  52.947  1.00  0.00     0.116 C 
HETATM   23  C18 UNL     1      25.835  -0.909  51.914  1.00  0.00     0.093 C 
HETATM   24  N5  UNL     1      27.002  -0.167  53.919  1.00  0.00    -0.270 N 
ENDBRANCH   2  13
BRANCH   1  25
HETATM   25  C3  UNL     1      24.023  -0.913  55.011  1.00  0.00     0.029 C 
BRANCH  25  26
HETATM   26  C2  UNL     1      22.640  -1.412  55.291  1.00  0.00    -0.001 C 
HETATM   27  C1  UNL     1      21.676  -0.975  54.241  1.00  0.00     0.005 C 
ENDBRANCH  25  26
ENDBRANCH   1  25
TORSDOF 8
ENDMDL
