MODEL 1
REMARK VINA RESULT:     -10.3      0.000      0.000
REMARK  0 active torsions:
REMARK  status: ('A' for Active; 'I' for Inactive)
ROOT
HETATM    1  F1  UNL     1      28.622   5.697  47.824  1.00  0.00    -0.205 F 
HETATM    2  C1  UNL     1      27.485   5.661  48.538  1.00  0.00     0.134 A 
HETATM    3  C2  UNL     1      27.104   4.478  49.060  1.00  0.00     0.059 A 
HETATM    4  C3  UNL     1      25.988   4.338  49.785  1.00  0.00     0.018 A 
HETATM    5  C4  UNL     1      25.170   5.488  50.012  1.00  0.00     0.047 A 
HETATM    6  C5  UNL     1      25.555   6.681  49.488  1.00  0.00     0.052 A 
HETATM    7  C6  UNL     1      26.705   6.751  48.758  1.00  0.00     0.051 A 
HETATM    8 BR1  UNL     1      27.181   8.453  48.055  1.00  0.00    -0.048 Br
HETATM    9  N1  UNL     1      23.893   5.688  50.723  1.00  0.00    -0.343 N 
HETATM   10  C7  UNL     1      23.820   4.940  51.972  1.00  0.00     0.110 A 
HETATM   11  C8  UNL     1      23.892   4.069  53.064  1.00  0.00     0.167 A 
HETATM   12  C9  UNL     1      24.610   2.739  53.412  1.00  0.00     0.113 C 
HETATM   13  C10 UNL     1      25.487   2.042  52.586  1.00  0.00     0.023 C 
HETATM   14  C11 UNL     1      26.248   1.906  51.223  1.00  0.00     0.086 C 
HETATM   15  C12 UNL     1      25.712   2.975  50.336  1.00  0.00     0.051 C 
HETATM   16  N2  UNL     1      24.521   2.409  50.021  1.00  0.00    -0.239 NA
HETATM   17  C13 UNL     1      23.250   2.879  50.592  1.00  0.00     0.110 C 
HETATM   18  N3  UNL     1      23.370   3.529  51.733  1.00  0.00    -0.310 N 
HETATM   19  C14 UNL     1      22.067   2.560  49.766  1.00  0.00     0.105 C 
HETATM   20  C15 UNL     1      20.793   3.180  50.293  1.00  0.00     0.175 C 
HETATM   21  O1  UNL     1      19.717   2.805  49.526  1.00  0.00    -0.389 OA
HETATM   22  C16 UNL     1      19.313   1.516  49.525  1.00  0.00     0.186 C 
HETATM   23  C17 UNL     1      18.637   0.981  50.755  1.00  0.00     0.140 C 
HETATM   24  N4  UNL     1      19.332   1.052  51.969  1.00  0.00    -0.418 N 
HETATM   25  C18 UNL     1      20.495   0.282  52.160  1.00  0.00     0.126 C 
HETATM   26  C19 UNL     1      21.046   0.707  53.552  1.00  0.00     0.113 C 
HETATM   27  C20 UNL     1      22.420   0.376  53.509  1.00  0.00    -0.103 C 
HETATM   28  C21 UNL     1      23.524   0.125  53.461  1.00  0.00    -0.087 C 
HETATM   29  C22 UNL     1      24.910  -0.167  53.386  1.00  0.00     0.209 C 
HETATM   30  N5  UNL     1      25.704   1.048  53.639  1.00  0.00    -0.406 N 
HETATM   31  H3  UNL     1      23.025   6.166  50.643  1.00  0.00     0.167 HD
HETATM   32  H16 UNL     1      18.811   1.329  52.805  1.00  0.00     0.153 HD
HETATM   33  H23 UNL     1      26.357   1.226  54.458  1.00  0.00     0.154 HD
ENDROOT
TORSDOF 0
ENDMDL
MODEL 2
REMARK VINA RESULT:      -9.7      2.290      4.402
REMARK  0 active torsions:
REMARK  status: ('A' for Active; 'I' for Inactive)
ROOT
HETATM    1  F1  UNL     1      25.682   9.486  49.840  1.00  0.00    -0.205 F 
HETATM    2  C1  UNL     1      25.651   8.146  49.767  1.00  0.00     0.134 A 
HETATM    3  C2  UNL     1      24.734   7.493  50.508  1.00  0.00     0.059 A 
HETATM    4  C3  UNL     1      24.623   6.159  50.505  1.00  0.00     0.018 A 
HETATM    5  C4  UNL     1      25.514   5.401  49.682  1.00  0.00     0.047 A 
HETATM    6  C5  UNL     1      26.437   6.058  48.933  1.00  0.00     0.052 A 
HETATM    7  C6  UNL     1      26.493   7.420  48.986  1.00  0.00     0.051 A 
HETATM    8 BR1  UNL     1      27.811   8.273  47.911  1.00  0.00    -0.048 Br
HETATM    9  N1  UNL     1      25.688   3.952  49.460  1.00  0.00    -0.343 N 
HETATM   10  C7  UNL     1      24.419   3.239  49.374  1.00  0.00     0.110 A 
HETATM   11  C8  UNL     1      23.122   2.722  49.434  1.00  0.00     0.167 A 
HETATM   12  C9  UNL     1      21.776   3.104  50.103  1.00  0.00     0.113 C 
HETATM   13  C10 UNL     1      21.541   4.230  50.886  1.00  0.00     0.023 C 
HETATM   14  C11 UNL     1      22.059   5.548  51.554  1.00  0.00     0.086 C 
HETATM   15  C12 UNL     1      23.533   5.573  51.344  1.00  0.00     0.051 C 
HETATM   16  N2  UNL     1      23.894   4.656  52.275  1.00  0.00    -0.239 NA
HETATM   17  C13 UNL     1      24.324   3.296  51.916  1.00  0.00     0.110 C 
HETATM   18  N3  UNL     1      23.904   2.883  50.737  1.00  0.00    -0.310 N 
HETATM   19  C14 UNL     1      25.176   2.649  52.935  1.00  0.00     0.105 C 
HETATM   20  C15 UNL     1      25.730   1.316  52.484  1.00  0.00     0.175 C 
HETATM   21  O1  UNL     1      26.464   0.731  53.485  1.00  0.00    -0.389 OA
HETATM   22  C16 UNL     1      25.843   0.306  54.608  1.00  0.00     0.186 C 
HETATM   23  C17 UNL     1      24.969  -0.912  54.520  1.00  0.00     0.140 C 
HETATM   24  N4  UNL     1      23.907  -0.893  53.607  1.00  0.00    -0.418 N 
HETATM   25  C18 UNL     1      22.823  -0.014  53.807  1.00  0.00     0.126 C 
HETATM   26  C19 UNL     1      21.917  -0.187  52.553  1.00  0.00     0.113 C 
HETATM   27  C20 UNL     1      21.173   1.013  52.482  1.00  0.00    -0.103 C 
HETATM   28  C21 UNL     1      20.594   1.985  52.420  1.00  0.00    -0.087 C 
HETATM   29  C22 UNL     1      19.890   3.213  52.332  1.00  0.00     0.209 C 
HETATM   30  N5  UNL     1      20.134   3.851  51.027  1.00  0.00    -0.406 N 
HETATM   31  H3  UNL     1      26.395   3.261  49.354  1.00  0.00     0.167 HD
HETATM   32  H16 UNL     1      23.729  -1.737  53.059  1.00  0.00     0.153 HD
HETATM   33  H23 UNL     1      19.421   4.032  50.261  1.00  0.00     0.154 HD
ENDROOT
TORSDOF 0
ENDMDL
MODEL 3
REMARK VINA RESULT:      -9.3      3.170      5.291
REMARK  0 active torsions:
REMARK  status: ('A' for Active; 'I' for Inactive)
ROOT
HETATM    1  F1  UNL     1      20.351   8.321  49.329  1.00  0.00    -0.205 F 
HETATM    2  C1  UNL     1      21.065   7.189  49.226  1.00  0.00     0.134 A 
HETATM    3  C2  UNL     1      21.084   6.355  50.284  1.00  0.00     0.059 A 
HETATM    4  C3  UNL     1      21.766   5.203  50.280  1.00  0.00     0.018 A 
HETATM    5  C4  UNL     1      22.503   4.848  49.108  1.00  0.00     0.047 A 
HETATM    6  C5  UNL     1      22.483   5.687  48.040  1.00  0.00     0.052 A 
HETATM    7  C6  UNL     1      21.766   6.846  48.114  1.00  0.00     0.051 A 
HETATM    8 BR1  UNL     1      21.784   7.972  46.581  1.00  0.00    -0.048 Br
HETATM    9  N1  UNL     1      23.365   3.698  48.773  1.00  0.00    -0.343 N 
HETATM   10  C7  UNL     1      22.833   2.432  49.263  1.00  0.00     0.110 A 
HETATM   11  C8  UNL     1      22.226   1.348  49.904  1.00  0.00     0.167 A 
HETATM   12  C9  UNL     1      21.318   1.120  51.140  1.00  0.00     0.113 C 
HETATM   13  C10 UNL     1      20.822   2.109  51.985  1.00  0.00     0.023 C 
HETATM   14  C11 UNL     1      20.709   3.620  52.384  1.00  0.00     0.086 C 
HETATM   15  C12 UNL     1      21.662   4.357  51.509  1.00  0.00     0.051 C 
HETATM   16  N2  UNL     1      22.821   4.016  52.126  1.00  0.00    -0.239 NA
HETATM   17  C13 UNL     1      23.760   3.040  51.554  1.00  0.00     0.110 C 
HETATM   18  N3  UNL     1      23.220   2.200  50.694  1.00  0.00    -0.310 N 
HETATM   19  C14 UNL     1      25.150   3.197  52.029  1.00  0.00     0.105 C 
HETATM   20  C15 UNL     1      26.125   2.285  51.319  1.00  0.00     0.175 C 
HETATM   21  O1  UNL     1      27.389   2.427  51.836  1.00  0.00    -0.389 OA
HETATM   22  C16 UNL     1      27.642   2.025  53.101  1.00  0.00     0.186 C 
HETATM   23  C17 UNL     1      27.679   0.551  53.385  1.00  0.00     0.140 C 
HETATM   24  N4  UNL     1      26.541  -0.205  53.078  1.00  0.00    -0.418 N 
HETATM   25  C18 UNL     1      25.346  -0.001  53.796  1.00  0.00     0.126 C 
HETATM   26  C19 UNL     1      24.291  -0.915  53.107  1.00  0.00     0.113 C 
HETATM   27  C20 UNL     1      23.045  -0.336  53.440  1.00  0.00    -0.103 C 
HETATM   28  C21 UNL     1      22.051   0.145  53.695  1.00  0.00    -0.087 C 
HETATM   29  C22 UNL     1      20.810   0.764  53.996  1.00  0.00     0.209 C 
HETATM   30  N5  UNL     1      20.092   1.100  52.754  1.00  0.00    -0.406 N 
HETATM   31  H3  UNL     1      24.222   3.474  48.321  1.00  0.00     0.167 HD
HETATM   32  H16 UNL     1      26.675  -1.121  52.644  1.00  0.00     0.153 HD
HETATM   33  H23 UNL     1      19.169   0.694  52.420  1.00  0.00     0.154 HD
ENDROOT
TORSDOF 0
ENDMDL
MODEL 4
REMARK VINA RESULT:      -9.1      6.407     11.166
REMARK  0 active torsions:
REMARK  status: ('A' for Active; 'I' for Inactive)
ROOT
HETATM    1  F1  UNL     1      24.254   6.180  49.172  1.00  0.00    -0.205 F 
HETATM    2  C1  UNL     1      25.574   6.121  48.931  1.00  0.00     0.134 A 
HETATM    3  C2  UNL     1      26.211   7.265  48.615  1.00  0.00     0.059 A 
HETATM    4  C3  UNL     1      27.524   7.311  48.357  1.00  0.00     0.018 A 
HETATM    5  C4  UNL     1      28.276   6.096  48.421  1.00  0.00     0.047 A 
HETATM    6  C5  UNL     1      27.635   4.943  48.742  1.00  0.00     0.052 A 
HETATM    7  C6  UNL     1      26.294   4.971  48.992  1.00  0.00     0.051 A 
HETATM    8 BR1  UNL     1      25.463   3.318  49.435  1.00  0.00    -0.048 Br
HETATM    9  N1  UNL     1      29.697   5.781  48.177  1.00  0.00    -0.343 N 
HETATM   10  C7  UNL     1      30.599   6.794  48.711  1.00  0.00     0.110 A 
HETATM   11  C8  UNL     1      31.288   7.915  49.185  1.00  0.00     0.167 A 
HETATM   12  C9  UNL     1      30.999   9.425  49.386  1.00  0.00     0.113 C 
HETATM   13  C10 UNL     1      29.797  10.072  49.117  1.00  0.00     0.023 C 
HETATM   14  C11 UNL     1      28.314  10.024  48.612  1.00  0.00     0.086 C 
HETATM   15  C12 UNL     1      28.104   8.657  48.060  1.00  0.00     0.051 C 
HETATM   16  N2  UNL     1      28.769   8.800  46.887  1.00  0.00    -0.239 NA
HETATM   17  C13 UNL     1      30.089   8.197  46.650  1.00  0.00     0.110 C 
HETATM   18  N3  UNL     1      30.772   7.929  47.746  1.00  0.00    -0.310 N 
HETATM   19  C14 UNL     1      30.400   7.976  45.223  1.00  0.00     0.105 C 
HETATM   20  C15 UNL     1      31.692   7.221  45.009  1.00  0.00     0.175 C 
HETATM   21  O1  UNL     1      31.964   7.094  43.670  1.00  0.00    -0.389 OA
HETATM   22  C16 UNL     1      32.265   8.192  42.941  1.00  0.00     0.186 C 
HETATM   23  C17 UNL     1      33.597   8.849  43.161  1.00  0.00     0.140 C 
HETATM   24  N4  UNL     1      33.908   9.283  44.456  1.00  0.00    -0.418 N 
HETATM   25  C18 UNL     1      33.184  10.343  45.036  1.00  0.00     0.126 C 
HETATM   26  C19 UNL     1      33.721  10.459  46.492  1.00  0.00     0.113 C 
HETATM   27  C20 UNL     1      32.683  11.100  47.206  1.00  0.00    -0.103 C 
HETATM   28  C21 UNL     1      31.838  11.597  47.776  1.00  0.00    -0.087 C 
HETATM   29  C22 UNL     1      30.769  12.197  48.490  1.00  0.00     0.209 C 
HETATM   30  N5  UNL     1      30.354  11.334  49.609  1.00  0.00    -0.406 N 
HETATM   31  H3  UNL     1      30.279   5.098  47.751  1.00  0.00     0.167 HD
HETATM   32  H16 UNL     1      34.857   9.120  44.802  1.00  0.00     0.153 HD
HETATM   33  H23 UNL     1      30.427  11.551  50.646  1.00  0.00     0.154 HD
ENDROOT
TORSDOF 0
ENDMDL
MODEL 5
REMARK VINA RESULT:      -8.7      4.177      7.045
REMARK  0 active torsions:
REMARK  status: ('A' for Active; 'I' for Inactive)
ROOT
HETATM    1  F1  UNL     1      20.884  -0.491  54.803  1.00  0.00    -0.205 F 
HETATM    2  C1  UNL     1      20.718   0.194  53.661  1.00  0.00     0.134 A 
HETATM    3  C2  UNL     1      21.648   1.113  53.334  1.00  0.00     0.059 A 
HETATM    4  C3  UNL     1      21.573   1.848  52.216  1.00  0.00     0.018 A 
HETATM    5  C4  UNL     1      20.462   1.647  51.340  1.00  0.00     0.047 A 
HETATM    6  C5  UNL     1      19.525   0.720  51.667  1.00  0.00     0.052 A 
HETATM    7  C6  UNL     1      19.665   0.007  52.822  1.00  0.00     0.051 A 
HETATM    8 BR1  UNL     1      18.316  -1.274  53.217  1.00  0.00    -0.048 Br
HETATM    9  N1  UNL     1      20.056   2.282  50.071  1.00  0.00    -0.343 N 
HETATM   10  C7  UNL     1      21.182   2.528  49.178  1.00  0.00     0.110 A 
HETATM   11  C8  UNL     1      22.388   2.783  48.519  1.00  0.00     0.167 A 
HETATM   12  C9  UNL     1      23.867   3.038  48.911  1.00  0.00     0.113 C 
HETATM   13  C10 UNL     1      24.382   3.042  50.204  1.00  0.00     0.023 C 
HETATM   14  C11 UNL     1      24.169   2.893  51.749  1.00  0.00     0.086 C 
HETATM   15  C12 UNL     1      22.698   2.799  51.962  1.00  0.00     0.051 C 
HETATM   16  N2  UNL     1      22.376   4.104  51.784  1.00  0.00    -0.239 NA
HETATM   17  C13 UNL     1      21.709   4.594  50.568  1.00  0.00     0.110 C 
HETATM   18  N3  UNL     1      21.865   3.822  49.511  1.00  0.00    -0.310 N 
HETATM   19  C14 UNL     1      20.960   5.852  50.761  1.00  0.00     0.105 C 
HETATM   20  C15 UNL     1      20.161   6.257  49.543  1.00  0.00     0.175 C 
HETATM   21  O1  UNL     1      19.533   7.460  49.752  1.00  0.00    -0.389 OA
HETATM   22  C16 UNL     1      20.269   8.586  49.878  1.00  0.00     0.186 C 
HETATM   23  C17 UNL     1      20.940   9.137  48.653  1.00  0.00     0.140 C 
HETATM   24  N4  UNL     1      21.827   8.303  47.960  1.00  0.00    -0.418 N 
HETATM   25  C18 UNL     1      23.038   7.910  48.561  1.00  0.00     0.126 C 
HETATM   26  C19 UNL     1      23.689   6.910  47.560  1.00  0.00     0.113 C 
HETATM   27  C20 UNL     1      24.568   6.135  48.350  1.00  0.00    -0.103 C 
HETATM   28  C21 UNL     1      25.256   5.504  48.993  1.00  0.00    -0.087 C 
HETATM   29  C22 UNL     1      26.097   4.701  49.806  1.00  0.00     0.209 C 
HETATM   30  N5  UNL     1      25.728   3.280  49.678  1.00  0.00    -0.406 N 
HETATM   31  H3  UNL     1      19.254   2.625  49.595  1.00  0.00     0.167 HD
HETATM   32  H16 UNL     1      21.793   8.310  46.938  1.00  0.00     0.153 HD
HETATM   33  H23 UNL     1      26.320   2.500  49.269  1.00  0.00     0.154 HD
ENDROOT
TORSDOF 0
ENDMDL
MODEL 6
REMARK VINA RESULT:      -8.5      3.289      5.346
REMARK  0 active torsions:
REMARK  status: ('A' for Active; 'I' for Inactive)
ROOT
HETATM    1  F1  UNL     1      26.892  -1.084  53.096  1.00  0.00    -0.205 F 
HETATM    2  C1  UNL     1      26.321   0.104  52.843  1.00  0.00     0.134 A 
HETATM    3  C2  UNL     1      25.087   0.110  52.302  1.00  0.00     0.059 A 
HETATM    4  C3  UNL     1      24.434   1.243  52.011  1.00  0.00     0.018 A 
HETATM    5  C4  UNL     1      25.073   2.491  52.286  1.00  0.00     0.047 A 
HETATM    6  C5  UNL     1      26.317   2.486  52.833  1.00  0.00     0.052 A 
HETATM    7  C6  UNL     1      26.924   1.294  53.103  1.00  0.00     0.051 A 
HETATM    8 BR1  UNL     1      28.664   1.364  53.868  1.00  0.00    -0.048 Br
HETATM    9  N1  UNL     1      24.669   3.894  52.075  1.00  0.00    -0.343 N 
HETATM   10  C7  UNL     1      23.265   4.130  52.389  1.00  0.00     0.110 A 
HETATM   11  C8  UNL     1      21.888   4.132  52.627  1.00  0.00     0.167 A 
HETATM   12  C9  UNL     1      20.718   3.117  52.547  1.00  0.00     0.113 C 
HETATM   13  C10 UNL     1      20.821   1.776  52.186  1.00  0.00     0.023 C 
HETATM   14  C11 UNL     1      21.695   0.558  51.733  1.00  0.00     0.086 C 
HETATM   15  C12 UNL     1      23.054   1.097  51.454  1.00  0.00     0.051 C 
HETATM   16  N2  UNL     1      22.803   1.690  50.260  1.00  0.00    -0.239 NA
HETATM   17  C13 UNL     1      22.691   3.149  50.112  1.00  0.00     0.110 C 
HETATM   18  N3  UNL     1      22.385   3.789  51.223  1.00  0.00    -0.310 N 
HETATM   19  C14 UNL     1      22.971   3.636  48.746  1.00  0.00     0.105 C 
HETATM   20  C15 UNL     1      22.998   5.145  48.650  1.00  0.00     0.175 C 
HETATM   21  O1  UNL     1      23.202   5.545  47.353  1.00  0.00    -0.389 OA
HETATM   22  C16 UNL     1      22.248   5.314  46.424  1.00  0.00     0.186 C 
HETATM   23  C17 UNL     1      20.984   6.122  46.486  1.00  0.00     0.140 C 
HETATM   24  N4  UNL     1      20.235   6.077  47.669  1.00  0.00    -0.418 N 
HETATM   25  C18 UNL     1      19.600   4.880  48.055  1.00  0.00     0.126 C 
HETATM   26  C19 UNL     1      18.978   5.176  49.451  1.00  0.00     0.113 C 
HETATM   27  C20 UNL     1      18.833   3.905  50.053  1.00  0.00    -0.103 C 
HETATM   28  C21 UNL     1      18.737   2.885  50.537  1.00  0.00    -0.087 C 
HETATM   29  C22 UNL     1      18.642   1.609  51.149  1.00  0.00     0.209 C 
HETATM   30  N5  UNL     1      19.387   1.593  52.420  1.00  0.00    -0.406 N 
HETATM   31  H3  UNL     1      25.030   4.770  51.773  1.00  0.00     0.167 HD
HETATM   32  H16 UNL     1      19.836   6.952  48.019  1.00  0.00     0.153 HD
HETATM   33  H23 UNL     1      18.986   1.470  53.395  1.00  0.00     0.154 HD
ENDROOT
TORSDOF 0
ENDMDL
MODEL 7
REMARK VINA RESULT:      -8.5      3.530      5.974
REMARK  0 active torsions:
REMARK  status: ('A' for Active; 'I' for Inactive)
ROOT
HETATM    1  F1  UNL     1      26.568   2.450  53.511  1.00  0.00    -0.205 F 
HETATM    2  C1  UNL     1      25.395   2.038  53.005  1.00  0.00     0.134 A 
HETATM    3  C2  UNL     1      24.756   2.854  52.144  1.00  0.00     0.059 A 
HETATM    4  C3  UNL     1      23.581   2.535  51.586  1.00  0.00     0.018 A 
HETATM    5  C4  UNL     1      22.984   1.280  51.920  1.00  0.00     0.047 A 
HETATM    6  C5  UNL     1      23.628   0.456  52.786  1.00  0.00     0.052 A 
HETATM    7  C6  UNL     1      24.823   0.846  53.317  1.00  0.00     0.051 A 
HETATM    8 BR1  UNL     1      25.667  -0.359  54.524  1.00  0.00    -0.048 Br
HETATM    9  N1  UNL     1      21.718   0.633  51.524  1.00  0.00    -0.343 N 
HETATM   10  C7  UNL     1      21.408   0.817  50.112  1.00  0.00     0.110 A 
HETATM   11  C8  UNL     1      21.230   1.194  48.777  1.00  0.00     0.167 A 
HETATM   12  C9  UNL     1      21.652   2.374  47.863  1.00  0.00     0.113 C 
HETATM   13  C10 UNL     1      22.439   3.459  48.238  1.00  0.00     0.023 C 
HETATM   14  C11 UNL     1      23.261   4.225  49.329  1.00  0.00     0.086 C 
HETATM   15  C12 UNL     1      23.009   3.519  50.616  1.00  0.00     0.051 C 
HETATM   16  N2  UNL     1      21.759   3.980  50.867  1.00  0.00    -0.239 NA
HETATM   17  C13 UNL     1      20.561   3.143  50.699  1.00  0.00     0.110 C 
HETATM   18  N3  UNL     1      20.716   2.126  49.875  1.00  0.00    -0.310 N 
HETATM   19  C14 UNL     1      19.406   3.581  51.509  1.00  0.00     0.105 C 
HETATM   20  C15 UNL     1      18.237   2.624  51.437  1.00  0.00     0.175 C 
HETATM   21  O1  UNL     1      17.171   3.105  52.157  1.00  0.00    -0.389 OA
HETATM   22  C16 UNL     1      16.530   4.218  51.740  1.00  0.00     0.186 C 
HETATM   23  C17 UNL     1      15.672   4.126  50.510  1.00  0.00     0.140 C 
HETATM   24  N4  UNL     1      16.273   3.691  49.322  1.00  0.00    -0.418 N 
HETATM   25  C18 UNL     1      17.250   4.489  48.695  1.00  0.00     0.126 C 
HETATM   26  C19 UNL     1      17.765   3.642  47.495  1.00  0.00     0.113 C 
HETATM   27  C20 UNL     1      19.049   4.162  47.215  1.00  0.00    -0.103 C 
HETATM   28  C21 UNL     1      20.085   4.572  47.008  1.00  0.00    -0.087 C 
HETATM   29  C22 UNL     1      21.392   5.071  46.770  1.00  0.00     0.209 C 
HETATM   30  N5  UNL     1      22.382   3.985  46.872  1.00  0.00    -0.406 N 
HETATM   31  H3  UNL     1      20.966   0.102  51.899  1.00  0.00     0.167 HD
HETATM   32  H16 UNL     1      15.753   3.038  48.732  1.00  0.00     0.153 HD
HETATM   33  H23 UNL     1      22.992   3.601  46.093  1.00  0.00     0.154 HD
ENDROOT
TORSDOF 0
ENDMDL
MODEL 8
REMARK VINA RESULT:      -8.4      7.348     11.018
REMARK  0 active torsions:
REMARK  status: ('A' for Active; 'I' for Inactive)
ROOT
HETATM    1  F1  UNL     1      24.278   8.759  45.694  1.00  0.00    -0.205 F 
HETATM    2  C1  UNL     1      25.306   8.547  46.532  1.00  0.00     0.134 A 
HETATM    3  C2  UNL     1      26.553   8.764  46.069  1.00  0.00     0.059 A 
HETATM    4  C3  UNL     1      27.643   8.580  46.825  1.00  0.00     0.018 A 
HETATM    5  C4  UNL     1      27.474   8.137  48.173  1.00  0.00     0.047 A 
HETATM    6  C5  UNL     1      26.217   7.920  48.641  1.00  0.00     0.052 A 
HETATM    7  C6  UNL     1      25.151   8.127  47.814  1.00  0.00     0.051 A 
HETATM    8 BR1  UNL     1      23.422   7.803  48.537  1.00  0.00    -0.048 Br
HETATM    9  N1  UNL     1      28.428   7.815  49.252  1.00  0.00    -0.343 N 
HETATM   10  C7  UNL     1      29.544   8.751  49.316  1.00  0.00     0.110 A 
HETATM   11  C8  UNL     1      30.581   9.673  49.146  1.00  0.00     0.167 A 
HETATM   12  C9  UNL     1      31.194  10.494  47.981  1.00  0.00     0.113 C 
HETATM   13  C10 UNL     1      30.752  10.498  46.661  1.00  0.00     0.023 C 
HETATM   14  C11 UNL     1      29.759   9.987  45.562  1.00  0.00     0.086 C 
HETATM   15  C12 UNL     1      28.960   8.900  46.192  1.00  0.00     0.051 C 
HETATM   16  N2  UNL     1      29.892   7.915  46.172  1.00  0.00    -0.239 NA
HETATM   17  C13 UNL     1      30.600   7.475  47.384  1.00  0.00     0.110 C 
HETATM   18  N3  UNL     1      30.629   8.366  48.354  1.00  0.00    -0.310 N 
HETATM   19  C14 UNL     1      31.127   6.097  47.302  1.00  0.00     0.105 C 
HETATM   20  C15 UNL     1      31.717   5.612  48.607  1.00  0.00     0.175 C 
HETATM   21  O1  UNL     1      32.245   4.353  48.462  1.00  0.00    -0.389 OA
HETATM   22  C16 UNL     1      33.334   4.169  47.683  1.00  0.00     0.186 C 
HETATM   23  C17 UNL     1      34.657   4.680  48.178  1.00  0.00     0.140 C 
HETATM   24  N4  UNL     1      34.761   6.043  48.483  1.00  0.00    -0.418 N 
HETATM   25  C18 UNL     1      34.669   7.003  47.456  1.00  0.00     0.126 C 
HETATM   26  C19 UNL     1      34.708   8.381  48.178  1.00  0.00     0.113 C 
HETATM   27  C20 UNL     1      34.094   9.276  47.272  1.00  0.00    -0.103 C 
HETATM   28  C21 UNL     1      33.583   9.984  46.549  1.00  0.00    -0.087 C 
HETATM   29  C22 UNL     1      32.920  10.861  45.652  1.00  0.00     0.209 C 
HETATM   30  N5  UNL     1      31.767  11.495  46.314  1.00  0.00    -0.406 N 
HETATM   31  H3  UNL     1      28.590   7.151  49.974  1.00  0.00     0.167 HD
HETATM   32  H16 UNL     1      35.275   6.308  49.326  1.00  0.00     0.153 HD
HETATM   33  H23 UNL     1      31.642  12.526  46.532  1.00  0.00     0.154 HD
ENDROOT
TORSDOF 0
ENDMDL
MODEL 9
REMARK VINA RESULT:      -8.4      4.474      7.517
REMARK  0 active torsions:
REMARK  status: ('A' for Active; 'I' for Inactive)
ROOT
HETATM    1  F1  UNL     1      16.157  -1.351  52.711  1.00  0.00    -0.205 F 
HETATM    2  C1  UNL     1      16.908  -0.629  51.863  1.00  0.00     0.134 A 
HETATM    3  C2  UNL     1      17.993  -0.001  52.357  1.00  0.00     0.059 A 
HETATM    4  C3  UNL     1      18.804   0.743  51.594  1.00  0.00     0.018 A 
HETATM    5  C4  UNL     1      18.504   0.874  50.203  1.00  0.00     0.047 A 
HETATM    6  C5  UNL     1      17.411   0.240  49.704  1.00  0.00     0.052 A 
HETATM    7  C6  UNL     1      16.628  -0.501  50.540  1.00  0.00     0.051 A 
HETATM    8 BR1  UNL     1      15.115  -1.361  49.772  1.00  0.00    -0.048 Br
HETATM    9  N1  UNL     1      19.147   1.618  49.102  1.00  0.00    -0.343 N 
HETATM   10  C7  UNL     1      20.602   1.553  49.154  1.00  0.00     0.110 A 
HETATM   11  C8  UNL     1      21.969   1.472  49.435  1.00  0.00     0.167 A 
HETATM   12  C9  UNL     1      22.864   1.297  50.691  1.00  0.00     0.113 C 
HETATM   13  C10 UNL     1      22.416   1.137  51.999  1.00  0.00     0.023 C 
HETATM   14  C11 UNL     1      21.237   1.029  53.025  1.00  0.00     0.086 C 
HETATM   15  C12 UNL     1      19.994   1.347  52.269  1.00  0.00     0.051 C 
HETATM   16  N2  UNL     1      20.137   2.692  52.185  1.00  0.00    -0.239 NA
HETATM   17  C13 UNL     1      20.524   3.367  50.937  1.00  0.00     0.110 C 
HETATM   18  N3  UNL     1      21.159   2.599  50.074  1.00  0.00    -0.310 N 
HETATM   19  C14 UNL     1      20.103   4.782  50.866  1.00  0.00     0.105 C 
HETATM   20  C15 UNL     1      20.376   5.413  49.519  1.00  0.00     0.175 C 
HETATM   21  O1  UNL     1      20.023   6.740  49.524  1.00  0.00    -0.389 OA
HETATM   22  C16 UNL     1      20.718   7.613  50.286  1.00  0.00     0.186 C 
HETATM   23  C17 UNL     1      22.113   7.974  49.863  1.00  0.00     0.140 C 
HETATM   24  N4  UNL     1      23.042   6.937  49.715  1.00  0.00    -0.418 N 
HETATM   25  C18 UNL     1      23.472   6.211  50.843  1.00  0.00     0.126 C 
HETATM   26  C19 UNL     1      24.390   5.086  50.283  1.00  0.00     0.113 C 
HETATM   27  C20 UNL     1      24.375   4.084  51.280  1.00  0.00    -0.103 C 
HETATM   28  C21 UNL     1      24.343   3.276  52.074  1.00  0.00    -0.087 C 
HETATM   29  C22 UNL     1      24.279   2.257  53.060  1.00  0.00     0.209 C 
HETATM   30  N5  UNL     1      23.797   0.999  52.465  1.00  0.00    -0.406 N 
HETATM   31  H3  UNL     1      18.929   2.178  48.311  1.00  0.00     0.167 HD
HETATM   32  H16 UNL     1      23.673   6.969  48.911  1.00  0.00     0.153 HD
HETATM   33  H23 UNL     1      24.338   0.091  52.365  1.00  0.00     0.154 HD
ENDROOT
TORSDOF 0
ENDMDL
