MODEL 1
REMARK VINA RESULT:      -8.0      0.000      0.000
REMARK  5 active torsions:
REMARK  status: ('A' for Active; 'I' for Inactive)
REMARK    1  A    between atoms: C5_5  and  C6_6 
REMARK    2  A    between atoms: C6_6  and  C7_7 
REMARK    3  A    between atoms: C7_7  and  C8_8 
REMARK    4  A    between atoms: N2_16  and  S1_17 
REMARK    5  A    between atoms: C16_19  and  N3_20 
ROOT
HETATM    1  C1  UNL     1      20.014   0.973  52.666  1.00  0.00     0.048 C 
HETATM    2  C2  UNL     1      19.905   0.514  51.219  1.00  0.00    -0.066 C 
HETATM    3  C3  UNL     1      21.199   0.220  51.206  1.00  0.00    -0.013 C 
HETATM    4  C4  UNL     1      22.368   0.294  52.188  1.00  0.00     0.098 C 
HETATM    5  C5  UNL     1      23.011   1.624  52.175  1.00  0.00     0.091 C 
HETATM    6  N1  UNL     1      22.726   2.716  51.718  1.00  0.00    -0.322 NA
HETATM    7  N2  UNL     1      22.715   3.955  51.370  1.00  0.00    -0.174 N 
HETATM    8  C15 UNL     1      21.472   4.061  50.582  1.00  0.00     0.193 C 
HETATM    9  C16 UNL     1      20.315   4.174  49.740  1.00  0.00     0.155 C 
HETATM   10  O1  UNL     1      19.110   4.077  50.491  1.00  0.00    -0.331 OA
HETATM   11  C17 UNL     1      19.130   3.065  51.559  1.00  0.00     0.205 C 
HETATM   12  C18 UNL     1      17.944   2.144  51.438  1.00  0.00     0.000 C 
HETATM   13  C19 UNL     1      18.625   0.900  51.255  1.00  0.00     0.004 C 
ENDROOT
BRANCH   5  14
HETATM   14  C6  UNL     1      24.243   1.498  53.044  1.00  0.00     0.075 C 
BRANCH  14  15
HETATM   15  C7  UNL     1      24.427   0.168  53.626  1.00  0.00     0.045 C 
BRANCH  15  16
HETATM   16  C8  UNL     1      25.884  -0.223  53.632  1.00  0.00    -0.058 A 
HETATM   17  C9  UNL     1      26.427  -1.164  52.716  1.00  0.00     0.007 A 
HETATM   18  C10 UNL     1      27.778  -1.352  52.827  1.00  0.00     0.007 A 
HETATM   19  C11 UNL     1      28.593  -0.721  53.719  1.00  0.00    -0.062 A 
HETATM   20  C12 UNL     1      30.067  -0.963  53.748  1.00  0.00     0.048 C 
HETATM   21  C13 UNL     1      28.027   0.152  54.550  1.00  0.00     0.007 A 
HETATM   22  C14 UNL     1      26.659   0.466  54.578  1.00  0.00     0.007 A 
ENDBRANCH  15  16
ENDBRANCH  14  15
ENDBRANCH   5  14
BRANCH   7  23
HETATM   23  S1  UNL     1      23.534   5.503  51.611  1.00  0.00    -0.030 SA
HETATM   24  H18 UNL     1      24.568   5.649  50.656  1.00  0.00     0.129 HD
ENDBRANCH   7  23
BRANCH   9  25
HETATM   25  N3  UNL     1      20.533   4.364  48.359  1.00  0.00    -0.379 N 
HETATM   26  H20 UNL     1      21.484   4.844  48.261  1.00  0.00     0.158 HD
HETATM   27  H21 UNL     1      20.671   4.492  47.362  1.00  0.00     0.158 HD
ENDBRANCH   9  25
TORSDOF 5
ENDMDL
MODEL 2
REMARK VINA RESULT:      -7.9      4.492      6.284
REMARK  5 active torsions:
REMARK  status: ('A' for Active; 'I' for Inactive)
REMARK    1  A    between atoms: C5_5  and  C6_6 
REMARK    2  A    between atoms: C6_6  and  C7_7 
REMARK    3  A    between atoms: C7_7  and  C8_8 
REMARK    4  A    between atoms: N2_16  and  S1_17 
REMARK    5  A    between atoms: C16_19  and  N3_20 
ROOT
HETATM    1  C1  UNL     1      22.175   2.147  50.867  1.00  0.00     0.048 C 
HETATM    2  C2  UNL     1      21.733   2.541  52.269  1.00  0.00    -0.066 C 
HETATM    3  C3  UNL     1      22.852   3.234  52.437  1.00  0.00    -0.013 C 
HETATM    4  C4  UNL     1      24.104   3.544  51.616  1.00  0.00     0.098 C 
HETATM    5  C5  UNL     1      25.129   2.490  51.763  1.00  0.00     0.091 C 
HETATM    6  N1  UNL     1      25.149   1.362  52.221  1.00  0.00    -0.322 NA
HETATM    7  N2  UNL     1      25.486   0.184  52.611  1.00  0.00    -0.174 N 
HETATM    8  C15 UNL     1      24.248  -0.319  53.237  1.00  0.00     0.193 C 
HETATM    9  C16 UNL     1      23.085  -0.802  53.927  1.00  0.00     0.155 C 
HETATM   10  O1  UNL     1      22.024  -1.092  53.025  1.00  0.00    -0.331 OA
HETATM   11  C17 UNL     1      21.864  -0.123  51.931  1.00  0.00     0.205 C 
HETATM   12  C18 UNL     1      20.441   0.369  51.863  1.00  0.00     0.000 C 
HETATM   13  C19 UNL     1      20.659   1.765  52.084  1.00  0.00     0.004 C 
ENDROOT
BRANCH   5  14
HETATM   14  C6  UNL     1      26.362   3.008  51.055  1.00  0.00     0.075 C 
BRANCH  14  15
HETATM   15  C7  UNL     1      26.234   3.056  49.597  1.00  0.00     0.045 C 
BRANCH  15  16
HETATM   16  C8  UNL     1      26.527   4.439  49.074  1.00  0.00    -0.058 A 
HETATM   17  C9  UNL     1      25.539   5.459  49.011  1.00  0.00     0.007 A 
HETATM   18  C10 UNL     1      25.996   6.669  48.566  1.00  0.00     0.007 A 
HETATM   19  C11 UNL     1      27.280   6.941  48.197  1.00  0.00    -0.062 A 
HETATM   20  C12 UNL     1      27.700   8.305  47.754  1.00  0.00     0.048 C 
HETATM   21  C13 UNL     1      28.161   5.947  48.280  1.00  0.00     0.007 A 
HETATM   22  C14 UNL     1      27.868   4.644  48.712  1.00  0.00     0.007 A 
ENDBRANCH  15  16
ENDBRANCH  14  15
ENDBRANCH   5  14
BRANCH   7  23
HETATM   23  S1  UNL     1      26.780  -1.019  52.537  1.00  0.00    -0.030 SA
HETATM   24  H18 UNL     1      27.939  -0.513  53.172  1.00  0.00     0.129 HD
ENDBRANCH   7  23
BRANCH   9  25
HETATM   25  N3  UNL     1      23.165  -0.918  55.332  1.00  0.00    -0.379 N 
HETATM   26  H20 UNL     1      22.850  -1.911  55.576  1.00  0.00     0.158 HD
HETATM   27  H21 UNL     1      23.229  -0.982  56.342  1.00  0.00     0.158 HD
ENDBRANCH   9  25
TORSDOF 5
ENDMDL
MODEL 3
REMARK VINA RESULT:      -7.7      2.490      3.683
REMARK  5 active torsions:
REMARK  status: ('A' for Active; 'I' for Inactive)
REMARK    1  A    between atoms: C5_5  and  C6_6 
REMARK    2  A    between atoms: C6_6  and  C7_7 
REMARK    3  A    between atoms: C7_7  and  C8_8 
REMARK    4  A    between atoms: N2_16  and  S1_17 
REMARK    5  A    between atoms: C16_19  and  N3_20 
ROOT
HETATM    1  C1  UNL     1      23.920   2.955  49.432  1.00  0.00     0.048 C 
HETATM    2  C2  UNL     1      22.749   3.906  49.633  1.00  0.00    -0.066 C 
HETATM    3  C3  UNL     1      23.153   4.155  50.873  1.00  0.00    -0.013 C 
HETATM    4  C4  UNL     1      24.296   3.705  51.783  1.00  0.00     0.098 C 
HETATM    5  C5  UNL     1      23.968   2.454  52.497  1.00  0.00     0.091 C 
HETATM    6  N1  UNL     1      23.099   1.606  52.398  1.00  0.00    -0.322 NA
HETATM    7  N2  UNL     1      22.344   0.576  52.549  1.00  0.00    -0.174 N 
HETATM    8  C15 UNL     1      21.295   0.789  51.534  1.00  0.00     0.193 C 
HETATM    9  C16 UNL     1      20.215   1.013  50.614  1.00  0.00     0.155 C 
HETATM   10  O1  UNL     1      20.638   0.862  49.264  1.00  0.00    -0.331 OA
HETATM   11  C17 UNL     1      21.966   1.422  48.969  1.00  0.00     0.205 C 
HETATM   12  C18 UNL     1      21.897   2.352  47.786  1.00  0.00     0.000 C 
HETATM   13  C19 UNL     1      22.336   3.563  48.408  1.00  0.00     0.004 C 
ENDROOT
BRANCH   5  14
HETATM   14  C6  UNL     1      25.094   2.230  53.482  1.00  0.00     0.075 C 
BRANCH  14  15
HETATM   15  C7  UNL     1      26.429   2.403  52.907  1.00  0.00     0.045 C 
BRANCH  15  16
HETATM   16  C8  UNL     1      27.221   1.122  52.987  1.00  0.00    -0.058 A 
HETATM   17  C9  UNL     1      28.535   1.067  53.528  1.00  0.00     0.007 A 
HETATM   18  C10 UNL     1      29.079  -0.187  53.576  1.00  0.00     0.007 A 
HETATM   19  C11 UNL     1      28.467  -1.330  53.157  1.00  0.00    -0.062 A 
HETATM   20  C12 UNL     1      29.124  -2.666  53.279  1.00  0.00     0.048 C 
HETATM   21  C13 UNL     1      27.237  -1.216  52.661  1.00  0.00     0.007 A 
HETATM   22  C14 UNL     1      26.528  -0.011  52.535  1.00  0.00     0.007 A 
ENDBRANCH  15  16
ENDBRANCH  14  15
ENDBRANCH   5  14
BRANCH   7  23
HETATM   23  S1  UNL     1      22.210  -0.974  53.389  1.00  0.00    -0.030 SA
HETATM   24  H18 UNL     1      21.340  -1.831  52.673  1.00  0.00     0.129 HD
ENDBRANCH   7  23
BRANCH   9  25
HETATM   25  N3  UNL     1      18.952   1.328  51.160  1.00  0.00    -0.379 N 
HETATM   26  H20 UNL     1      18.853   0.753  52.058  1.00  0.00     0.158 HD
HETATM   27  H21 UNL     1      18.041   1.566  51.536  1.00  0.00     0.158 HD
ENDBRANCH   9  25
TORSDOF 5
ENDMDL
MODEL 4
REMARK VINA RESULT:      -7.6      2.112      3.215
REMARK  5 active torsions:
REMARK  status: ('A' for Active; 'I' for Inactive)
REMARK    1  A    between atoms: C5_5  and  C6_6 
REMARK    2  A    between atoms: C6_6  and  C7_7 
REMARK    3  A    between atoms: C7_7  and  C8_8 
REMARK    4  A    between atoms: N2_16  and  S1_17 
REMARK    5  A    between atoms: C16_19  and  N3_20 
ROOT
HETATM    1  C1  UNL     1      21.645   1.161  50.952  1.00  0.00     0.048 C 
HETATM    2  C2  UNL     1      20.590   1.000  49.866  1.00  0.00    -0.066 C 
HETATM    3  C3  UNL     1      21.413   1.538  48.974  1.00  0.00    -0.013 C 
HETATM    4  C4  UNL     1      22.832   2.107  48.969  1.00  0.00     0.098 C 
HETATM    5  C5  UNL     1      22.850   3.534  49.350  1.00  0.00     0.091 C 
HETATM    6  N1  UNL     1      22.047   4.307  49.841  1.00  0.00    -0.322 NA
HETATM    7  N2  UNL     1      21.450   5.337  50.330  1.00  0.00    -0.174 N 
HETATM    8  C15 UNL     1      20.091   4.830  50.597  1.00  0.00     0.193 C 
HETATM    9  C16 UNL     1      18.738   4.388  50.787  1.00  0.00     0.155 C 
HETATM   10  O1  UNL     1      18.636   3.462  51.862  1.00  0.00    -0.331 OA
HETATM   11  C17 UNL     1      19.732   2.484  51.938  1.00  0.00     0.205 C 
HETATM   12  C18 UNL     1      19.186   1.081  52.006  1.00  0.00     0.000 C 
HETATM   13  C19 UNL     1      19.768   0.540  50.817  1.00  0.00     0.004 C 
ENDROOT
BRANCH   5  14
HETATM   14  C6  UNL     1      24.270   4.005  49.128  1.00  0.00     0.075 C 
BRANCH  14  15
HETATM   15  C7  UNL     1      24.955   4.427  50.351  1.00  0.00     0.045 C 
BRANCH  15  16
HETATM   16  C8  UNL     1      25.254   3.244  51.238  1.00  0.00    -0.058 A 
HETATM   17  C9  UNL     1      24.500   2.953  52.407  1.00  0.00     0.007 A 
HETATM   18  C10 UNL     1      24.874   1.809  53.056  1.00  0.00     0.007 A 
HETATM   19  C11 UNL     1      25.877   0.972  52.667  1.00  0.00    -0.062 A 
HETATM   20  C12 UNL     1      26.196  -0.278  53.420  1.00  0.00     0.048 C 
HETATM   21  C13 UNL     1      26.547   1.296  51.564  1.00  0.00     0.007 A 
HETATM   22  C14 UNL     1      26.301   2.431  50.776  1.00  0.00     0.007 A 
ENDBRANCH  15  16
ENDBRANCH  14  15
ENDBRANCH   5  14
BRANCH   7  23
HETATM   23  S1  UNL     1      21.710   6.993  50.892  1.00  0.00    -0.030 SA
HETATM   24  H18 UNL     1      22.929   7.068  51.607  1.00  0.00     0.129 HD
ENDBRANCH   7  23
BRANCH   9  25
HETATM   25  N3  UNL     1      17.754   4.919  49.925  1.00  0.00    -0.379 N 
HETATM   26  H20 UNL     1      17.528   4.155  49.210  1.00  0.00     0.158 HD
HETATM   27  H21 UNL     1      17.048   5.318  49.316  1.00  0.00     0.158 HD
ENDBRANCH   9  25
TORSDOF 5
ENDMDL
MODEL 5
REMARK VINA RESULT:      -7.6      2.132      3.236
REMARK  5 active torsions:
REMARK  status: ('A' for Active; 'I' for Inactive)
REMARK    1  A    between atoms: C5_5  and  C6_6 
REMARK    2  A    between atoms: C6_6  and  C7_7 
REMARK    3  A    between atoms: C7_7  and  C8_8 
REMARK    4  A    between atoms: N2_16  and  S1_17 
REMARK    5  A    between atoms: C16_19  and  N3_20 
ROOT
HETATM    1  C1  UNL     1      23.795   2.933  49.203  1.00  0.00     0.048 C 
HETATM    2  C2  UNL     1      23.184   4.324  49.297  1.00  0.00    -0.066 C 
HETATM    3  C3  UNL     1      23.630   4.446  50.540  1.00  0.00    -0.013 C 
HETATM    4  C4  UNL     1      24.424   3.590  51.528  1.00  0.00     0.098 C 
HETATM    5  C5  UNL     1      23.546   2.677  52.289  1.00  0.00     0.091 C 
HETATM    6  N1  UNL     1      22.388   2.311  52.191  1.00  0.00    -0.322 NA
HETATM    7  N2  UNL     1      21.243   1.749  52.357  1.00  0.00    -0.174 N 
HETATM    8  C15 UNL     1      20.428   2.344  51.281  1.00  0.00     0.193 C 
HETATM    9  C16 UNL     1      19.589   2.971  50.298  1.00  0.00     0.155 C 
HETATM   10  O1  UNL     1      19.925   2.552  48.980  1.00  0.00    -0.331 OA
HETATM   11  C17 UNL     1      21.367   2.426  48.723  1.00  0.00     0.205 C 
HETATM   12  C18 UNL     1      21.755   3.203  47.492  1.00  0.00     0.000 C 
HETATM   13  C19 UNL     1      22.685   4.121  48.072  1.00  0.00     0.004 C 
ENDROOT
BRANCH   5  14
HETATM   14  C6  UNL     1      24.425   2.034  53.338  1.00  0.00     0.075 C 
BRANCH  14  15
HETATM   15  C7  UNL     1      24.468   0.572  53.264  1.00  0.00     0.045 C 
BRANCH  15  16
HETATM   16  C8  UNL     1      25.886   0.068  53.367  1.00  0.00    -0.058 A 
HETATM   17  C9  UNL     1      26.349  -1.067  52.647  1.00  0.00     0.007 A 
HETATM   18  C10 UNL     1      27.678  -1.344  52.815  1.00  0.00     0.007 A 
HETATM   19  C11 UNL     1      28.541  -0.633  53.593  1.00  0.00    -0.062 A 
HETATM   20  C12 UNL     1      29.989  -0.989  53.691  1.00  0.00     0.048 C 
HETATM   21  C13 UNL     1      28.051   0.421  54.241  1.00  0.00     0.007 A 
HETATM   22  C14 UNL     1      26.715   0.849  54.187  1.00  0.00     0.007 A 
ENDBRANCH  15  16
ENDBRANCH  14  15
ENDBRANCH   5  14
BRANCH   7  23
HETATM   23  S1  UNL     1      20.400   0.489  53.267  1.00  0.00    -0.030 SA
HETATM   24  H18 UNL     1      21.326  -0.492  53.695  1.00  0.00     0.129 HD
ENDBRANCH   7  23
BRANCH   9  25
HETATM   25  N3  UNL     1      18.597   3.861  50.763  1.00  0.00    -0.379 N 
HETATM   26  H20 UNL     1      17.670   3.536  50.339  1.00  0.00     0.158 HD
HETATM   27  H21 UNL     1      17.899   4.511  51.107  1.00  0.00     0.158 HD
ENDBRANCH   9  25
TORSDOF 5
ENDMDL
MODEL 6
REMARK VINA RESULT:      -7.5      2.999      7.040
REMARK  5 active torsions:
REMARK  status: ('A' for Active; 'I' for Inactive)
REMARK    1  A    between atoms: C5_5  and  C6_6 
REMARK    2  A    between atoms: C6_6  and  C7_7 
REMARK    3  A    between atoms: C7_7  and  C8_8 
REMARK    4  A    between atoms: N2_16  and  S1_17 
REMARK    5  A    between atoms: C16_19  and  N3_20 
ROOT
HETATM    1  C1  UNL     1      24.683   1.584  51.235  1.00  0.00     0.048 C 
HETATM    2  C2  UNL     1      25.399   2.356  52.335  1.00  0.00    -0.066 C 
HETATM    3  C3  UNL     1      24.350   2.207  53.134  1.00  0.00    -0.013 C 
HETATM    4  C4  UNL     1      22.970   1.555  53.052  1.00  0.00     0.098 C 
HETATM    5  C5  UNL     1      21.969   2.468  52.461  1.00  0.00     0.091 C 
HETATM    6  N1  UNL     1      22.013   3.527  51.862  1.00  0.00    -0.322 NA
HETATM    7  N2  UNL     1      21.731   4.609  51.227  1.00  0.00    -0.174 N 
HETATM    8  C15 UNL     1      23.055   5.233  51.042  1.00  0.00     0.193 C 
HETATM    9  C16 UNL     1      24.319   5.904  50.923  1.00  0.00     0.155 C 
HETATM   10  O1  UNL     1      25.177   5.245  49.998  1.00  0.00    -0.331 OA
HETATM   11  C17 UNL     1      25.143   3.776  50.067  1.00  0.00     0.205 C 
HETATM   12  C18 UNL     1      26.536   3.221  50.211  1.00  0.00     0.000 C 
HETATM   13  C19 UNL     1      26.397   2.549  51.465  1.00  0.00     0.004 C 
ENDROOT
BRANCH   5  14
HETATM   14  C6  UNL     1      20.634   1.770  52.607  1.00  0.00     0.075 C 
BRANCH  14  15
HETATM   15  C7  UNL     1      20.524   0.531  51.836  1.00  0.00     0.045 C 
BRANCH  15  16
HETATM   16  C8  UNL     1      19.123  -0.023  51.902  1.00  0.00    -0.058 A 
HETATM   17  C9  UNL     1      18.181   0.153  50.852  1.00  0.00     0.007 A 
HETATM   18  C10 UNL     1      16.979  -0.468  51.056  1.00  0.00     0.007 A 
HETATM   19  C11 UNL     1      16.647  -1.208  52.151  1.00  0.00    -0.062 A 
HETATM   20  C12 UNL     1      15.319  -1.880  52.274  1.00  0.00     0.048 C 
HETATM   21  C13 UNL     1      17.571  -1.339  53.100  1.00  0.00     0.007 A 
HETATM   22  C14 UNL     1      18.854  -0.771  53.059  1.00  0.00     0.007 A 
ENDBRANCH  15  16
ENDBRANCH  14  15
ENDBRANCH   5  14
BRANCH   7  23
HETATM   23  S1  UNL     1      20.420   5.482  50.423  1.00  0.00    -0.030 SA
HETATM   24  H18 UNL     1      19.683   6.221  51.379  1.00  0.00     0.129 HD
ENDBRANCH   7  23
BRANCH   9  25
HETATM   25  N3  UNL     1      24.512   7.068  51.698  1.00  0.00    -0.379 N 
HETATM   26  H20 UNL     1      24.588   7.885  51.011  1.00  0.00     0.158 HD
HETATM   27  H21 UNL     1      24.651   7.892  52.272  1.00  0.00     0.158 HD
ENDBRANCH   9  25
TORSDOF 5
ENDMDL
MODEL 7
REMARK VINA RESULT:      -7.4      9.879     12.427
REMARK  5 active torsions:
REMARK  status: ('A' for Active; 'I' for Inactive)
REMARK    1  A    between atoms: C5_5  and  C6_6 
REMARK    2  A    between atoms: C6_6  and  C7_7 
REMARK    3  A    between atoms: C7_7  and  C8_8 
REMARK    4  A    between atoms: N2_16  and  S1_17 
REMARK    5  A    between atoms: C16_19  and  N3_20 
ROOT
HETATM    1  C1  UNL     1      32.803   4.360  47.272  1.00  0.00     0.048 C 
HETATM    2  C2  UNL     1      34.119   5.016  47.667  1.00  0.00    -0.066 C 
HETATM    3  C3  UNL     1      33.469   5.867  48.450  1.00  0.00    -0.013 C 
HETATM    4  C4  UNL     1      32.015   6.139  48.837  1.00  0.00     0.098 C 
HETATM    5  C5  UNL     1      31.352   7.040  47.872  1.00  0.00     0.091 C 
HETATM    6  N1  UNL     1      31.619   7.463  46.761  1.00  0.00    -0.322 NA
HETATM    7  N2  UNL     1      31.610   8.064  45.624  1.00  0.00    -0.174 N 
HETATM    8  C15 UNL     1      32.909   7.679  45.041  1.00  0.00     0.193 C 
HETATM    9  C16 UNL     1      34.202   7.390  44.487  1.00  0.00     0.155 C 
HETATM   10  O1  UNL     1      34.308   6.028  44.089  1.00  0.00    -0.331 OA
HETATM   11  C17 UNL     1      33.688   5.067  45.014  1.00  0.00     0.205 C 
HETATM   12  C18 UNL     1      34.668   3.985  45.388  1.00  0.00     0.000 C 
HETATM   13  C19 UNL     1      34.721   4.190  46.803  1.00  0.00     0.004 C 
ENDROOT
BRANCH   5  14
HETATM   14  C6  UNL     1      29.999   7.362  48.467  1.00  0.00     0.075 C 
BRANCH  14  15
HETATM   15  C7  UNL     1      28.883   7.187  47.536  1.00  0.00     0.045 C 
BRANCH  15  16
HETATM   16  C8  UNL     1      27.785   6.361  48.158  1.00  0.00    -0.058 A 
HETATM   17  C9  UNL     1      26.457   6.844  48.311  1.00  0.00     0.007 A 
HETATM   18  C10 UNL     1      25.579   5.938  48.840  1.00  0.00     0.007 A 
HETATM   19  C11 UNL     1      25.887   4.664  49.211  1.00  0.00    -0.062 A 
HETATM   20  C12 UNL     1      24.854   3.729  49.751  1.00  0.00     0.048 C 
HETATM   21  C13 UNL     1      27.147   4.267  49.043  1.00  0.00     0.007 A 
HETATM   22  C14 UNL     1      28.178   5.062  48.518  1.00  0.00     0.007 A 
ENDBRANCH  15  16
ENDBRANCH  14  15
ENDBRANCH   5  14
BRANCH   7  23
HETATM   23  S1  UNL     1      30.595   9.008  44.526  1.00  0.00    -0.030 SA
HETATM   24  H18 UNL     1      30.324   8.253  43.359  1.00  0.00     0.129 HD
ENDBRANCH   7  23
BRANCH   9  25
HETATM   25  N3  UNL     1      35.130   8.451  44.414  1.00  0.00    -0.379 N 
HETATM   26  H20 UNL     1      35.089   8.827  43.413  1.00  0.00     0.158 HD
HETATM   27  H21 UNL     1      35.801   9.210  44.382  1.00  0.00     0.158 HD
ENDBRANCH   9  25
TORSDOF 5
ENDMDL
MODEL 8
REMARK VINA RESULT:      -7.3      3.528      7.708
REMARK  5 active torsions:
REMARK  status: ('A' for Active; 'I' for Inactive)
REMARK    1  A    between atoms: C5_5  and  C6_6 
REMARK    2  A    between atoms: C6_6  and  C7_7 
REMARK    3  A    between atoms: C7_7  and  C8_8 
REMARK    4  A    between atoms: N2_16  and  S1_17 
REMARK    5  A    between atoms: C16_19  and  N3_20 
ROOT
HETATM    1  C1  UNL     1      22.806  -1.421  53.377  1.00  0.00     0.048 C 
HETATM    2  C2  UNL     1      22.947  -0.537  54.608  1.00  0.00    -0.066 C 
HETATM    3  C3  UNL     1      21.639  -0.314  54.609  1.00  0.00    -0.013 C 
HETATM    4  C4  UNL     1      20.438  -0.730  53.759  1.00  0.00     0.098 C 
HETATM    5  C5  UNL     1      20.252   0.167  52.599  1.00  0.00     0.091 C 
HETATM    6  N1  UNL     1      20.921   1.029  52.058  1.00  0.00    -0.322 NA
HETATM    7  N2  UNL     1      21.364   1.958  51.287  1.00  0.00    -0.174 N 
HETATM    8  C15 UNL     1      22.666   2.292  51.894  1.00  0.00     0.193 C 
HETATM    9  C16 UNL     1      23.897   2.697  52.513  1.00  0.00     0.155 C 
HETATM   10  O1  UNL     1      24.906   1.704  52.371  1.00  0.00    -0.331 OA
HETATM   11  C17 UNL     1      24.434   0.321  52.539  1.00  0.00     0.205 C 
HETATM   12  C18 UNL     1      25.277  -0.406  53.555  1.00  0.00     0.000 C 
HETATM   13  C19 UNL     1      24.269  -0.724  54.518  1.00  0.00     0.004 C 
ENDROOT
BRANCH   5  14
HETATM   14  C6  UNL     1      18.944  -0.245  51.961  1.00  0.00     0.075 C 
BRANCH  14  15
HETATM   15  C7  UNL     1      17.816  -0.292  52.894  1.00  0.00     0.045 C 
BRANCH  15  16
HETATM   16  C8  UNL     1      17.178  -1.658  52.902  1.00  0.00    -0.058 A 
HETATM   17  C9  UNL     1      17.737  -2.760  53.605  1.00  0.00     0.007 A 
HETATM   18  C10 UNL     1      16.993  -3.906  53.551  1.00  0.00     0.007 A 
HETATM   19  C11 UNL     1      15.806  -4.048  52.897  1.00  0.00    -0.062 A 
HETATM   20  C12 UNL     1      15.041  -5.331  52.920  1.00  0.00     0.048 C 
HETATM   21  C13 UNL     1      15.331  -2.980  52.259  1.00  0.00     0.007 A 
HETATM   22  C14 UNL     1      15.961  -1.727  52.206  1.00  0.00     0.007 A 
ENDBRANCH  15  16
ENDBRANCH  14  15
ENDBRANCH   5  14
BRANCH   7  23
HETATM   23  S1  UNL     1      21.049   2.816  49.774  1.00  0.00    -0.030 SA
HETATM   24  H18 UNL     1      20.905   1.884  48.718  1.00  0.00     0.129 HD
ENDBRANCH   7  23
BRANCH   9  25
HETATM   25  N3  UNL     1      23.926   3.965  53.133  1.00  0.00    -0.379 N 
HETATM   26  H20 UNL     1      24.940   4.139  53.428  1.00  0.00     0.158 HD
HETATM   27  H21 UNL     1      23.927   4.877  53.576  1.00  0.00     0.158 HD
ENDBRANCH   9  25
TORSDOF 5
ENDMDL
MODEL 9
REMARK VINA RESULT:      -7.2      3.125      8.122
REMARK  5 active torsions:
REMARK  status: ('A' for Active; 'I' for Inactive)
REMARK    1  A    between atoms: C5_5  and  C6_6 
REMARK    2  A    between atoms: C6_6  and  C7_7 
REMARK    3  A    between atoms: C7_7  and  C8_8 
REMARK    4  A    between atoms: N2_16  and  S1_17 
REMARK    5  A    between atoms: C16_19  and  N3_20 
ROOT
HETATM    1  C1  UNL     1      21.933  -1.508  53.804  1.00  0.00     0.048 C 
HETATM    2  C2  UNL     1      21.980  -0.493  54.938  1.00  0.00    -0.066 C 
HETATM    3  C3  UNL     1      20.843   0.046  54.515  1.00  0.00    -0.013 C 
HETATM    4  C4  UNL     1      19.854  -0.193  53.374  1.00  0.00     0.098 C 
HETATM    5  C5  UNL     1      20.259   0.514  52.141  1.00  0.00     0.091 C 
HETATM    6  N1  UNL     1      21.270   1.078  51.761  1.00  0.00    -0.322 NA
HETATM    7  N2  UNL     1      22.155   1.724  51.089  1.00  0.00    -0.174 N 
HETATM    8  C15 UNL     1      23.281   1.819  52.038  1.00  0.00     0.193 C 
HETATM    9  C16 UNL     1      24.358   2.001  52.969  1.00  0.00     0.155 C 
HETATM   10  O1  UNL     1      25.035   0.778  53.232  1.00  0.00    -0.331 OA
HETATM   11  C17 UNL     1      24.158  -0.395  53.364  1.00  0.00     0.205 C 
HETATM   12  C18 UNL     1      24.443  -1.128  54.649  1.00  0.00     0.000 C 
HETATM   13  C19 UNL     1      23.163  -1.017  55.277  1.00  0.00     0.004 C 
ENDROOT
BRANCH   5  14
HETATM   14  C6  UNL     1      19.114   0.341  51.168  1.00  0.00     0.075 C 
BRANCH  14  15
HETATM   15  C7  UNL     1      18.040  -0.523  51.661  1.00  0.00     0.045 C 
BRANCH  15  16
HETATM   16  C8  UNL     1      16.797   0.277  51.958  1.00  0.00    -0.058 A 
HETATM   17  C9  UNL     1      15.709  -0.249  52.707  1.00  0.00     0.007 A 
HETATM   18  C10 UNL     1      14.690   0.637  52.930  1.00  0.00     0.007 A 
HETATM   19  C11 UNL     1      14.658   1.929  52.499  1.00  0.00    -0.062 A 
HETATM   20  C12 UNL     1      13.517   2.839  52.819  1.00  0.00     0.048 C 
HETATM   21  C13 UNL     1      15.707   2.366  51.804  1.00  0.00     0.007 A 
HETATM   22  C14 UNL     1      16.835   1.596  51.481  1.00  0.00     0.007 A 
ENDBRANCH  15  16
ENDBRANCH  14  15
ENDBRANCH   5  14
BRANCH   7  23
HETATM   23  S1  UNL     1      22.528   2.366  49.484  1.00  0.00    -0.030 SA
HETATM   24  H18 UNL     1      23.783   1.875  49.053  1.00  0.00     0.129 HD
ENDBRANCH   7  23
BRANCH   9  25
HETATM   25  N3  UNL     1      24.581   3.307  53.457  1.00  0.00    -0.379 N 
HETATM   26  H20 UNL     1      23.919   3.953  52.919  1.00  0.00     0.158 HD
HETATM   27  H21 UNL     1      24.756   4.238  53.820  1.00  0.00     0.158 HD
ENDBRANCH   9  25
TORSDOF 5
ENDMDL
