MODEL 1
REMARK VINA RESULT:      -7.6      0.000      0.000
REMARK  6 active torsions:
REMARK  status: ('A' for Active; 'I' for Inactive)
REMARK    1  A    between atoms: C6_6  and  O1_7 
REMARK    2  A    between atoms: O1_7  and  C7_8 
REMARK    3  A    between atoms: C8_10  and  C9_11 
REMARK    4  A    between atoms: C9_11  and  N1_12 
REMARK    5  A    between atoms: N1_12  and  C11_14 
REMARK    6  A    between atoms: C11_14  and  C12_15 
ROOT
HETATM    1  C1  UNL     1      22.499  -1.041  54.097  1.00  0.00     0.048 C 
HETATM    2  C2  UNL     1      23.695  -0.317  53.596  1.00  0.00    -0.061 A 
HETATM    3  C3  UNL     1      24.913  -0.939  53.436  1.00  0.00     0.016 A 
HETATM    4  C4  UNL     1      25.986  -0.191  52.962  1.00  0.00    -0.027 A 
HETATM    5  C5  UNL     1      27.235  -0.981  52.837  1.00  0.00     0.051 C 
HETATM    6  C6  UNL     1      25.832   1.162  52.653  1.00  0.00     0.092 A 
HETATM    7  C8  UNL     1      24.592   1.782  52.820  1.00  0.00    -0.006 A 
HETATM    8  C18 UNL     1      23.559   1.009  53.291  1.00  0.00     0.018 A 
ENDROOT
BRANCH   7   9
HETATM    9  C9  UNL     1      24.656   3.211  52.445  1.00  0.00     0.158 C 
BRANCH   9  10
HETATM   10  N1  UNL     1      23.758   3.462  51.396  1.00  0.00    -0.409 N 
HETATM   11  C10 UNL     1      22.573   4.170  51.638  1.00  0.00     0.143 C 
BRANCH  10  12
HETATM   12  C11 UNL     1      24.141   3.161  50.078  1.00  0.00     0.155 C 
BRANCH  12  13
HETATM   13  C12 UNL     1      25.195   4.050  49.536  1.00  0.00    -0.041 A 
HETATM   14  C13 UNL     1      24.866   5.331  49.133  1.00  0.00     0.012 A 
HETATM   15  C14 UNL     1      25.868   6.162  48.622  1.00  0.00     0.043 A 
HETATM   16  C15 UNL     1      27.193   5.754  48.500  1.00  0.00     0.116 A 
HETATM   17  F1  UNL     1      28.126   6.572  48.008  1.00  0.00    -0.206 F 
HETATM   18  C16 UNL     1      27.419   4.468  48.925  1.00  0.00     0.043 A 
HETATM   19  C17 UNL     1      26.496   3.597  49.435  1.00  0.00     0.012 A 
ENDBRANCH  12  13
ENDBRANCH  10  12
ENDBRANCH   9  10
ENDBRANCH   7   9
BRANCH   6  20
HETATM   20  O1  UNL     1      27.042   1.685  52.201  1.00  0.00    -0.285 OA
BRANCH  20  21
HETATM   21  C7  UNL     1      28.026   2.146  53.033  1.00  0.00     0.403 C 
HETATM   22  O2  UNL     1      28.144   2.753  54.137  1.00  0.00    -0.276 OA
ENDBRANCH  20  21
ENDBRANCH   6  20
TORSDOF 6
ENDMDL
MODEL 2
REMARK VINA RESULT:      -7.6      3.965      5.878
REMARK  6 active torsions:
REMARK  status: ('A' for Active; 'I' for Inactive)
REMARK    1  A    between atoms: C6_6  and  O1_7 
REMARK    2  A    between atoms: O1_7  and  C7_8 
REMARK    3  A    between atoms: C8_10  and  C9_11 
REMARK    4  A    between atoms: C9_11  and  N1_12 
REMARK    5  A    between atoms: N1_12  and  C11_14 
REMARK    6  A    between atoms: C11_14  and  C12_15 
ROOT
HETATM    1  C1  UNL     1      21.370   1.342  48.656  1.00  0.00     0.048 C 
HETATM    2  C2  UNL     1      21.366   0.984  50.097  1.00  0.00    -0.061 A 
HETATM    3  C3  UNL     1      20.232   0.535  50.736  1.00  0.00     0.016 A 
HETATM    4  C4  UNL     1      20.310   0.219  52.088  1.00  0.00    -0.027 A 
HETATM    5  C5  UNL     1      19.020  -0.250  52.651  1.00  0.00     0.051 C 
HETATM    6  C6  UNL     1      21.514   0.352  52.784  1.00  0.00     0.092 A 
HETATM    7  C8  UNL     1      22.657   0.807  52.125  1.00  0.00    -0.006 A 
HETATM    8  C18 UNL     1      22.537   1.110  50.791  1.00  0.00     0.018 A 
ENDROOT
BRANCH   7   9
HETATM    9  C9  UNL     1      23.810   0.881  53.048  1.00  0.00     0.158 C 
BRANCH   9  10
HETATM   10  N1  UNL     1      24.650   1.939  52.668  1.00  0.00    -0.409 N 
HETATM   11  C10 UNL     1      24.526   3.192  53.284  1.00  0.00     0.143 C 
BRANCH  10  12
HETATM   12  C11 UNL     1      25.727   1.682  51.804  1.00  0.00     0.155 C 
BRANCH  12  13
HETATM   13  C12 UNL     1      26.869   0.992  52.448  1.00  0.00    -0.041 A 
HETATM   14  C13 UNL     1      26.931  -0.389  52.427  1.00  0.00     0.012 A 
HETATM   15  C14 UNL     1      28.013  -1.031  53.038  1.00  0.00     0.043 A 
HETATM   16  C15 UNL     1      29.039  -0.336  53.672  1.00  0.00     0.116 A 
HETATM   17  F1  UNL     1      30.059  -0.979  54.246  1.00  0.00    -0.206 F 
HETATM   18  C16 UNL     1      28.888   1.029  53.640  1.00  0.00     0.043 A 
HETATM   19  C17 UNL     1      27.862   1.728  53.064  1.00  0.00     0.012 A 
ENDBRANCH  12  13
ENDBRANCH  10  12
ENDBRANCH   9  10
ENDBRANCH   7   9
BRANCH   6  20
HETATM   20  O1  UNL     1      21.335  -0.024  54.114  1.00  0.00    -0.285 OA
BRANCH  20  21
HETATM   21  C7  UNL     1      21.676  -1.254  54.606  1.00  0.00     0.403 C 
HETATM   22  O2  UNL     1      22.507  -1.772  55.407  1.00  0.00    -0.276 OA
ENDBRANCH  20  21
ENDBRANCH   6  20
TORSDOF 6
ENDMDL
MODEL 3
REMARK VINA RESULT:      -7.6      3.809      5.482
REMARK  6 active torsions:
REMARK  status: ('A' for Active; 'I' for Inactive)
REMARK    1  A    between atoms: C6_6  and  O1_7 
REMARK    2  A    between atoms: O1_7  and  C7_8 
REMARK    3  A    between atoms: C8_10  and  C9_11 
REMARK    4  A    between atoms: C9_11  and  N1_12 
REMARK    5  A    between atoms: N1_12  and  C11_14 
REMARK    6  A    between atoms: C11_14  and  C12_15 
ROOT
HETATM    1  C1  UNL     1      23.565  -1.482  55.500  1.00  0.00     0.048 C 
HETATM    2  C2  UNL     1      22.765  -0.828  54.434  1.00  0.00    -0.061 A 
HETATM    3  C3  UNL     1      21.402  -0.990  54.339  1.00  0.00     0.016 A 
HETATM    4  C4  UNL     1      20.723  -0.343  53.311  1.00  0.00    -0.027 A 
HETATM    5  C5  UNL     1      19.263  -0.604  53.325  1.00  0.00     0.051 C 
HETATM    6  C6  UNL     1      21.410   0.457  52.395  1.00  0.00     0.092 A 
HETATM    7  C8  UNL     1      22.792   0.615  52.502  1.00  0.00    -0.006 A 
HETATM    8  C18 UNL     1      23.424  -0.042  53.530  1.00  0.00     0.018 A 
ENDROOT
BRANCH   7   9
HETATM    9  C9  UNL     1      23.313   1.490  51.430  1.00  0.00     0.158 C 
BRANCH   9  10
HETATM   10  N1  UNL     1      24.365   2.272  51.931  1.00  0.00    -0.409 N 
HETATM   11  C10 UNL     1      24.202   2.989  53.125  1.00  0.00     0.143 C 
BRANCH  10  12
HETATM   12  C11 UNL     1      25.631   2.184  51.330  1.00  0.00     0.155 C 
BRANCH  12  13
HETATM   13  C12 UNL     1      26.614   1.386  52.100  1.00  0.00    -0.041 A 
HETATM   14  C13 UNL     1      27.596   2.033  52.828  1.00  0.00     0.012 A 
HETATM   15  C14 UNL     1      28.519   1.271  53.551  1.00  0.00     0.043 A 
HETATM   16  C15 UNL     1      28.494  -0.121  53.572  1.00  0.00     0.116 A 
HETATM   17  F1  UNL     1      29.390  -0.819  54.273  1.00  0.00    -0.206 F 
HETATM   18  C16 UNL     1      27.483  -0.668  52.819  1.00  0.00     0.043 A 
HETATM   19  C17 UNL     1      26.546   0.008  52.087  1.00  0.00     0.012 A 
ENDBRANCH  12  13
ENDBRANCH  10  12
ENDBRANCH   9  10
ENDBRANCH   7   9
BRANCH   6  20
HETATM   20  O1  UNL     1      20.515   0.991  51.470  1.00  0.00    -0.285 OA
BRANCH  20  21
HETATM   21  C7  UNL     1      19.846   2.169  51.656  1.00  0.00     0.403 C 
HETATM   22  O2  UNL     1      19.830   3.149  52.457  1.00  0.00    -0.276 OA
ENDBRANCH  20  21
ENDBRANCH   6  20
TORSDOF 6
ENDMDL
MODEL 4
REMARK VINA RESULT:      -7.3      3.491      5.735
REMARK  6 active torsions:
REMARK  status: ('A' for Active; 'I' for Inactive)
REMARK    1  A    between atoms: C6_6  and  O1_7 
REMARK    2  A    between atoms: O1_7  and  C7_8 
REMARK    3  A    between atoms: C8_10  and  C9_11 
REMARK    4  A    between atoms: C9_11  and  N1_12 
REMARK    5  A    between atoms: N1_12  and  C11_14 
REMARK    6  A    between atoms: C11_14  and  C12_15 
ROOT
HETATM    1  C1  UNL     1      21.496  -0.757  53.534  1.00  0.00     0.048 C 
HETATM    2  C2  UNL     1      21.975   0.198  52.503  1.00  0.00    -0.061 A 
HETATM    3  C3  UNL     1      21.469   0.208  51.224  1.00  0.00     0.016 A 
HETATM    4  C4  UNL     1      21.970   1.134  50.315  1.00  0.00    -0.027 A 
HETATM    5  C5  UNL     1      21.339   1.036  48.976  1.00  0.00     0.051 C 
HETATM    6  C6  UNL     1      22.966   2.037  50.693  1.00  0.00     0.092 A 
HETATM    7  C8  UNL     1      23.472   2.018  51.994  1.00  0.00    -0.006 A 
HETATM    8  C18 UNL     1      22.951   1.087  52.859  1.00  0.00     0.018 A 
ENDROOT
BRANCH   7   9
HETATM    9  C9  UNL     1      24.519   3.046  52.174  1.00  0.00     0.158 C 
BRANCH   9  10
HETATM   10  N1  UNL     1      25.785   2.443  52.121  1.00  0.00    -0.409 N 
HETATM   11  C10 UNL     1      26.533   2.480  50.937  1.00  0.00     0.143 C 
BRANCH  10  12
HETATM   12  C11 UNL     1      26.368   1.968  53.308  1.00  0.00     0.155 C 
BRANCH  12  13
HETATM   13  C12 UNL     1      26.972   0.620  53.189  1.00  0.00    -0.041 A 
HETATM   14  C13 UNL     1      26.206  -0.432  52.723  1.00  0.00     0.012 A 
HETATM   15  C14 UNL     1      26.785  -1.700  52.615  1.00  0.00     0.043 A 
HETATM   16  C15 UNL     1      28.110  -1.953  52.959  1.00  0.00     0.116 A 
HETATM   17  F1  UNL     1      28.633  -3.176  52.844  1.00  0.00    -0.206 F 
HETATM   18  C16 UNL     1      28.787  -0.846  53.411  1.00  0.00     0.043 A 
HETATM   19  C17 UNL     1      28.291   0.422  53.544  1.00  0.00     0.012 A 
ENDBRANCH  12  13
ENDBRANCH  10  12
ENDBRANCH   9  10
ENDBRANCH   7   9
BRANCH   6  20
HETATM   20  O1  UNL     1      23.298   2.855  49.614  1.00  0.00    -0.285 OA
BRANCH  20  21
HETATM   21  C7  UNL     1      22.809   4.121  49.445  1.00  0.00     0.403 C 
HETATM   22  O2  UNL     1      21.780   4.800  49.731  1.00  0.00    -0.276 OA
ENDBRANCH  20  21
ENDBRANCH   6  20
TORSDOF 6
ENDMDL
MODEL 5
REMARK VINA RESULT:      -7.1      1.805      2.887
REMARK  6 active torsions:
REMARK  status: ('A' for Active; 'I' for Inactive)
REMARK    1  A    between atoms: C6_6  and  O1_7 
REMARK    2  A    between atoms: O1_7  and  C7_8 
REMARK    3  A    between atoms: C8_10  and  C9_11 
REMARK    4  A    between atoms: C9_11  and  N1_12 
REMARK    5  A    between atoms: N1_12  and  C11_14 
REMARK    6  A    between atoms: C11_14  and  C12_15 
ROOT
HETATM    1  C1  UNL     1      19.354   0.486  51.444  1.00  0.00     0.048 C 
HETATM    2  C2  UNL     1      20.700   0.387  52.064  1.00  0.00    -0.061 A 
HETATM    3  C3  UNL     1      20.929  -0.352  53.202  1.00  0.00     0.016 A 
HETATM    4  C4  UNL     1      22.219  -0.395  53.721  1.00  0.00    -0.027 A 
HETATM    5  C5  UNL     1      22.326  -1.225  54.946  1.00  0.00     0.051 C 
HETATM    6  C6  UNL     1      23.261   0.297  53.100  1.00  0.00     0.092 A 
HETATM    7  C8  UNL     1      23.017   1.043  51.946  1.00  0.00    -0.006 A 
HETATM    8  C18 UNL     1      21.730   1.060  51.467  1.00  0.00     0.018 A 
ENDROOT
BRANCH   7   9
HETATM    9  C9  UNL     1      24.252   1.698  51.463  1.00  0.00     0.158 C 
BRANCH   9  10
HETATM   10  N1  UNL     1      23.974   3.027  51.113  1.00  0.00    -0.409 N 
HETATM   11  C10 UNL     1      23.900   4.016  52.104  1.00  0.00     0.143 C 
BRANCH  10  12
HETATM   12  C11 UNL     1      23.953   3.388  49.755  1.00  0.00     0.155 C 
BRANCH  12  13
HETATM   13  C12 UNL     1      25.090   4.242  49.337  1.00  0.00    -0.041 A 
HETATM   14  C13 UNL     1      26.370   3.719  49.334  1.00  0.00     0.012 A 
HETATM   15  C14 UNL     1      27.436   4.532  48.939  1.00  0.00     0.043 A 
HETATM   16  C15 UNL     1      27.266   5.856  48.544  1.00  0.00     0.116 A 
HETATM   17  F1  UNL     1      28.305   6.606  48.171  1.00  0.00    -0.206 F 
HETATM   18  C16 UNL     1      25.960   6.282  48.581  1.00  0.00     0.043 A 
HETATM   19  C17 UNL     1      24.867   5.549  48.955  1.00  0.00     0.012 A 
ENDBRANCH  12  13
ENDBRANCH  10  12
ENDBRANCH   9  10
ENDBRANCH   7   9
BRANCH   6  20
HETATM   20  O1  UNL     1      24.447   0.098  53.805  1.00  0.00    -0.285 OA
BRANCH  20  21
HETATM   21  C7  UNL     1      25.471  -0.691  53.358  1.00  0.00     0.403 C 
HETATM   22  O2  UNL     1      26.456  -1.339  53.817  1.00  0.00    -0.276 OA
ENDBRANCH  20  21
ENDBRANCH   6  20
TORSDOF 6
ENDMDL
MODEL 6
REMARK VINA RESULT:      -7.0      2.509      3.756
REMARK  6 active torsions:
REMARK  status: ('A' for Active; 'I' for Inactive)
REMARK    1  A    between atoms: C6_6  and  O1_7 
REMARK    2  A    between atoms: O1_7  and  C7_8 
REMARK    3  A    between atoms: C8_10  and  C9_11 
REMARK    4  A    between atoms: C9_11  and  N1_12 
REMARK    5  A    between atoms: N1_12  and  C11_14 
REMARK    6  A    between atoms: C11_14  and  C12_15 
ROOT
HETATM    1  C1  UNL     1      26.104  -0.425  52.925  1.00  0.00     0.048 C 
HETATM    2  C2  UNL     1      24.697   0.041  53.017  1.00  0.00    -0.061 A 
HETATM    3  C3  UNL     1      23.737  -0.662  53.708  1.00  0.00     0.016 A 
HETATM    4  C4  UNL     1      22.440  -0.159  53.747  1.00  0.00    -0.027 A 
HETATM    5  C5  UNL     1      21.508  -1.013  54.522  1.00  0.00     0.051 C 
HETATM    6  C6  UNL     1      22.120   1.037  53.099  1.00  0.00     0.092 A 
HETATM    7  C8  UNL     1      23.102   1.741  52.402  1.00  0.00    -0.006 A 
HETATM    8  C18 UNL     1      24.368   1.210  52.387  1.00  0.00     0.018 A 
ENDROOT
BRANCH   7   9
HETATM    9  C9  UNL     1      22.545   2.966  51.789  1.00  0.00     0.158 C 
BRANCH   9  10
HETATM   10  N1  UNL     1      22.668   2.891  50.393  1.00  0.00    -0.409 N 
HETATM   11  C10 UNL     1      22.338   1.707  49.720  1.00  0.00     0.143 C 
BRANCH  10  12
HETATM   12  C11 UNL     1      22.946   4.061  49.666  1.00  0.00     0.155 C 
BRANCH  12  13
HETATM   13  C12 UNL     1      24.388   4.292  49.416  1.00  0.00    -0.041 A 
HETATM   14  C13 UNL     1      24.812   5.525  48.957  1.00  0.00     0.012 A 
HETATM   15  C14 UNL     1      26.174   5.733  48.725  1.00  0.00     0.043 A 
HETATM   16  C15 UNL     1      27.133   4.746  48.937  1.00  0.00     0.116 A 
HETATM   17  F1  UNL     1      28.427   4.976  48.705  1.00  0.00    -0.206 F 
HETATM   18  C16 UNL     1      26.614   3.558  49.391  1.00  0.00     0.043 A 
HETATM   19  C17 UNL     1      25.298   3.279  49.642  1.00  0.00     0.012 A 
ENDBRANCH  12  13
ENDBRANCH  10  12
ENDBRANCH   9  10
ENDBRANCH   7   9
BRANCH   6  20
HETATM   20  O1  UNL     1      20.769   1.326  53.284  1.00  0.00    -0.285 OA
BRANCH  20  21
HETATM   21  C7  UNL     1      19.795   1.006  52.378  1.00  0.00     0.403 C 
HETATM   22  O2  UNL     1      19.565   0.148  51.477  1.00  0.00    -0.276 OA
ENDBRANCH  20  21
ENDBRANCH   6  20
TORSDOF 6
ENDMDL
MODEL 7
REMARK VINA RESULT:      -7.0      3.284      6.402
REMARK  6 active torsions:
REMARK  status: ('A' for Active; 'I' for Inactive)
REMARK    1  A    between atoms: C6_6  and  O1_7 
REMARK    2  A    between atoms: O1_7  and  C7_8 
REMARK    3  A    between atoms: C8_10  and  C9_11 
REMARK    4  A    between atoms: C9_11  and  N1_12 
REMARK    5  A    between atoms: N1_12  and  C11_14 
REMARK    6  A    between atoms: C11_14  and  C12_15 
ROOT
HETATM    1  C1  UNL     1      26.859   4.012  49.249  1.00  0.00     0.048 C 
HETATM    2  C2  UNL     1      25.655   3.446  49.908  1.00  0.00    -0.061 A 
HETATM    3  C3  UNL     1      24.424   3.429  49.294  1.00  0.00     0.016 A 
HETATM    4  C4  UNL     1      23.344   2.880  49.978  1.00  0.00    -0.027 A 
HETATM    5  C5  UNL     1      22.080   2.926  49.203  1.00  0.00     0.051 C 
HETATM    6  C6  UNL     1      23.505   2.355  51.262  1.00  0.00     0.092 A 
HETATM    7  C8  UNL     1      24.759   2.378  51.875  1.00  0.00    -0.006 A 
HETATM    8  C18 UNL     1      25.798   2.929  51.166  1.00  0.00     0.018 A 
ENDROOT
BRANCH   7   9
HETATM    9  C9  UNL     1      24.701   1.783  53.228  1.00  0.00     0.158 C 
BRANCH   9  10
HETATM   10  N1  UNL     1      25.018   0.418  53.155  1.00  0.00    -0.409 N 
HETATM   11  C10 UNL     1      24.297  -0.513  53.916  1.00  0.00     0.143 C 
BRANCH  10  12
HETATM   12  C11 UNL     1      25.931  -0.023  52.184  1.00  0.00     0.155 C 
BRANCH  12  13
HETATM   13  C12 UNL     1      27.262  -0.389  52.724  1.00  0.00    -0.041 A 
HETATM   14  C13 UNL     1      27.649  -1.716  52.743  1.00  0.00     0.012 A 
HETATM   15  C14 UNL     1      28.906  -2.051  53.255  1.00  0.00     0.043 A 
HETATM   16  C15 UNL     1      29.794  -1.099  53.750  1.00  0.00     0.116 A 
HETATM   17  F1  UNL     1      30.987  -1.452  54.233  1.00  0.00    -0.206 F 
HETATM   18  C16 UNL     1      29.318   0.188  53.689  1.00  0.00     0.043 A 
HETATM   19  C17 UNL     1      28.105   0.593  53.204  1.00  0.00     0.012 A 
ENDBRANCH  12  13
ENDBRANCH  10  12
ENDBRANCH   9  10
ENDBRANCH   7   9
BRANCH   6  20
HETATM   20  O1  UNL     1      22.286   1.869  51.731  1.00  0.00    -0.285 OA
BRANCH  20  21
HETATM   21  C7  UNL     1      21.445   2.584  52.538  1.00  0.00     0.403 C 
HETATM   22  O2  UNL     1      20.234   2.948  52.583  1.00  0.00    -0.276 OA
ENDBRANCH  20  21
ENDBRANCH   6  20
TORSDOF 6
ENDMDL
MODEL 8
REMARK VINA RESULT:      -6.8      2.987      6.022
REMARK  6 active torsions:
REMARK  status: ('A' for Active; 'I' for Inactive)
REMARK    1  A    between atoms: C6_6  and  O1_7 
REMARK    2  A    between atoms: O1_7  and  C7_8 
REMARK    3  A    between atoms: C8_10  and  C9_11 
REMARK    4  A    between atoms: C9_11  and  N1_12 
REMARK    5  A    between atoms: N1_12  and  C11_14 
REMARK    6  A    between atoms: C11_14  and  C12_15 
ROOT
HETATM    1  C1  UNL     1      21.151   1.716  48.626  1.00  0.00     0.048 C 
HETATM    2  C2  UNL     1      22.309   2.591  48.939  1.00  0.00    -0.061 A 
HETATM    3  C3  UNL     1      22.473   3.826  48.354  1.00  0.00     0.016 A 
HETATM    4  C4  UNL     1      23.586   4.586  48.701  1.00  0.00    -0.027 A 
HETATM    5  C5  UNL     1      23.641   5.891  47.997  1.00  0.00     0.051 C 
HETATM    6  C6  UNL     1      24.516   4.107  49.626  1.00  0.00     0.092 A 
HETATM    7  C8  UNL     1      24.339   2.854  50.214  1.00  0.00    -0.006 A 
HETATM    8  C18 UNL     1      23.229   2.135  49.843  1.00  0.00     0.018 A 
ENDROOT
BRANCH   7   9
HETATM    9  C9  UNL     1      25.440   2.544  51.151  1.00  0.00     0.158 C 
BRANCH   9  10
HETATM   10  N1  UNL     1      24.912   2.246  52.416  1.00  0.00    -0.409 N 
HETATM   11  C10 UNL     1      24.244   3.236  53.150  1.00  0.00     0.143 C 
BRANCH  10  12
HETATM   12  C11 UNL     1      24.896   0.912  52.856  1.00  0.00     0.155 C 
BRANCH  12  13
HETATM   13  C12 UNL     1      26.234   0.368  53.187  1.00  0.00    -0.041 A 
HETATM   14  C13 UNL     1      26.992   0.974  54.172  1.00  0.00     0.012 A 
HETATM   15  C14 UNL     1      28.253   0.453  54.476  1.00  0.00     0.043 A 
HETATM   16  C15 UNL     1      28.785  -0.658  53.828  1.00  0.00     0.116 A 
HETATM   17  F1  UNL     1      29.993  -1.131  54.142  1.00  0.00    -0.206 F 
HETATM   18  C16 UNL     1      27.958  -1.188  52.867  1.00  0.00     0.043 A 
HETATM   19  C17 UNL     1      26.716  -0.737  52.513  1.00  0.00     0.012 A 
ENDBRANCH  12  13
ENDBRANCH  10  12
ENDBRANCH   9  10
ENDBRANCH   7   9
BRANCH   6  20
HETATM   20  O1  UNL     1      25.532   5.046  49.803  1.00  0.00    -0.285 OA
BRANCH  20  21
HETATM   21  C7  UNL     1      26.649   5.111  49.017  1.00  0.00     0.403 C 
HETATM   22  O2  UNL     1      27.793   4.578  48.927  1.00  0.00    -0.276 OA
ENDBRANCH  20  21
ENDBRANCH   6  20
TORSDOF 6
ENDMDL
MODEL 9
REMARK VINA RESULT:      -6.7      2.553      3.314
REMARK  6 active torsions:
REMARK  status: ('A' for Active; 'I' for Inactive)
REMARK    1  A    between atoms: C6_6  and  O1_7 
REMARK    2  A    between atoms: O1_7  and  C7_8 
REMARK    3  A    between atoms: C8_10  and  C9_11 
REMARK    4  A    between atoms: C9_11  and  N1_12 
REMARK    5  A    between atoms: N1_12  and  C11_14 
REMARK    6  A    between atoms: C11_14  and  C12_15 
ROOT
HETATM    1  C1  UNL     1      22.286  -0.771  53.624  1.00  0.00     0.048 C 
HETATM    2  C2  UNL     1      23.611  -0.196  53.278  1.00  0.00    -0.061 A 
HETATM    3  C3  UNL     1      24.748  -0.967  53.210  1.00  0.00     0.016 A 
HETATM    4  C4  UNL     1      25.952  -0.352  52.878  1.00  0.00    -0.027 A 
HETATM    5  C5  UNL     1      27.096  -1.296  52.842  1.00  0.00     0.051 C 
HETATM    6  C6  UNL     1      26.005   1.019  52.618  1.00  0.00     0.092 A 
HETATM    7  C8  UNL     1      24.844   1.790  52.689  1.00  0.00    -0.006 A 
HETATM    8  C18 UNL     1      23.677   1.146  53.021  1.00  0.00     0.018 A 
ENDROOT
BRANCH   7   9
HETATM    9  C9  UNL     1      25.128   3.210  52.387  1.00  0.00     0.158 C 
BRANCH   9  10
HETATM   10  N1  UNL     1      24.244   3.666  51.397  1.00  0.00    -0.409 N 
HETATM   11  C10 UNL     1      23.291   4.647  51.703  1.00  0.00     0.143 C 
BRANCH  10  12
HETATM   12  C11 UNL     1      24.444   3.269  50.064  1.00  0.00     0.155 C 
BRANCH  12  13
HETATM   13  C12 UNL     1      23.191   3.072  49.297  1.00  0.00    -0.041 A 
HETATM   14  C13 UNL     1      22.817   4.008  48.350  1.00  0.00     0.012 A 
HETATM   15  C14 UNL     1      21.634   3.813  47.632  1.00  0.00     0.043 A 
HETATM   16  C15 UNL     1      20.808   2.710  47.828  1.00  0.00     0.116 A 
HETATM   17  F1  UNL     1      19.684   2.553  47.125  1.00  0.00    -0.206 F 
HETATM   18  C16 UNL     1      21.265   1.839  48.787  1.00  0.00     0.043 A 
HETATM   19  C17 UNL     1      22.407   1.960  49.529  1.00  0.00     0.012 A 
ENDBRANCH  12  13
ENDBRANCH  10  12
ENDBRANCH   9  10
ENDBRANCH   7   9
BRANCH   6  20
HETATM   20  O1  UNL     1      27.312   1.391  52.311  1.00  0.00    -0.285 OA
BRANCH  20  21
HETATM   21  C7  UNL     1      28.219   1.810  53.246  1.00  0.00     0.403 C 
HETATM   22  O2  UNL     1      28.342   2.703  54.134  1.00  0.00    -0.276 OA
ENDBRANCH  20  21
ENDBRANCH   6  20
TORSDOF 6
ENDMDL
