MODEL 1
REMARK VINA RESULT:      -9.9      0.000      0.000
REMARK  2 active torsions:
REMARK  status: ('A' for Active; 'I' for Inactive)
REMARK    1  A    between atoms: C3_3  and  C4_4 
REMARK    2  A    between atoms: C5_5  and  C6_6 
ROOT
HETATM    1  C6  UNL     1      23.811   4.074  50.135  1.00  0.00    -0.015 A 
HETATM    2  C7  UNL     1      24.611   2.853  50.386  1.00  0.00     0.005 A 
HETATM    3  C8  UNL     1      23.981   1.950  51.261  1.00  0.00     0.056 A 
HETATM    4  C9  UNL     1      23.279   1.194  52.088  1.00  0.00    -0.034 A 
HETATM    5  C10 UNL     1      22.749   2.377  51.696  1.00  0.00     0.070 A 
HETATM    6  C11 UNL     1      22.853   3.546  50.962  1.00  0.00     0.034 A 
HETATM    7  N1  UNL     1      21.994   4.597  50.503  1.00  0.00    -0.359 N 
HETATM    8  C12 UNL     1      20.936   3.865  49.686  1.00  0.00     0.152 C 
HETATM    9  C13 UNL     1      20.033   4.975  49.201  1.00  0.00     0.073 C 
HETATM   10  C14 UNL     1      21.743   3.446  48.437  1.00  0.00     0.229 C 
HETATM   11  O1  UNL     1      22.875   2.602  48.811  1.00  0.00    -0.372 OA
HETATM   12  C15 UNL     1      22.800   1.809  50.025  1.00  0.00     0.102 A 
HETATM   13  C16 UNL     1      21.664   0.973  50.024  1.00  0.00     0.062 C 
HETATM   14  C17 UNL     1      20.624   1.786  50.827  1.00  0.00     0.142 C 
HETATM   15  O2  UNL     1      20.246   2.925  50.269  1.00  0.00    -0.353 OA
HETATM   16  C18 UNL     1      21.324   2.159  52.196  1.00  0.00     0.071 C 
HETATM   17  C19 UNL     1      21.357   1.120  53.162  1.00  0.00    -0.039 A 
HETATM   18  C20 UNL     1      20.703   0.473  54.178  1.00  0.00     0.008 A 
HETATM   19  C21 UNL     1      21.218  -0.683  54.805  1.00  0.00     0.001 A 
HETATM   20  C22 UNL     1      22.434  -1.273  54.451  1.00  0.00     0.001 A 
HETATM   21  C23 UNL     1      23.191  -0.690  53.415  1.00  0.00     0.012 A 
HETATM   22  C24 UNL     1      22.501   0.375  52.994  1.00  0.00    -0.025 A 
HETATM   23  H9  UNL     1      22.237   5.558  50.787  1.00  0.00     0.162 HD
ENDROOT
BRANCH   1  24
HETATM   24  C5  UNL     1      24.652   4.799  49.265  1.00  0.00     0.013 C 
HETATM   25  C4  UNL     1      25.938   4.564  49.244  1.00  0.00     0.001 C 
BRANCH  25  26
HETATM   26  C3  UNL     1      27.305   4.675  48.858  1.00  0.00    -0.004 C 
HETATM   27  C2  UNL     1      27.733   5.835  48.422  1.00  0.00    -0.031 C 
HETATM   28  C1  UNL     1      29.211   5.764  48.075  1.00  0.00     0.036 C 
ENDBRANCH  25  26
ENDBRANCH   1  24
TORSDOF 2
ENDMDL
MODEL 2
REMARK VINA RESULT:      -9.7      2.565      5.930
REMARK  2 active torsions:
REMARK  status: ('A' for Active; 'I' for Inactive)
REMARK    1  A    between atoms: C3_3  and  C4_4 
REMARK    2  A    between atoms: C5_5  and  C6_6 
ROOT
HETATM    1  C6  UNL     1      21.780   1.217  51.008  1.00  0.00    -0.015 A 
HETATM    2  C7  UNL     1      21.875   0.711  52.396  1.00  0.00     0.005 A 
HETATM    3  C8  UNL     1      23.194   0.680  52.884  1.00  0.00     0.056 A 
HETATM    4  C9  UNL     1      24.474   0.706  53.216  1.00  0.00    -0.034 A 
HETATM    5  C10 UNL     1      24.124   1.136  51.980  1.00  0.00     0.070 A 
HETATM    6  C11 UNL     1      23.142   1.378  51.035  1.00  0.00     0.034 A 
HETATM    7  N1  UNL     1      22.999   2.102  49.807  1.00  0.00    -0.359 N 
HETATM    8  C12 UNL     1      23.355   3.534  50.191  1.00  0.00     0.152 C 
HETATM    9  C13 UNL     1      23.202   4.296  48.896  1.00  0.00     0.073 C 
HETATM   10  C14 UNL     1      22.127   3.944  51.033  1.00  0.00     0.229 C 
HETATM   11  O1  UNL     1      21.967   3.057  52.182  1.00  0.00    -0.372 OA
HETATM   12  C15 UNL     1      23.132   2.388  52.731  1.00  0.00     0.102 A 
HETATM   13  C16 UNL     1      24.139   3.311  53.080  1.00  0.00     0.062 C 
HETATM   14  C17 UNL     1      25.068   3.306  51.846  1.00  0.00     0.142 C 
HETATM   15  O2  UNL     1      24.523   3.757  50.728  1.00  0.00    -0.353 OA
HETATM   16  C18 UNL     1      25.445   1.790  51.589  1.00  0.00     0.071 C 
HETATM   17  C19 UNL     1      26.457   1.267  52.437  1.00  0.00    -0.039 A 
HETATM   18  C20 UNL     1      27.799   1.107  52.662  1.00  0.00     0.008 A 
HETATM   19  C21 UNL     1      28.312   0.516  53.838  1.00  0.00     0.001 A 
HETATM   20  C22 UNL     1      27.505   0.044  54.876  1.00  0.00     0.001 A 
HETATM   21  C23 UNL     1      26.106   0.159  54.750  1.00  0.00     0.012 A 
HETATM   22  C24 UNL     1      25.879   0.739  53.567  1.00  0.00    -0.025 A 
HETATM   23  H9  UNL     1      22.708   1.565  48.977  1.00  0.00     0.162 HD
ENDROOT
BRANCH   1  24
HETATM   24  C5  UNL     1      20.394   1.132  50.762  1.00  0.00     0.013 C 
HETATM   25  C4  UNL     1      19.652   0.303  51.447  1.00  0.00     0.001 C 
BRANCH  25  26
HETATM   26  C3  UNL     1      18.486  -0.383  51.893  1.00  0.00    -0.004 C 
HETATM   27  C2  UNL     1      18.552  -1.045  53.023  1.00  0.00    -0.031 C 
HETATM   28  C1  UNL     1      17.215  -1.695  53.340  1.00  0.00     0.036 C 
ENDBRANCH  25  26
ENDBRANCH   1  24
TORSDOF 2
ENDMDL
MODEL 3
REMARK VINA RESULT:      -9.5      2.209      2.935
REMARK  2 active torsions:
REMARK  status: ('A' for Active; 'I' for Inactive)
REMARK    1  A    between atoms: C3_3  and  C4_4 
REMARK    2  A    between atoms: C5_5  and  C6_6 
ROOT
HETATM    1  C6  UNL     1      25.664   5.200  49.826  1.00  0.00    -0.015 A 
HETATM    2  C7  UNL     1      26.403   4.007  49.351  1.00  0.00     0.005 A 
HETATM    3  C8  UNL     1      26.285   2.904  50.216  1.00  0.00     0.056 A 
HETATM    4  C9  UNL     1      26.090   1.950  51.111  1.00  0.00    -0.034 A 
HETATM    5  C10 UNL     1      25.501   3.153  51.317  1.00  0.00     0.070 A 
HETATM    6  C11 UNL     1      25.265   4.452  50.904  1.00  0.00     0.034 A 
HETATM    7  N1  UNL     1      24.357   5.518  51.203  1.00  0.00    -0.359 N 
HETATM    8  C12 UNL     1      22.985   4.905  50.943  1.00  0.00     0.152 C 
HETATM    9  C13 UNL     1      22.029   6.031  51.257  1.00  0.00     0.073 C 
HETATM   10  C14 UNL     1      22.978   4.806  49.402  1.00  0.00     0.229 C 
HETATM   11  O1  UNL     1      24.084   3.976  48.930  1.00  0.00    -0.372 OA
HETATM   12  C15 UNL     1      24.621   2.947  49.801  1.00  0.00     0.102 A 
HETATM   13  C16 UNL     1      23.613   2.058  50.230  1.00  0.00     0.062 C 
HETATM   14  C17 UNL     1      23.209   2.619  51.612  1.00  0.00     0.142 C 
HETATM   15  O2  UNL     1      22.659   3.822  51.592  1.00  0.00    -0.353 OA
HETATM   16  C18 UNL     1      24.552   2.745  52.441  1.00  0.00     0.071 C 
HETATM   17  C19 UNL     1      25.034   1.533  52.999  1.00  0.00    -0.039 A 
HETATM   18  C20 UNL     1      24.986   0.649  54.046  1.00  0.00     0.008 A 
HETATM   19  C21 UNL     1      25.688  -0.576  54.045  1.00  0.00     0.001 A 
HETATM   20  C22 UNL     1      26.492  -1.001  52.984  1.00  0.00     0.001 A 
HETATM   21  C23 UNL     1      26.613  -0.169  51.853  1.00  0.00     0.012 A 
HETATM   22  C24 UNL     1      25.868   0.913  52.098  1.00  0.00    -0.025 A 
HETATM   23  H9  UNL     1      24.767   6.413  51.508  1.00  0.00     0.162 HD
ENDROOT
BRANCH   1  24
HETATM   24  C5  UNL     1      25.953   6.141  48.816  1.00  0.00     0.013 C 
HETATM   25  C4  UNL     1      27.191   6.387  48.478  1.00  0.00     0.001 C 
BRANCH  25  26
HETATM   26  C3  UNL     1      28.292   6.968  47.784  1.00  0.00    -0.004 C 
HETATM   27  C2  UNL     1      29.435   6.326  47.790  1.00  0.00    -0.031 C 
HETATM   28  C1  UNL     1      30.479   7.087  46.990  1.00  0.00     0.036 C 
ENDBRANCH  25  26
ENDBRANCH   1  24
TORSDOF 2
ENDMDL
MODEL 4
REMARK VINA RESULT:      -9.2      2.664      4.118
REMARK  2 active torsions:
REMARK  status: ('A' for Active; 'I' for Inactive)
REMARK    1  A    between atoms: C3_3  and  C4_4 
REMARK    2  A    between atoms: C5_5  and  C6_6 
ROOT
HETATM    1  C6  UNL     1      24.783   2.531  53.179  1.00  0.00    -0.015 A 
HETATM    2  C7  UNL     1      24.325   1.129  53.041  1.00  0.00     0.005 A 
HETATM    3  C8  UNL     1      22.980   1.023  52.643  1.00  0.00     0.056 A 
HETATM    4  C9  UNL     1      21.714   1.067  52.265  1.00  0.00    -0.034 A 
HETATM    5  C10 UNL     1      22.368   2.239  52.451  1.00  0.00     0.070 A 
HETATM    6  C11 UNL     1      23.525   2.918  52.793  1.00  0.00     0.034 A 
HETATM    7  N1  UNL     1      24.056   4.243  52.678  1.00  0.00    -0.359 N 
HETATM    8  C12 UNL     1      24.024   4.514  51.178  1.00  0.00     0.152 C 
HETATM    9  C13 UNL     1      24.587   5.910  51.059  1.00  0.00     0.073 C 
HETATM   10  C14 UNL     1      25.156   3.593  50.672  1.00  0.00     0.229 C 
HETATM   11  O1  UNL     1      24.883   2.200  51.017  1.00  0.00    -0.372 OA
HETATM   12  C15 UNL     1      23.509   1.766  51.190  1.00  0.00     0.102 A 
HETATM   13  C16 UNL     1      22.731   2.052  50.048  1.00  0.00     0.062 C 
HETATM   14  C17 UNL     1      22.056   3.395  50.405  1.00  0.00     0.142 C 
HETATM   15  O2  UNL     1      22.881   4.418  50.557  1.00  0.00    -0.353 OA
HETATM   16  C18 UNL     1      21.347   3.169  51.803  1.00  0.00     0.071 C 
HETATM   17  C19 UNL     1      20.106   2.482  51.748  1.00  0.00    -0.039 A 
HETATM   18  C20 UNL     1      18.750   2.570  51.569  1.00  0.00     0.008 A 
HETATM   19  C21 UNL     1      17.910   1.435  51.524  1.00  0.00     0.001 A 
HETATM   20  C22 UNL     1      18.379   0.126  51.654  1.00  0.00     0.001 A 
HETATM   21  C23 UNL     1      19.761  -0.082  51.841  1.00  0.00     0.012 A 
HETATM   22  C24 UNL     1      20.328   1.129  51.851  1.00  0.00    -0.025 A 
HETATM   23  H9  UNL     1      24.335   4.714  53.551  1.00  0.00     0.162 HD
ENDROOT
BRANCH   1  24
HETATM   24  C5  UNL     1      26.120   2.361  53.593  1.00  0.00     0.013 C 
HETATM   25  C4  UNL     1      26.636   1.164  53.682  1.00  0.00     0.001 C 
BRANCH  25  26
HETATM   26  C3  UNL     1      27.603   0.145  53.918  1.00  0.00    -0.004 C 
HETATM   27  C2  UNL     1      28.812   0.318  53.440  1.00  0.00    -0.031 C 
HETATM   28  C1  UNL     1      29.704  -0.858  53.802  1.00  0.00     0.036 C 
ENDBRANCH  25  26
ENDBRANCH   1  24
TORSDOF 2
ENDMDL
MODEL 5
REMARK VINA RESULT:      -8.9      2.006      4.092
REMARK  2 active torsions:
REMARK  status: ('A' for Active; 'I' for Inactive)
REMARK    1  A    between atoms: C3_3  and  C4_4 
REMARK    2  A    between atoms: C5_5  and  C6_6 
ROOT
HETATM    1  C6  UNL     1      22.798   3.487  49.076  1.00  0.00    -0.015 A 
HETATM    2  C7  UNL     1      21.582   3.448  49.921  1.00  0.00     0.005 A 
HETATM    3  C8  UNL     1      21.706   2.590  51.030  1.00  0.00     0.056 A 
HETATM    4  C9  UNL     1      21.957   1.758  52.026  1.00  0.00    -0.034 A 
HETATM    5  C10 UNL     1      22.932   1.974  51.110  1.00  0.00     0.070 A 
HETATM    6  C11 UNL     1      23.367   2.604  49.958  1.00  0.00     0.034 A 
HETATM    7  N1  UNL     1      24.606   2.857  49.284  1.00  0.00    -0.359 N 
HETATM    8  C12 UNL     1      25.433   3.606  50.323  1.00  0.00     0.152 C 
HETATM    9  C13 UNL     1      26.737   3.874  49.610  1.00  0.00     0.073 C 
HETATM   10  C14 UNL     1      24.720   4.975  50.359  1.00  0.00     0.229 C 
HETATM   11  O1  UNL     1      23.317   4.819  50.736  1.00  0.00    -0.372 OA
HETATM   12  C15 UNL     1      22.922   3.683  51.549  1.00  0.00     0.102 A 
HETATM   13  C16 UNL     1      23.664   3.625  52.747  1.00  0.00     0.062 C 
HETATM   14  C17 UNL     1      24.799   2.632  52.414  1.00  0.00     0.142 C 
HETATM   15  O2  UNL     1      25.642   3.033  51.476  1.00  0.00    -0.353 OA
HETATM   16  C18 UNL     1      24.091   1.328  51.863  1.00  0.00     0.071 C 
HETATM   17  C19 UNL     1      23.543   0.473  52.855  1.00  0.00    -0.039 A 
HETATM   18  C20 UNL     1      23.762  -0.550  53.741  1.00  0.00     0.008 A 
HETATM   19  C21 UNL     1      22.777  -1.001  54.646  1.00  0.00     0.001 A 
HETATM   20  C22 UNL     1      21.496  -0.451  54.726  1.00  0.00     0.001 A 
HETATM   21  C23 UNL     1      21.161   0.610  53.860  1.00  0.00     0.012 A 
HETATM   22  C24 UNL     1      22.244   0.845  53.113  1.00  0.00    -0.025 A 
HETATM   23  H9  UNL     1      24.691   2.517  48.315  1.00  0.00     0.162 HD
ENDROOT
BRANCH   1  24
HETATM   24  C5  UNL     1      22.413   4.381  48.055  1.00  0.00     0.013 C 
HETATM   25  C4  UNL     1      22.002   3.926  46.901  1.00  0.00     0.001 C 
BRANCH  25  26
HETATM   26  C3  UNL     1      21.508   3.938  45.565  1.00  0.00    -0.004 C 
HETATM   27  C2  UNL     1      21.372   5.097  44.967  1.00  0.00    -0.031 C 
HETATM   28  C1  UNL     1      20.851   4.910  43.551  1.00  0.00     0.036 C 
ENDBRANCH  25  26
ENDBRANCH   1  24
TORSDOF 2
ENDMDL
MODEL 6
REMARK VINA RESULT:      -8.9      2.401      6.457
REMARK  2 active torsions:
REMARK  status: ('A' for Active; 'I' for Inactive)
REMARK    1  A    between atoms: C3_3  and  C4_4 
REMARK    2  A    between atoms: C5_5  and  C6_6 
ROOT
HETATM    1  C6  UNL     1      23.780   2.850  50.643  1.00  0.00    -0.015 A 
HETATM    2  C7  UNL     1      25.212   3.200  50.786  1.00  0.00     0.005 A 
HETATM    3  C8  UNL     1      25.587   4.321  50.022  1.00  0.00     0.056 A 
HETATM    4  C9  UNL     1      25.800   5.381  49.263  1.00  0.00    -0.034 A 
HETATM    5  C10 UNL     1      24.547   4.870  49.310  1.00  0.00     0.070 A 
HETATM    6  C11 UNL     1      23.664   3.922  49.795  1.00  0.00     0.034 A 
HETATM    7  N1  UNL     1      22.246   3.728  49.877  1.00  0.00    -0.359 N 
HETATM    8  C12 UNL     1      21.760   4.956  50.640  1.00  0.00     0.152 C 
HETATM    9  C13 UNL     1      20.267   4.749  50.728  1.00  0.00     0.073 C 
HETATM   10  C14 UNL     1      22.280   4.662  52.064  1.00  0.00     0.229 C 
HETATM   11  O1  UNL     1      23.733   4.515  52.066  1.00  0.00    -0.372 OA
HETATM   12  C15 UNL     1      24.517   5.187  51.046  1.00  0.00     0.102 A 
HETATM   13  C16 UNL     1      24.258   6.574  51.029  1.00  0.00     0.062 C 
HETATM   14  C17 UNL     1      23.199   6.724  49.915  1.00  0.00     0.142 C 
HETATM   15  O2  UNL     1      22.040   6.134  50.156  1.00  0.00    -0.353 OA
HETATM   16  C18 UNL     1      23.811   6.023  48.634  1.00  0.00     0.071 C 
HETATM   17  C19 UNL     1      24.768   6.792  47.922  1.00  0.00    -0.039 A 
HETATM   18  C20 UNL     1      24.994   7.748  46.966  1.00  0.00     0.008 A 
HETATM   19  C21 UNL     1      26.280   8.259  46.685  1.00  0.00     0.001 A 
HETATM   20  C22 UNL     1      27.435   7.842  47.351  1.00  0.00     0.001 A 
HETATM   21  C23 UNL     1      27.319   6.861  48.357  1.00  0.00     0.012 A 
HETATM   22  C24 UNL     1      26.022   6.544  48.428  1.00  0.00    -0.025 A 
HETATM   23  H9  UNL     1      21.864   2.874  49.447  1.00  0.00     0.162 HD
ENDROOT
BRANCH   1  24
HETATM   24  C5  UNL     1      23.674   1.715  51.473  1.00  0.00     0.013 C 
HETATM   25  C4  UNL     1      24.749   1.114  51.909  1.00  0.00     0.001 C 
BRANCH  25  26
HETATM   26  C3  UNL     1      25.557   0.170  52.606  1.00  0.00    -0.004 C 
HETATM   27  C2  UNL     1      26.704  -0.176  52.073  1.00  0.00    -0.031 C 
HETATM   28  C1  UNL     1      27.427  -1.174  52.963  1.00  0.00     0.036 C 
ENDBRANCH  25  26
ENDBRANCH   1  24
TORSDOF 2
ENDMDL
MODEL 7
REMARK VINA RESULT:      -8.9      5.068     11.086
REMARK  2 active torsions:
REMARK  status: ('A' for Active; 'I' for Inactive)
REMARK    1  A    between atoms: C3_3  and  C4_4 
REMARK    2  A    between atoms: C5_5  and  C6_6 
ROOT
HETATM    1  C6  UNL     1      29.121   6.826  47.615  1.00  0.00    -0.015 A 
HETATM    2  C7  UNL     1      29.573   5.568  48.253  1.00  0.00     0.005 A 
HETATM    3  C8  UNL     1      30.819   5.123  47.775  1.00  0.00     0.056 A 
HETATM    4  C9  UNL     1      31.991   4.823  47.242  1.00  0.00    -0.034 A 
HETATM    5  C10 UNL     1      31.368   5.951  46.824  1.00  0.00     0.070 A 
HETATM    6  C11 UNL     1      30.286   6.810  46.893  1.00  0.00     0.034 A 
HETATM    7  N1  UNL     1      29.957   8.145  46.488  1.00  0.00    -0.359 N 
HETATM    8  C12 UNL     1      31.017   8.999  47.174  1.00  0.00     0.152 C 
HETATM    9  C13 UNL     1      30.667  10.406  46.748  1.00  0.00     0.073 C 
HETATM   10  C14 UNL     1      30.573   8.917  48.651  1.00  0.00     0.229 C 
HETATM   11  O1  UNL     1      30.557   7.531  49.111  1.00  0.00    -0.372 OA
HETATM   12  C15 UNL     1      31.434   6.562  48.479  1.00  0.00     0.102 A 
HETATM   13  C16 UNL     1      32.780   6.980  48.524  1.00  0.00     0.062 C 
HETATM   14  C17 UNL     1      32.991   7.648  47.147  1.00  0.00     0.142 C 
HETATM   15  O2  UNL     1      32.272   8.738  46.934  1.00  0.00    -0.353 OA
HETATM   16  C18 UNL     1      32.534   6.582  46.070  1.00  0.00     0.071 C 
HETATM   17  C19 UNL     1      33.478   5.559  45.793  1.00  0.00    -0.039 A 
HETATM   18  C20 UNL     1      34.576   5.172  45.069  1.00  0.00     0.008 A 
HETATM   19  C21 UNL     1      35.234   3.940  45.277  1.00  0.00     0.001 A 
HETATM   20  C22 UNL     1      34.833   3.007  46.236  1.00  0.00     0.001 A 
HETATM   21  C23 UNL     1      33.713   3.303  47.040  1.00  0.00     0.012 A 
HETATM   22  C24 UNL     1      33.275   4.504  46.651  1.00  0.00    -0.025 A 
HETATM   23  H9  UNL     1      29.141   8.260  45.869  1.00  0.00     0.162 HD
ENDROOT
BRANCH   1  24
HETATM   24  C5  UNL     1      27.875   7.038  48.242  1.00  0.00     0.013 C 
HETATM   25  C4  UNL     1      27.139   6.021  48.606  1.00  0.00     0.001 C 
BRANCH  25  26
HETATM   26  C3  UNL     1      26.041   5.304  49.163  1.00  0.00    -0.004 C 
HETATM   27  C2  UNL     1      26.207   4.032  49.434  1.00  0.00    -0.031 C 
HETATM   28  C1  UNL     1      24.939   3.443  50.032  1.00  0.00     0.036 C 
ENDBRANCH  25  26
ENDBRANCH   1  24
TORSDOF 2
ENDMDL
MODEL 8
REMARK VINA RESULT:      -8.8      2.149      2.885
REMARK  2 active torsions:
REMARK  status: ('A' for Active; 'I' for Inactive)
REMARK    1  A    between atoms: C3_3  and  C4_4 
REMARK    2  A    between atoms: C5_5  and  C6_6 
ROOT
HETATM    1  C6  UNL     1      23.203   5.414  51.292  1.00  0.00    -0.015 A 
HETATM    2  C7  UNL     1      24.514   4.987  50.750  1.00  0.00     0.005 A 
HETATM    3  C8  UNL     1      24.879   3.688  51.146  1.00  0.00     0.056 A 
HETATM    4  C9  UNL     1      25.096   2.461  51.588  1.00  0.00    -0.034 A 
HETATM    5  C10 UNL     1      23.942   3.075  51.943  1.00  0.00     0.070 A 
HETATM    6  C11 UNL     1      23.117   4.184  51.892  1.00  0.00     0.034 A 
HETATM    7  N1  UNL     1      21.753   4.513  52.183  1.00  0.00    -0.359 N 
HETATM    8  C12 UNL     1      20.958   3.551  51.307  1.00  0.00     0.152 C 
HETATM    9  C13 UNL     1      19.520   3.901  51.614  1.00  0.00     0.073 C 
HETATM   10  C14 UNL     1      21.209   4.134  49.899  1.00  0.00     0.229 C 
HETATM   11  O1  UNL     1      22.637   4.152  49.593  1.00  0.00    -0.372 OA
HETATM   12  C15 UNL     1      23.514   3.189  50.235  1.00  0.00     0.102 A 
HETATM   13  C16 UNL     1      23.076   1.867  50.011  1.00  0.00     0.062 C 
HETATM   14  C17 UNL     1      22.258   1.544  51.281  1.00  0.00     0.142 C 
HETATM   15  O2  UNL     1      21.166   2.272  51.448  1.00  0.00    -0.353 OA
HETATM   16  C18 UNL     1      23.209   1.861  52.506  1.00  0.00     0.071 C 
HETATM   17  C19 UNL     1      24.177   0.863  52.794  1.00  0.00    -0.039 A 
HETATM   18  C20 UNL     1      24.460  -0.311  53.442  1.00  0.00     0.008 A 
HETATM   19  C21 UNL     1      25.694  -0.983  53.301  1.00  0.00     0.001 A 
HETATM   20  C22 UNL     1      26.735  -0.519  52.492  1.00  0.00     0.001 A 
HETATM   21  C23 UNL     1      26.551   0.682  51.777  1.00  0.00     0.012 A 
HETATM   22  C24 UNL     1      25.323   1.117  52.078  1.00  0.00    -0.025 A 
HETATM   23  H9  UNL     1      21.588   5.268  52.864  1.00  0.00     0.162 HD
ENDROOT
BRANCH   1  24
HETATM   24  C5  UNL     1      23.086   6.721  50.774  1.00  0.00     0.013 C 
HETATM   25  C4  UNL     1      24.155   7.427  50.518  1.00  0.00     0.001 C 
BRANCH  25  26
HETATM   26  C3  UNL     1      24.954   8.528  50.092  1.00  0.00    -0.004 C 
HETATM   27  C2  UNL     1      26.254   8.366  50.043  1.00  0.00    -0.031 C 
HETATM   28  C1  UNL     1      26.932   9.636  49.555  1.00  0.00     0.036 C 
ENDBRANCH  25  26
ENDBRANCH   1  24
TORSDOF 2
ENDMDL
MODEL 9
REMARK VINA RESULT:      -8.5      2.827      4.320
REMARK  2 active torsions:
REMARK  status: ('A' for Active; 'I' for Inactive)
REMARK    1  A    between atoms: C3_3  and  C4_4 
REMARK    2  A    between atoms: C5_5  and  C6_6 
ROOT
HETATM    1  C6  UNL     1      22.232   1.857  49.335  1.00  0.00    -0.015 A 
HETATM    2  C7  UNL     1      20.818   1.892  48.898  1.00  0.00     0.005 A 
HETATM    3  C8  UNL     1      19.949   1.226  49.782  1.00  0.00     0.056 A 
HETATM    4  C9  UNL     1      19.250   0.574  50.695  1.00  0.00    -0.034 A 
HETATM    5  C10 UNL     1      20.587   0.691  50.876  1.00  0.00     0.070 A 
HETATM    6  C11 UNL     1      21.814   1.153  50.435  1.00  0.00     0.034 A 
HETATM    7  N1  UNL     1      23.130   1.357  50.964  1.00  0.00    -0.359 N 
HETATM    8  C12 UNL     1      22.901   2.300  52.141  1.00  0.00     0.152 C 
HETATM    9  C13 UNL     1      24.289   2.516  52.696  1.00  0.00     0.073 C 
HETATM   10  C14 UNL     1      22.559   3.621  51.417  1.00  0.00     0.229 C 
HETATM   11  O1  UNL     1      21.383   3.457  50.567  1.00  0.00    -0.372 OA
HETATM   12  C15 UNL     1      20.398   2.445  50.903  1.00  0.00     0.102 A 
HETATM   13  C16 UNL     1      19.917   2.613  52.218  1.00  0.00     0.062 C 
HETATM   14  C17 UNL     1      20.786   1.637  53.041  1.00  0.00     0.142 C 
HETATM   15  O2  UNL     1      22.076   1.926  53.079  1.00  0.00    -0.353 OA
HETATM   16  C18 UNL     1      20.656   0.229  52.329  1.00  0.00     0.071 C 
HETATM   17  C19 UNL     1      19.463  -0.486  52.615  1.00  0.00    -0.039 A 
HETATM   18  C20 UNL     1      18.812  -1.345  53.462  1.00  0.00     0.008 A 
HETATM   19  C21 UNL     1      17.454  -1.696  53.298  1.00  0.00     0.001 A 
HETATM   20  C22 UNL     1      16.651  -1.204  52.267  1.00  0.00     0.001 A 
HETATM   21  C23 UNL     1      17.219  -0.309  51.337  1.00  0.00     0.012 A 
HETATM   22  C24 UNL     1      18.494  -0.142  51.702  1.00  0.00    -0.025 A 
HETATM   23  H9  UNL     1      23.907   0.874  50.490  1.00  0.00     0.162 HD
ENDROOT
BRANCH   1  24
HETATM   24  C5  UNL     1      22.875   2.560  48.294  1.00  0.00     0.013 C 
HETATM   25  C4  UNL     1      22.192   2.978  47.261  1.00  0.00     0.001 C 
BRANCH  25  26
HETATM   26  C3  UNL     1      21.918   3.609  46.014  1.00  0.00    -0.004 C 
HETATM   27  C2  UNL     1      21.739   4.908  46.004  1.00  0.00    -0.031 C 
HETATM   28  C1  UNL     1      21.474   5.399  44.590  1.00  0.00     0.036 C 
ENDBRANCH  25  26
ENDBRANCH   1  24
TORSDOF 2
ENDMDL
