MODEL 1
REMARK VINA RESULT:      -8.6      0.000      0.000
REMARK  6 active torsions:
REMARK  status: ('A' for Active; 'I' for Inactive)
REMARK    1  A    between atoms: C2_2  and  N1_3 
REMARK    2  A    between atoms: N1_3  and  C4_5 
REMARK    3  A    between atoms: C4_5  and  C5_6 
REMARK       I    between atoms: C5_6  and  N2_8 
REMARK    4  A    between atoms: N2_8  and  C6_9 
REMARK    5  A    between atoms: C13_18  and  N5_19 
REMARK    6  A    between atoms: N5_19  and  C14_20 
ROOT
HETATM    1  C6  UNL     1      24.269   0.216  53.367  1.00  0.00     0.035 A 
HETATM    2  C7  UNL     1      23.219  -0.673  53.352  1.00  0.00     0.030 A 
HETATM    3  C8  UNL     1      22.031  -0.256  52.799  1.00  0.00     0.016 A 
HETATM    4  C9  UNL     1      21.898   1.028  52.271  1.00  0.00     0.000 A 
HETATM    5  C10 UNL     1      20.678   1.334  51.749  1.00  0.00     0.073 A 
HETATM    6  C11 UNL     1      19.557   0.435  51.714  1.00  0.00     0.102 C 
HETATM    7  N3  UNL     1      18.665  -0.305  51.686  1.00  0.00    -0.191 NA
HETATM    8  C12 UNL     1      20.534   2.583  51.230  1.00  0.00     0.142 A 
HETATM    9  N4  UNL     1      21.557   3.440  51.248  1.00  0.00    -0.241 NA
HETATM   10  C13 UNL     1      22.774   3.193  51.746  1.00  0.00     0.139 A 
HETATM   11  C20 UNL     1      22.929   1.941  52.269  1.00  0.00     0.024 A 
HETATM   12  C21 UNL     1      24.091   1.474  52.833  1.00  0.00     0.045 A 
ENDROOT
BRANCH  10  13
HETATM   13  N5  UNL     1      23.840   4.100  51.761  1.00  0.00    -0.340 N 
HETATM   14  H15 UNL     1      23.990   4.745  52.549  1.00  0.00     0.167 HD
BRANCH  13  15
HETATM   15  C14 UNL     1      24.849   4.320  50.803  1.00  0.00     0.035 A 
HETATM   16  C15 UNL     1      25.783   3.388  50.370  1.00  0.00     0.029 A 
HETATM   17  C16 UNL     1      26.756   3.608  49.450  1.00  0.00     0.004 A 
HETATM   18  C17 UNL     1      26.876   4.836  48.866  1.00  0.00     0.019 A 
HETATM   19  C18 UNL     1      25.979   5.815  49.250  1.00  0.00     0.013 A 
HETATM   20 BR1  UNL     1      26.193   7.510  48.401  1.00  0.00    -0.051 Br
HETATM   21  C19 UNL     1      25.010   5.530  50.190  1.00  0.00     0.048 A 
ENDBRANCH  13  15
ENDBRANCH  10  13
BRANCH   1  22
HETATM   22  N2  UNL     1      25.483  -0.243  53.945  1.00  0.00    -0.326 N 
HETATM   23  C5  UNL     1      26.601  -0.451  53.084  1.00  0.00     0.250 C 
HETATM   24  O1  UNL     1      26.528  -0.238  51.847  1.00  0.00    -0.271 OA
HETATM   25  H11 UNL     1      25.493  -0.405  54.973  1.00  0.00     0.169 HD
BRANCH  23  26
HETATM   26  C4  UNL     1      27.822  -0.935  53.815  1.00  0.00     0.374 C 
BRANCH  26  27
HETATM   27  N1  UNL     1      28.871   0.024  53.536  1.00  0.00     0.092 N 
HETATM   28  C3  UNL     1      30.176  -0.601  53.485  1.00  0.00     0.310 C 
BRANCH  27  29
HETATM   29  C2  UNL     1      28.844   1.136  54.465  1.00  0.00     0.268 C 
HETATM   30  C1  UNL     1      28.691   2.402  53.642  1.00  0.00     0.037 C 
ENDBRANCH  27  29
ENDBRANCH  26  27
ENDBRANCH  23  26
ENDBRANCH   1  22
TORSDOF 6
ENDMDL
MODEL 2
REMARK VINA RESULT:      -8.3      1.630      2.126
REMARK  6 active torsions:
REMARK  status: ('A' for Active; 'I' for Inactive)
REMARK    1  A    between atoms: C2_2  and  N1_3 
REMARK    2  A    between atoms: N1_3  and  C4_5 
REMARK    3  A    between atoms: C4_5  and  C5_6 
REMARK       I    between atoms: C5_6  and  N2_8 
REMARK    4  A    between atoms: N2_8  and  C6_9 
REMARK    5  A    between atoms: C13_18  and  N5_19 
REMARK    6  A    between atoms: N5_19  and  C14_20 
ROOT
HETATM    1  C6  UNL     1      23.545  -0.410  53.613  1.00  0.00     0.035 A 
HETATM    2  C7  UNL     1      22.524  -0.990  54.329  1.00  0.00     0.030 A 
HETATM    3  C8  UNL     1      21.242  -0.850  53.850  1.00  0.00     0.016 A 
HETATM    4  C9  UNL     1      20.990  -0.142  52.676  1.00  0.00     0.000 A 
HETATM    5  C10 UNL     1      19.685  -0.066  52.295  1.00  0.00     0.073 A 
HETATM    6  C11 UNL     1      18.590  -0.657  53.014  1.00  0.00     0.102 C 
HETATM    7  N3  UNL     1      17.718  -1.148  53.602  1.00  0.00    -0.191 NA
HETATM    8  C12 UNL     1      19.423   0.621  51.151  1.00  0.00     0.142 A 
HETATM    9  N4  UNL     1      20.419   1.181  50.461  1.00  0.00    -0.241 NA
HETATM   10  C13 UNL     1      21.716   1.139  50.788  1.00  0.00     0.139 A 
HETATM   11  C20 UNL     1      21.989   0.450  51.935  1.00  0.00     0.024 A 
HETATM   12  C21 UNL     1      23.248   0.280  52.458  1.00  0.00     0.045 A 
ENDROOT
BRANCH  10  13
HETATM   13  N5  UNL     1      22.752   1.730  50.058  1.00  0.00    -0.340 N 
HETATM   14  H15 UNL     1      23.192   1.252  49.259  1.00  0.00     0.167 HD
BRANCH  13  15
HETATM   15  C14 UNL     1      23.371   2.985  50.226  1.00  0.00     0.035 A 
HETATM   16  C15 UNL     1      22.866   4.055  50.950  1.00  0.00     0.029 A 
HETATM   17  C16 UNL     1      23.466   5.263  51.104  1.00  0.00     0.004 A 
HETATM   18  C17 UNL     1      24.674   5.504  50.516  1.00  0.00     0.019 A 
HETATM   19  C18 UNL     1      25.237   4.480  49.777  1.00  0.00     0.013 A 
HETATM   20 BR1  UNL     1      26.925   4.872  48.978  1.00  0.00    -0.051 Br
HETATM   21  C19 UNL     1      24.579   3.274  49.657  1.00  0.00     0.048 A 
ENDBRANCH  13  15
ENDBRANCH  10  13
BRANCH   1  22
HETATM   22  N2  UNL     1      24.858  -0.571  54.133  1.00  0.00    -0.326 N 
HETATM   23  C5  UNL     1      25.721   0.564  54.142  1.00  0.00     0.250 C 
HETATM   24  O1  UNL     1      25.344   1.682  53.704  1.00  0.00    -0.271 OA
HETATM   25  H11 UNL     1      25.122  -1.515  54.483  1.00  0.00     0.169 HD
BRANCH  23  26
HETATM   26  C4  UNL     1      27.077   0.266  54.716  1.00  0.00     0.374 C 
BRANCH  26  27
HETATM   27  N1  UNL     1      27.995   0.230  53.597  1.00  0.00     0.092 N 
HETATM   28  C3  UNL     1      28.354  -1.126  53.235  1.00  0.00     0.310 C 
BRANCH  27  29
HETATM   29  C2  UNL     1      29.167   1.049  53.835  1.00  0.00     0.268 C 
HETATM   30  C1  UNL     1      28.745   2.495  53.649  1.00  0.00     0.037 C 
ENDBRANCH  27  29
ENDBRANCH  26  27
ENDBRANCH  23  26
ENDBRANCH   1  22
TORSDOF 6
ENDMDL
MODEL 3
REMARK VINA RESULT:      -8.3      2.268      6.285
REMARK  6 active torsions:
REMARK  status: ('A' for Active; 'I' for Inactive)
REMARK    1  A    between atoms: C2_2  and  N1_3 
REMARK    2  A    between atoms: N1_3  and  C4_5 
REMARK    3  A    between atoms: C4_5  and  C5_6 
REMARK       I    between atoms: C5_6  and  N2_8 
REMARK    4  A    between atoms: N2_8  and  C6_9 
REMARK    5  A    between atoms: C13_18  and  N5_19 
REMARK    6  A    between atoms: N5_19  and  C14_20 
ROOT
HETATM    1  C6  UNL     1      22.101   0.989  51.736  1.00  0.00     0.035 A 
HETATM    2  C7  UNL     1      22.406   0.243  52.850  1.00  0.00     0.030 A 
HETATM    3  C8  UNL     1      23.703   0.272  53.307  1.00  0.00     0.016 A 
HETATM    4  C9  UNL     1      24.674   1.034  52.660  1.00  0.00     0.000 A 
HETATM    5  C10 UNL     1      25.925   0.989  53.198  1.00  0.00     0.073 A 
HETATM    6  C11 UNL     1      26.285   0.222  54.359  1.00  0.00     0.102 C 
HETATM    7  N3  UNL     1      26.557  -0.394  55.303  1.00  0.00    -0.191 NA
HETATM    8  C12 UNL     1      26.882   1.727  52.577  1.00  0.00     0.142 A 
HETATM    9  N4  UNL     1      26.578   2.449  51.495  1.00  0.00    -0.241 NA
HETATM   10  C13 UNL     1      25.371   2.531  50.926  1.00  0.00     0.139 A 
HETATM   11  C20 UNL     1      24.402   1.792  51.543  1.00  0.00     0.024 A 
HETATM   12  C21 UNL     1      23.093   1.727  51.129  1.00  0.00     0.045 A 
ENDROOT
BRANCH  10  13
HETATM   13  N5  UNL     1      25.063   3.290  49.791  1.00  0.00    -0.340 N 
HETATM   14  H15 UNL     1      24.284   3.037  49.167  1.00  0.00     0.167 HD
BRANCH  13  15
HETATM   15  C14 UNL     1      25.679   4.455  49.291  1.00  0.00     0.035 A 
HETATM   16  C15 UNL     1      25.049   5.663  49.027  1.00  0.00     0.029 A 
HETATM   17  C16 UNL     1      25.649   6.780  48.541  1.00  0.00     0.004 A 
HETATM   18  C17 UNL     1      26.986   6.772  48.269  1.00  0.00     0.019 A 
HETATM   19  C18 UNL     1      27.678   5.599  48.508  1.00  0.00     0.013 A 
HETATM   20 BR1  UNL     1      29.543   5.645  48.110  1.00  0.00    -0.051 Br
HETATM   21  C19 UNL     1      27.013   4.497  49.003  1.00  0.00     0.048 A 
ENDBRANCH  13  15
ENDBRANCH  10  13
BRANCH   1  22
HETATM   22  N2  UNL     1      20.753   0.939  51.287  1.00  0.00    -0.326 N 
HETATM   23  C5  UNL     1      19.804   1.798  51.914  1.00  0.00     0.250 C 
HETATM   24  O1  UNL     1      20.135   2.582  52.840  1.00  0.00    -0.271 OA
HETATM   25  H11 UNL     1      20.529   0.274  50.518  1.00  0.00     0.169 HD
BRANCH  23  26
HETATM   26  C4  UNL     1      18.418   1.652  51.351  1.00  0.00     0.374 C 
BRANCH  26  27
HETATM   27  N1  UNL     1      18.137   0.232  51.325  1.00  0.00     0.092 N 
HETATM   28  C3  UNL     1      17.412  -0.155  50.132  1.00  0.00     0.310 C 
BRANCH  27  29
HETATM   29  C2  UNL     1      17.457  -0.205  52.530  1.00  0.00     0.268 C 
HETATM   30  C1  UNL     1      18.284  -1.328  53.126  1.00  0.00     0.037 C 
ENDBRANCH  27  29
ENDBRANCH  26  27
ENDBRANCH  23  26
ENDBRANCH   1  22
TORSDOF 6
ENDMDL
MODEL 4
REMARK VINA RESULT:      -8.1      3.372      5.696
REMARK  6 active torsions:
REMARK  status: ('A' for Active; 'I' for Inactive)
REMARK    1  A    between atoms: C2_2  and  N1_3 
REMARK    2  A    between atoms: N1_3  and  C4_5 
REMARK    3  A    between atoms: C4_5  and  C5_6 
REMARK       I    between atoms: C5_6  and  N2_8 
REMARK    4  A    between atoms: N2_8  and  C6_9 
REMARK    5  A    between atoms: C13_18  and  N5_19 
REMARK    6  A    between atoms: N5_19  and  C14_20 
ROOT
HETATM    1  C6  UNL     1      24.770   3.033  51.104  1.00  0.00     0.035 A 
HETATM    2  C7  UNL     1      25.025   3.328  49.785  1.00  0.00     0.030 A 
HETATM    3  C8  UNL     1      23.966   3.309  48.906  1.00  0.00     0.016 A 
HETATM    4  C9  UNL     1      22.679   3.000  49.343  1.00  0.00     0.000 A 
HETATM    5  C10 UNL     1      21.707   3.010  48.388  1.00  0.00     0.073 A 
HETATM    6  C11 UNL     1      21.931   3.312  47.001  1.00  0.00     0.102 C 
HETATM    7  N3  UNL     1      22.126   3.567  45.887  1.00  0.00    -0.191 NA
HETATM    8  C12 UNL     1      20.446   2.712  48.800  1.00  0.00     0.142 A 
HETATM    9  N4  UNL     1      20.207   2.427  50.082  1.00  0.00    -0.241 NA
HETATM   10  C13 UNL     1      21.120   2.402  51.059  1.00  0.00     0.139 A 
HETATM   11  C20 UNL     1      22.390   2.701  50.656  1.00  0.00     0.024 A 
HETATM   12  C21 UNL     1      23.482   2.734  51.490  1.00  0.00     0.045 A 
ENDROOT
BRANCH  10  13
HETATM   13  N5  UNL     1      20.859   2.101  52.401  1.00  0.00    -0.340 N 
HETATM   14  H15 UNL     1      20.652   2.839  53.089  1.00  0.00     0.167 HD
BRANCH  13  15
HETATM   15  C14 UNL     1      20.822   0.854  53.054  1.00  0.00     0.035 A 
HETATM   16  C15 UNL     1      21.857   0.280  53.780  1.00  0.00     0.029 A 
HETATM   17  C16 UNL     1      21.816  -0.925  54.404  1.00  0.00     0.004 A 
HETATM   18  C17 UNL     1      20.683  -1.684  54.344  1.00  0.00     0.019 A 
HETATM   19  C18 UNL     1      19.611  -1.175  53.636  1.00  0.00     0.013 A 
HETATM   20 BR1  UNL     1      18.055  -2.278  53.587  1.00  0.00    -0.051 Br
HETATM   21  C19 UNL     1      19.713   0.057  53.024  1.00  0.00     0.048 A 
ENDBRANCH  13  15
ENDBRANCH  10  13
BRANCH   1  22
HETATM   22  N2  UNL     1      25.884   3.060  51.987  1.00  0.00    -0.326 N 
HETATM   23  C5  UNL     1      26.707   1.899  52.066  1.00  0.00     0.250 C 
HETATM   24  O1  UNL     1      26.466   0.872  51.379  1.00  0.00    -0.271 OA
HETATM   25  H11 UNL     1      26.041   3.932  52.533  1.00  0.00     0.169 HD
BRANCH  23  26
HETATM   26  C4  UNL     1      27.849   2.053  53.031  1.00  0.00     0.374 C 
BRANCH  26  27
HETATM   27  N1  UNL     1      28.089   0.739  53.591  1.00  0.00     0.092 N 
HETATM   28  C3  UNL     1      27.221   0.464  54.718  1.00  0.00     0.310 C 
BRANCH  27  29
HETATM   29  C2  UNL     1      29.485   0.546  53.931  1.00  0.00     0.268 C 
HETATM   30  C1  UNL     1      29.864  -0.853  53.481  1.00  0.00     0.037 C 
ENDBRANCH  27  29
ENDBRANCH  26  27
ENDBRANCH  23  26
ENDBRANCH   1  22
TORSDOF 6
ENDMDL
MODEL 5
REMARK VINA RESULT:      -8.0      2.376      6.411
REMARK  6 active torsions:
REMARK  status: ('A' for Active; 'I' for Inactive)
REMARK    1  A    between atoms: C2_2  and  N1_3 
REMARK    2  A    between atoms: N1_3  and  C4_5 
REMARK    3  A    between atoms: C4_5  and  C5_6 
REMARK       I    between atoms: C5_6  and  N2_8 
REMARK    4  A    between atoms: N2_8  and  C6_9 
REMARK    5  A    between atoms: C13_18  and  N5_19 
REMARK    6  A    between atoms: N5_19  and  C14_20 
ROOT
HETATM    1  C6  UNL     1      22.452   1.490  51.628  1.00  0.00     0.035 A 
HETATM    2  C7  UNL     1      22.655   0.708  52.741  1.00  0.00     0.030 A 
HETATM    3  C8  UNL     1      23.940   0.589  53.217  1.00  0.00     0.016 A 
HETATM    4  C9  UNL     1      25.000   1.241  52.588  1.00  0.00     0.000 A 
HETATM    5  C10 UNL     1      26.229   1.053  53.143  1.00  0.00     0.073 A 
HETATM    6  C11 UNL     1      26.484   0.245  54.304  1.00  0.00     0.102 C 
HETATM    7  N3  UNL     1      26.672  -0.404  55.247  1.00  0.00    -0.191 NA
HETATM    8  C12 UNL     1      27.272   1.684  52.541  1.00  0.00     0.142 A 
HETATM    9  N4  UNL     1      27.067   2.441  51.461  1.00  0.00    -0.241 NA
HETATM   10  C13 UNL     1      25.885   2.660  50.875  1.00  0.00     0.139 A 
HETATM   11  C20 UNL     1      24.830   2.032  51.473  1.00  0.00     0.024 A 
HETATM   12  C21 UNL     1      23.529   2.116  51.040  1.00  0.00     0.045 A 
ENDROOT
BRANCH  10  13
HETATM   13  N5  UNL     1      25.681   3.456  49.742  1.00  0.00    -0.340 N 
HETATM   14  H15 UNL     1      24.986   3.206  49.025  1.00  0.00     0.167 HD
BRANCH  13  15
HETATM   15  C14 UNL     1      26.310   4.657  49.359  1.00  0.00     0.035 A 
HETATM   16  C15 UNL     1      27.514   4.767  48.677  1.00  0.00     0.029 A 
HETATM   17  C16 UNL     1      28.117   5.928  48.314  1.00  0.00     0.004 A 
HETATM   18  C17 UNL     1      27.534   7.124  48.622  1.00  0.00     0.019 A 
HETATM   19  C18 UNL     1      26.331   7.089  49.303  1.00  0.00     0.013 A 
HETATM   20 BR1  UNL     1      25.562   8.788  49.706  1.00  0.00    -0.051 Br
HETATM   21  C19 UNL     1      25.767   5.878  49.644  1.00  0.00     0.048 A 
ENDBRANCH  13  15
ENDBRANCH  10  13
BRANCH   1  22
HETATM   22  N2  UNL     1      21.113   1.594  51.160  1.00  0.00    -0.326 N 
HETATM   23  C5  UNL     1      20.250   2.533  51.796  1.00  0.00     0.250 C 
HETATM   24  O1  UNL     1      20.648   3.256  52.746  1.00  0.00    -0.271 OA
HETATM   25  H11 UNL     1      20.832   0.975  50.372  1.00  0.00     0.169 HD
BRANCH  23  26
HETATM   26  C4  UNL     1      18.866   2.548  51.211  1.00  0.00     0.374 C 
BRANCH  26  27
HETATM   27  N1  UNL     1      18.570   3.930  50.899  1.00  0.00     0.092 N 
HETATM   28  C3  UNL     1      17.146   4.192  50.893  1.00  0.00     0.310 C 
BRANCH  27  29
HETATM   29  C2  UNL     1      19.196   4.348  49.659  1.00  0.00     0.268 C 
HETATM   30  C1  UNL     1      18.179   5.185  48.906  1.00  0.00     0.037 C 
ENDBRANCH  27  29
ENDBRANCH  26  27
ENDBRANCH  23  26
ENDBRANCH   1  22
TORSDOF 6
ENDMDL
MODEL 6
REMARK VINA RESULT:      -7.9      2.335      6.330
REMARK  6 active torsions:
REMARK  status: ('A' for Active; 'I' for Inactive)
REMARK    1  A    between atoms: C2_2  and  N1_3 
REMARK    2  A    between atoms: N1_3  and  C4_5 
REMARK    3  A    between atoms: C4_5  and  C5_6 
REMARK       I    between atoms: C5_6  and  N2_8 
REMARK    4  A    between atoms: N2_8  and  C6_9 
REMARK    5  A    between atoms: C13_18  and  N5_19 
REMARK    6  A    between atoms: N5_19  and  C14_20 
ROOT
HETATM    1  C6  UNL     1      22.367   0.560  53.037  1.00  0.00     0.035 A 
HETATM    2  C7  UNL     1      22.916  -0.680  53.271  1.00  0.00     0.030 A 
HETATM    3  C8  UNL     1      24.278  -0.816  53.128  1.00  0.00     0.016 A 
HETATM    4  C9  UNL     1      25.072   0.269  52.758  1.00  0.00     0.000 A 
HETATM    5  C10 UNL     1      26.406   0.020  52.646  1.00  0.00     0.073 A 
HETATM    6  C11 UNL     1      27.019  -1.258  52.881  1.00  0.00     0.102 C 
HETATM    7  N3  UNL     1      27.500  -2.294  53.083  1.00  0.00    -0.191 NA
HETATM    8  C12 UNL     1      27.193   1.069  52.286  1.00  0.00     0.142 A 
HETATM    9  N4  UNL     1      26.652   2.268  52.061  1.00  0.00    -0.241 NA
HETATM   10  C13 UNL     1      25.352   2.569  52.156  1.00  0.00     0.139 A 
HETATM   11  C20 UNL     1      24.553   1.522  52.517  1.00  0.00     0.024 A 
HETATM   12  C21 UNL     1      23.191   1.602  52.673  1.00  0.00     0.045 A 
ENDROOT
BRANCH  10  13
HETATM   13  N5  UNL     1      24.795   3.830  51.917  1.00  0.00    -0.340 N 
HETATM   14  H15 UNL     1      24.496   4.444  52.688  1.00  0.00     0.167 HD
BRANCH  13  15
HETATM   15  C14 UNL     1      24.540   4.486  50.696  1.00  0.00     0.035 A 
HETATM   16  C15 UNL     1      25.205   5.606  50.215  1.00  0.00     0.029 A 
HETATM   17  C16 UNL     1      24.951   6.236  49.040  1.00  0.00     0.004 A 
HETATM   18  C17 UNL     1      23.965   5.772  48.218  1.00  0.00     0.019 A 
HETATM   19  C18 UNL     1      23.260   4.659  48.634  1.00  0.00     0.013 A 
HETATM   20 BR1  UNL     1      21.894   4.055  47.446  1.00  0.00    -0.051 Br
HETATM   21  C19 UNL     1      23.564   4.061  49.840  1.00  0.00     0.048 A 
ENDBRANCH  13  15
ENDBRANCH  10  13
BRANCH   1  22
HETATM   22  N2  UNL     1      20.958   0.669  53.192  1.00  0.00    -0.326 N 
HETATM   23  C5  UNL     1      20.141   0.514  52.033  1.00  0.00     0.250 C 
HETATM   24  O1  UNL     1      20.640   0.287  50.901  1.00  0.00    -0.271 OA
HETATM   25  H11 UNL     1      20.595   0.858  54.148  1.00  0.00     0.169 HD
BRANCH  23  26
HETATM   26  C4  UNL     1      18.674   0.650  52.328  1.00  0.00     0.374 C 
BRANCH  26  27
HETATM   27  N1  UNL     1      18.028  -0.495  51.721  1.00  0.00     0.092 N 
HETATM   28  C3  UNL     1      17.323  -0.140  50.507  1.00  0.00     0.310 C 
BRANCH  27  29
HETATM   29  C2  UNL     1      17.165  -1.186  52.660  1.00  0.00     0.268 C 
HETATM   30  C1  UNL     1      18.042  -2.137  53.455  1.00  0.00     0.037 C 
ENDBRANCH  27  29
ENDBRANCH  26  27
ENDBRANCH  23  26
ENDBRANCH   1  22
TORSDOF 6
ENDMDL
MODEL 7
REMARK VINA RESULT:      -7.8      3.326      7.199
REMARK  6 active torsions:
REMARK  status: ('A' for Active; 'I' for Inactive)
REMARK    1  A    between atoms: C2_2  and  N1_3 
REMARK    2  A    between atoms: N1_3  and  C4_5 
REMARK    3  A    between atoms: C4_5  and  C5_6 
REMARK       I    between atoms: C5_6  and  N2_8 
REMARK    4  A    between atoms: N2_8  and  C6_9 
REMARK    5  A    between atoms: C13_18  and  N5_19 
REMARK    6  A    between atoms: N5_19  and  C14_20 
ROOT
HETATM    1  C6  UNL     1      25.071   2.858  50.716  1.00  0.00     0.035 A 
HETATM    2  C7  UNL     1      26.329   2.305  50.780  1.00  0.00     0.030 A 
HETATM    3  C8  UNL     1      26.521   1.242  51.632  1.00  0.00     0.016 A 
HETATM    4  C9  UNL     1      25.472   0.743  52.403  1.00  0.00     0.000 A 
HETATM    5  C10 UNL     1      25.775  -0.311  53.211  1.00  0.00     0.073 A 
HETATM    6  C11 UNL     1      27.074  -0.916  53.308  1.00  0.00     0.102 C 
HETATM    7  N3  UNL     1      28.127  -1.400  53.368  1.00  0.00    -0.191 NA
HETATM    8  C12 UNL     1      24.761  -0.807  53.969  1.00  0.00     0.142 A 
HETATM    9  N4  UNL     1      23.543  -0.265  53.901  1.00  0.00    -0.241 NA
HETATM   10  C13 UNL     1      23.190   0.767  53.127  1.00  0.00     0.139 A 
HETATM   11  C20 UNL     1      24.202   1.273  52.362  1.00  0.00     0.024 A 
HETATM   12  C21 UNL     1      24.065   2.332  51.497  1.00  0.00     0.045 A 
ENDROOT
BRANCH  10  13
HETATM   13  N5  UNL     1      21.910   1.329  53.064  1.00  0.00    -0.340 N 
HETATM   14  H15 UNL     1      21.675   2.196  53.567  1.00  0.00     0.167 HD
BRANCH  13  15
HETATM   15  C14 UNL     1      20.765   0.887  52.371  1.00  0.00     0.035 A 
HETATM   16  C15 UNL     1      20.412   1.231  51.074  1.00  0.00     0.029 A 
HETATM   17  C16 UNL     1      19.305   0.805  50.414  1.00  0.00     0.004 A 
HETATM   18  C17 UNL     1      18.425  -0.036  51.031  1.00  0.00     0.019 A 
HETATM   19  C18 UNL     1      18.714  -0.420  52.328  1.00  0.00     0.013 A 
HETATM   20 BR1  UNL     1      17.451  -1.596  53.141  1.00  0.00    -0.051 Br
HETATM   21  C19 UNL     1      19.855   0.046  52.946  1.00  0.00     0.048 A 
ENDBRANCH  13  15
ENDBRANCH  10  13
BRANCH   1  22
HETATM   22  N2  UNL     1      24.904   3.955  49.828  1.00  0.00    -0.326 N 
HETATM   23  C5  UNL     1      24.477   5.201  50.373  1.00  0.00     0.250 C 
HETATM   24  O1  UNL     1      24.250   5.340  51.603  1.00  0.00    -0.271 OA
HETATM   25  H11 UNL     1      25.105   3.790  48.820  1.00  0.00     0.169 HD
BRANCH  23  26
HETATM   26  C4  UNL     1      24.340   6.280  49.335  1.00  0.00     0.374 C 
BRANCH  26  27
HETATM   27  N1  UNL     1      25.451   7.185  49.539  1.00  0.00     0.092 N 
HETATM   28  C3  UNL     1      25.016   8.470  50.047  1.00  0.00     0.310 C 
BRANCH  27  29
HETATM   29  C2  UNL     1      26.256   7.328  48.342  1.00  0.00     0.268 C 
HETATM   30  C1  UNL     1      27.307   6.233  48.379  1.00  0.00     0.037 C 
ENDBRANCH  27  29
ENDBRANCH  26  27
ENDBRANCH  23  26
ENDBRANCH   1  22
TORSDOF 6
ENDMDL
MODEL 8
REMARK VINA RESULT:      -7.6      3.339      7.450
REMARK  6 active torsions:
REMARK  status: ('A' for Active; 'I' for Inactive)
REMARK    1  A    between atoms: C2_2  and  N1_3 
REMARK    2  A    between atoms: N1_3  and  C4_5 
REMARK    3  A    between atoms: C4_5  and  C5_6 
REMARK       I    between atoms: C5_6  and  N2_8 
REMARK    4  A    between atoms: N2_8  and  C6_9 
REMARK    5  A    between atoms: C13_18  and  N5_19 
REMARK    6  A    between atoms: N5_19  and  C14_20 
ROOT
HETATM    1  C6  UNL     1      25.144   3.068  51.462  1.00  0.00     0.035 A 
HETATM    2  C7  UNL     1      26.415   2.547  51.391  1.00  0.00     0.030 A 
HETATM    3  C8  UNL     1      26.644   1.328  51.985  1.00  0.00     0.016 A 
HETATM    4  C9  UNL     1      25.619   0.645  52.639  1.00  0.00     0.000 A 
HETATM    5  C10 UNL     1      25.958  -0.552  53.191  1.00  0.00     0.073 A 
HETATM    6  C11 UNL     1      27.273  -1.131  53.139  1.00  0.00     0.102 C 
HETATM    7  N3  UNL     1      28.337  -1.589  53.081  1.00  0.00    -0.191 NA
HETATM    8  C12 UNL     1      24.968  -1.230  53.831  1.00  0.00     0.142 A 
HETATM    9  N4  UNL     1      23.737  -0.718  53.896  1.00  0.00    -0.241 NA
HETATM   10  C13 UNL     1      23.349   0.450  53.373  1.00  0.00     0.139 A 
HETATM   11  C20 UNL     1      24.336   1.138  52.727  1.00  0.00     0.024 A 
HETATM   12  C21 UNL     1      24.162   2.357  52.118  1.00  0.00     0.045 A 
ENDROOT
BRANCH  10  13
HETATM   13  N5  UNL     1      22.055   0.978  53.447  1.00  0.00    -0.340 N 
HETATM   14  H15 UNL     1      21.806   1.702  54.136  1.00  0.00     0.167 HD
BRANCH  13  15
HETATM   15  C14 UNL     1      20.913   0.677  52.679  1.00  0.00     0.035 A 
HETATM   16  C15 UNL     1      20.631   1.160  51.409  1.00  0.00     0.029 A 
HETATM   17  C16 UNL     1      19.526   0.869  50.676  1.00  0.00     0.004 A 
HETATM   18  C17 UNL     1      18.572   0.034  51.184  1.00  0.00     0.019 A 
HETATM   19  C18 UNL     1      18.787  -0.484  52.447  1.00  0.00     0.013 A 
HETATM   20 BR1  UNL     1      17.423  -1.644  53.106  1.00  0.00    -0.051 Br
HETATM   21  C19 UNL     1      19.931  -0.152  53.143  1.00  0.00     0.048 A 
ENDBRANCH  13  15
ENDBRANCH  10  13
BRANCH   1  22
HETATM   22  N2  UNL     1      24.938   4.329  50.839  1.00  0.00    -0.326 N 
HETATM   23  C5  UNL     1      24.315   4.350  49.557  1.00  0.00     0.250 C 
HETATM   24  O1  UNL     1      23.954   3.292  48.981  1.00  0.00    -0.271 OA
HETATM   25  H11 UNL     1      25.254   5.175  51.356  1.00  0.00     0.169 HD
BRANCH  23  26
HETATM   26  C4  UNL     1      24.153   5.740  49.006  1.00  0.00     0.374 C 
BRANCH  26  27
HETATM   27  N1  UNL     1      22.737   6.035  49.055  1.00  0.00     0.092 N 
HETATM   28  C3  UNL     1      22.282   6.705  47.854  1.00  0.00     0.310 C 
BRANCH  27  29
HETATM   29  C2  UNL     1      22.382   6.776  50.250  1.00  0.00     0.268 C 
HETATM   30  C1  UNL     1      21.632   8.016  49.799  1.00  0.00     0.037 C 
ENDBRANCH  27  29
ENDBRANCH  26  27
ENDBRANCH  23  26
ENDBRANCH   1  22
TORSDOF 6
ENDMDL
MODEL 9
REMARK VINA RESULT:      -7.5      4.074      6.835
REMARK  6 active torsions:
REMARK  status: ('A' for Active; 'I' for Inactive)
REMARK    1  A    between atoms: C2_2  and  N1_3 
REMARK    2  A    between atoms: N1_3  and  C4_5 
REMARK    3  A    between atoms: C4_5  and  C5_6 
REMARK       I    between atoms: C5_6  and  N2_8 
REMARK    4  A    between atoms: N2_8  and  C6_9 
REMARK    5  A    between atoms: C13_18  and  N5_19 
REMARK    6  A    between atoms: N5_19  and  C14_20 
ROOT
HETATM    1  C6  UNL     1      26.038   3.618  49.827  1.00  0.00     0.035 A 
HETATM    2  C7  UNL     1      24.921   4.410  49.959  1.00  0.00     0.030 A 
HETATM    3  C8  UNL     1      24.979   5.691  49.460  1.00  0.00     0.016 A 
HETATM    4  C9  UNL     1      26.134   6.167  48.842  1.00  0.00     0.000 A 
HETATM    5  C10 UNL     1      26.081   7.449  48.385  1.00  0.00     0.073 A 
HETATM    6  C11 UNL     1      24.935   8.309  48.502  1.00  0.00     0.102 C 
HETATM    7  N3  UNL     1      23.999   8.987  48.596  1.00  0.00    -0.191 NA
HETATM    8  C12 UNL     1      27.201   7.927  47.780  1.00  0.00     0.142 A 
HETATM    9  N4  UNL     1      28.281   7.152  47.656  1.00  0.00    -0.241 NA
HETATM   10  C13 UNL     1      28.389   5.890  48.085  1.00  0.00     0.139 A 
HETATM   11  C20 UNL     1      27.269   5.400  48.694  1.00  0.00     0.024 A 
HETATM   12  C21 UNL     1      27.157   4.132  49.210  1.00  0.00     0.045 A 
ENDROOT
BRANCH  10  13
HETATM   13  N5  UNL     1      29.526   5.086  47.951  1.00  0.00    -0.340 N 
HETATM   14  H15 UNL     1      29.462   4.103  47.650  1.00  0.00     0.167 HD
BRANCH  13  15
HETATM   15  C14 UNL     1      30.882   5.399  48.173  1.00  0.00     0.035 A 
HETATM   16  C15 UNL     1      31.367   6.545  48.788  1.00  0.00     0.029 A 
HETATM   17  C16 UNL     1      32.675   6.842  48.995  1.00  0.00     0.004 A 
HETATM   18  C17 UNL     1      33.644   5.974  48.581  1.00  0.00     0.019 A 
HETATM   19  C18 UNL     1      33.233   4.810  47.960  1.00  0.00     0.013 A 
HETATM   20 BR1  UNL     1      34.629   3.634  47.404  1.00  0.00    -0.051 Br
HETATM   21  C19 UNL     1      31.888   4.563  47.778  1.00  0.00     0.048 A 
ENDBRANCH  13  15
ENDBRANCH  10  13
BRANCH   1  22
HETATM   22  N2  UNL     1      25.947   2.301  50.353  1.00  0.00    -0.326 N 
HETATM   23  C5  UNL     1      26.783   1.959  51.457  1.00  0.00     0.250 C 
HETATM   24  O1  UNL     1      27.583   2.790  51.960  1.00  0.00    -0.271 OA
HETATM   25  H11 UNL     1      25.271   1.650  49.903  1.00  0.00     0.169 HD
BRANCH  23  26
HETATM   26  C4  UNL     1      26.594   0.542  51.920  1.00  0.00     0.374 C 
BRANCH  26  27
HETATM   27  N1  UNL     1      25.899   0.618  53.188  1.00  0.00     0.092 N 
HETATM   28  C3  UNL     1      26.747   0.226  54.295  1.00  0.00     0.310 C 
BRANCH  27  29
HETATM   29  C2  UNL     1      24.661  -0.137  53.168  1.00  0.00     0.268 C 
HETATM   30  C1  UNL     1      23.534   0.859  52.962  1.00  0.00     0.037 C 
ENDBRANCH  27  29
ENDBRANCH  26  27
ENDBRANCH  23  26
ENDBRANCH   1  22
TORSDOF 6
ENDMDL
