MODEL 1
REMARK VINA RESULT:      -6.8      0.000      0.000
REMARK  5 active torsions:
REMARK  status: ('A' for Active; 'I' for Inactive)
REMARK    1  A    between atoms: C5_7  and  C6_8 
REMARK    2  A    between atoms: C7_9  and  N3_10 
REMARK       I    between atoms: N3_10  and  C8_11 
REMARK       I    between atoms: C8_11  and  N4_13 
REMARK    3  A    between atoms: N4_13  and  C9_14 
REMARK    4  A    between atoms: C9_14  and  C10_15 
REMARK    5  A    between atoms: C10_15  and  N5_16 
ROOT
HETATM    1  N3  UNL     1      23.570   0.959  52.560  1.00  0.00    -0.319 N 
HETATM    2  C8  UNL     1      23.543   2.379  52.561  1.00  0.00     0.320 C 
HETATM    3  O1  UNL     1      24.551   3.125  52.800  1.00  0.00    -0.247 OA
HETATM    4  N4  UNL     1      22.325   3.083  52.279  1.00  0.00    -0.341 N 
HETATM    5  H8  UNL     1      22.714   0.430  52.345  1.00  0.00     0.170 HD
HETATM    6  H9  UNL     1      21.514   2.460  52.092  1.00  0.00     0.164 HD
ENDROOT
BRANCH   1   7
HETATM    7  C7  UNL     1      24.731   0.262  52.842  1.00  0.00     0.093 C 
HETATM    8  C6  UNL     1      25.991   0.020  52.681  1.00  0.00     0.032 C 
BRANCH   8   9
HETATM    9  C5  UNL     1      27.207  -0.673  52.944  1.00  0.00     0.007 A 
HETATM   10  C2  UNL     1      28.341   0.017  53.308  1.00  0.00     0.043 A 
HETATM   11  C1  UNL     1      28.443   1.481  53.494  1.00  0.00     0.071 C 
HETATM   12  N1  UNL     1      29.456  -0.742  53.517  1.00  0.00    -0.246 NA
HETATM   13  C3  UNL     1      29.383  -2.067  53.362  1.00  0.00     0.232 A 
HETATM   14  N2  UNL     1      28.260  -2.740  53.004  1.00  0.00    -0.253 NA
HETATM   15  C4  UNL     1      27.114  -2.060  52.778  1.00  0.00     0.131 A 
ENDBRANCH   8   9
ENDBRANCH   1   7
BRANCH   4  16
HETATM   16  C9  UNL     1      22.441   4.551  52.307  1.00  0.00     0.154 C 
BRANCH  16  17
HETATM   17  C10 UNL     1      22.022   5.023  50.955  1.00  0.00     0.292 C 
BRANCH  17  18
HETATM   18  N5  UNL     1      23.077   5.476  50.100  1.00  0.00     0.090 N 
HETATM   19  C11 UNL     1      23.483   4.480  49.137  1.00  0.00     0.272 C 
HETATM   20  C12 UNL     1      24.802   3.842  49.402  1.00  0.00     0.030 C 
HETATM   21  C13 UNL     1      25.862   4.924  49.339  1.00  0.00     0.003 C 
HETATM   22  C14 UNL     1      25.436   6.164  50.047  1.00  0.00     0.030 C 
HETATM   23  C15 UNL     1      24.186   5.985  50.873  1.00  0.00     0.272 C 
ENDBRANCH  17  18
ENDBRANCH  16  17
ENDBRANCH   4  16
TORSDOF 5
ENDMDL
MODEL 2
REMARK VINA RESULT:      -6.6      1.606      1.945
REMARK  5 active torsions:
REMARK  status: ('A' for Active; 'I' for Inactive)
REMARK    1  A    between atoms: C5_7  and  C6_8 
REMARK    2  A    between atoms: C7_9  and  N3_10 
REMARK       I    between atoms: N3_10  and  C8_11 
REMARK       I    between atoms: C8_11  and  N4_13 
REMARK    3  A    between atoms: N4_13  and  C9_14 
REMARK    4  A    between atoms: C9_14  and  C10_15 
REMARK    5  A    between atoms: C10_15  and  N5_16 
ROOT
HETATM    1  N3  UNL     1      25.165   2.877  53.484  1.00  0.00    -0.319 N 
HETATM    2  C8  UNL     1      24.858   3.524  52.257  1.00  0.00     0.320 C 
HETATM    3  O1  UNL     1      25.344   3.200  51.122  1.00  0.00    -0.247 OA
HETATM    4  N4  UNL     1      23.941   4.627  52.227  1.00  0.00    -0.341 N 
HETATM    5  H8  UNL     1      24.720   3.194  54.356  1.00  0.00     0.170 HD
HETATM    6  H9  UNL     1      23.559   4.881  53.160  1.00  0.00     0.164 HD
ENDROOT
BRANCH   1   7
HETATM    7  C7  UNL     1      26.057   1.821  53.535  1.00  0.00     0.093 C 
HETATM    8  C6  UNL     1      26.485   0.662  53.153  1.00  0.00     0.032 C 
BRANCH   8   9
HETATM    9  C5  UNL     1      27.381  -0.445  53.176  1.00  0.00     0.007 A 
HETATM   10  C2  UNL     1      28.668  -0.293  53.640  1.00  0.00     0.043 A 
HETATM   11  C1  UNL     1      29.257   0.954  54.173  1.00  0.00     0.071 C 
HETATM   12  N1  UNL     1      29.448  -1.413  53.600  1.00  0.00    -0.246 NA
HETATM   13  C3  UNL     1      28.933  -2.552  53.129  1.00  0.00     0.232 A 
HETATM   14  N2  UNL     1      27.662  -2.693  52.674  1.00  0.00    -0.253 NA
HETATM   15  C4  UNL     1      26.826  -1.631  52.680  1.00  0.00     0.131 A 
ENDBRANCH   8   9
ENDBRANCH   1   7
BRANCH   4  16
HETATM   16  C9  UNL     1      23.708   5.199  50.890  1.00  0.00     0.154 C 
BRANCH  16  17
HETATM   17  C10 UNL     1      24.321   6.560  50.911  1.00  0.00     0.292 C 
BRANCH  17  18
HETATM   18  N5  UNL     1      25.012   6.949  49.720  1.00  0.00     0.090 N 
HETATM   19  C11 UNL     1      25.331   5.830  48.866  1.00  0.00     0.272 C 
HETATM   20  C12 UNL     1      26.769   5.444  48.838  1.00  0.00     0.030 C 
HETATM   21  C13 UNL     1      27.553   6.615  48.281  1.00  0.00     0.003 C 
HETATM   22  C14 UNL     1      27.102   7.913  48.858  1.00  0.00     0.030 C 
HETATM   23  C15 UNL     1      26.168   7.756  50.033  1.00  0.00     0.272 C 
ENDBRANCH  17  18
ENDBRANCH  16  17
ENDBRANCH   4  16
TORSDOF 5
ENDMDL
MODEL 3
REMARK VINA RESULT:      -6.6      2.040      3.300
REMARK  5 active torsions:
REMARK  status: ('A' for Active; 'I' for Inactive)
REMARK    1  A    between atoms: C5_7  and  C6_8 
REMARK    2  A    between atoms: C7_9  and  N3_10 
REMARK       I    between atoms: N3_10  and  C8_11 
REMARK       I    between atoms: C8_11  and  N4_13 
REMARK    3  A    between atoms: N4_13  and  C9_14 
REMARK    4  A    between atoms: C9_14  and  C10_15 
REMARK    5  A    between atoms: C10_15  and  N5_16 
ROOT
HETATM    1  N3  UNL     1      25.343   2.980  53.110  1.00  0.00    -0.319 N 
HETATM    2  C8  UNL     1      24.382   3.181  52.082  1.00  0.00     0.320 C 
HETATM    3  O1  UNL     1      24.218   2.409  51.079  1.00  0.00    -0.247 OA
HETATM    4  N4  UNL     1      23.505   4.316  52.120  1.00  0.00    -0.341 N 
HETATM    5  H8  UNL     1      25.403   3.645  53.892  1.00  0.00     0.170 HD
HETATM    6  H9  UNL     1      23.656   4.937  52.940  1.00  0.00     0.164 HD
ENDROOT
BRANCH   1   7
HETATM    7  C7  UNL     1      26.206   1.900  53.084  1.00  0.00     0.093 C 
HETATM    8  C6  UNL     1      26.489   0.653  53.277  1.00  0.00     0.032 C 
BRANCH   8   9
HETATM    9  C5  UNL     1      27.347  -0.484  53.266  1.00  0.00     0.007 A 
HETATM   10  C2  UNL     1      28.618  -0.405  53.787  1.00  0.00     0.043 A 
HETATM   11  C1  UNL     1      29.225   0.787  54.419  1.00  0.00     0.071 C 
HETATM   12  N1  UNL     1      29.364  -1.546  53.708  1.00  0.00    -0.246 NA
HETATM   13  C3  UNL     1      28.832  -2.636  53.148  1.00  0.00     0.232 A 
HETATM   14  N2  UNL     1      27.576  -2.706  52.637  1.00  0.00    -0.253 NA
HETATM   15  C4  UNL     1      26.775  -1.618  52.677  1.00  0.00     0.131 A 
ENDBRANCH   8   9
ENDBRANCH   1   7
BRANCH   4  16
HETATM   16  C9  UNL     1      22.556   4.399  50.997  1.00  0.00     0.154 C 
BRANCH  16  17
HETATM   17  C10 UNL     1      21.195   4.414  51.608  1.00  0.00     0.292 C 
BRANCH  17  18
HETATM   18  N5  UNL     1      20.426   3.218  51.443  1.00  0.00     0.090 N 
HETATM   19  C11 UNL     1      20.407   2.396  52.629  1.00  0.00     0.272 C 
HETATM   20  C12 UNL     1      21.220   1.151  52.551  1.00  0.00     0.030 C 
HETATM   21  C13 UNL     1      20.640   0.287  51.449  1.00  0.00     0.003 C 
HETATM   22  C14 UNL     1      20.307   1.082  50.234  1.00  0.00     0.030 C 
HETATM   23  C15 UNL     1      20.849   2.490  50.270  1.00  0.00     0.272 C 
ENDBRANCH  17  18
ENDBRANCH  16  17
ENDBRANCH   4  16
TORSDOF 5
ENDMDL
MODEL 4
REMARK VINA RESULT:      -6.5      1.619      2.348
REMARK  5 active torsions:
REMARK  status: ('A' for Active; 'I' for Inactive)
REMARK    1  A    between atoms: C5_7  and  C6_8 
REMARK    2  A    between atoms: C7_9  and  N3_10 
REMARK       I    between atoms: N3_10  and  C8_11 
REMARK       I    between atoms: C8_11  and  N4_13 
REMARK    3  A    between atoms: N4_13  and  C9_14 
REMARK    4  A    between atoms: C9_14  and  C10_15 
REMARK    5  A    between atoms: C10_15  and  N5_16 
ROOT
HETATM    1  N3  UNL     1      25.048   3.094  53.609  1.00  0.00    -0.319 N 
HETATM    2  C8  UNL     1      24.658   3.728  52.399  1.00  0.00     0.320 C 
HETATM    3  O1  UNL     1      25.012   3.349  51.232  1.00  0.00    -0.247 OA
HETATM    4  N4  UNL     1      23.804   4.881  52.425  1.00  0.00    -0.341 N 
HETATM    5  H8  UNL     1      24.709   3.457  54.510  1.00  0.00     0.170 HD
HETATM    6  H9  UNL     1      23.530   5.179  53.383  1.00  0.00     0.164 HD
ENDROOT
BRANCH   1   7
HETATM    7  C7  UNL     1      25.881   1.991  53.605  1.00  0.00     0.093 C 
HETATM    8  C6  UNL     1      27.033   1.424  53.448  1.00  0.00     0.032 C 
BRANCH   8   9
HETATM    9  C5  UNL     1      27.923   0.312  53.432  1.00  0.00     0.007 A 
HETATM   10  C2  UNL     1      27.453  -0.956  53.180  1.00  0.00     0.043 A 
HETATM   11  C1  UNL     1      26.050  -1.319  52.880  1.00  0.00     0.071 C 
HETATM   12  N1  UNL     1      28.387  -1.952  53.209  1.00  0.00    -0.246 NA
HETATM   13  C3  UNL     1      29.660  -1.645  53.470  1.00  0.00     0.232 A 
HETATM   14  N2  UNL     1      30.116  -0.391  53.716  1.00  0.00    -0.253 NA
HETATM   15  C4  UNL     1      29.253   0.650  53.707  1.00  0.00     0.131 A 
ENDBRANCH   8   9
ENDBRANCH   1   7
BRANCH   4  16
HETATM   16  C9  UNL     1      23.473   5.433  51.101  1.00  0.00     0.154 C 
BRANCH  16  17
HETATM   17  C10 UNL     1      24.146   6.763  51.028  1.00  0.00     0.292 C 
BRANCH  17  18
HETATM   18  N5  UNL     1      24.836   7.044  49.807  1.00  0.00     0.090 N 
HETATM   19  C11 UNL     1      25.058   5.865  49.004  1.00  0.00     0.272 C 
HETATM   20  C12 UNL     1      26.464   5.377  48.969  1.00  0.00     0.030 C 
HETATM   21  C13 UNL     1      27.316   6.462  48.341  1.00  0.00     0.003 C 
HETATM   22  C14 UNL     1      26.970   7.814  48.861  1.00  0.00     0.030 C 
HETATM   23  C15 UNL     1      26.053   7.781  50.058  1.00  0.00     0.272 C 
ENDBRANCH  17  18
ENDBRANCH  16  17
ENDBRANCH   4  16
TORSDOF 5
ENDMDL
MODEL 5
REMARK VINA RESULT:      -6.5      2.152      3.230
REMARK  5 active torsions:
REMARK  status: ('A' for Active; 'I' for Inactive)
REMARK    1  A    between atoms: C5_7  and  C6_8 
REMARK    2  A    between atoms: C7_9  and  N3_10 
REMARK       I    between atoms: N3_10  and  C8_11 
REMARK       I    between atoms: C8_11  and  N4_13 
REMARK    3  A    between atoms: N4_13  and  C9_14 
REMARK    4  A    between atoms: C9_14  and  C10_15 
REMARK    5  A    between atoms: C10_15  and  N5_16 
ROOT
HETATM    1  N3  UNL     1      24.699   3.292  53.495  1.00  0.00    -0.319 N 
HETATM    2  C8  UNL     1      23.924   3.671  52.366  1.00  0.00     0.320 C 
HETATM    3  O1  UNL     1      24.138   3.275  51.171  1.00  0.00    -0.247 OA
HETATM    4  N4  UNL     1      22.808   4.560  52.516  1.00  0.00    -0.341 N 
HETATM    5  H8  UNL     1      24.453   3.648  54.428  1.00  0.00     0.170 HD
HETATM    6  H9  UNL     1      22.652   4.877  53.494  1.00  0.00     0.164 HD
ENDROOT
BRANCH   1   7
HETATM    7  C7  UNL     1      25.787   2.447  53.368  1.00  0.00     0.093 C 
HETATM    8  C6  UNL     1      26.502   1.436  53.738  1.00  0.00     0.032 C 
BRANCH   8   9
HETATM    9  C5  UNL     1      27.609   0.544  53.642  1.00  0.00     0.007 A 
HETATM   10  C2  UNL     1      27.418  -0.772  53.287  1.00  0.00     0.043 A 
HETATM   11  C1  UNL     1      26.122  -1.400  52.949  1.00  0.00     0.071 C 
HETATM   12  N1  UNL     1      28.543  -1.544  53.244  1.00  0.00    -0.246 NA
HETATM   13  C3  UNL     1      29.724  -0.994  53.538  1.00  0.00     0.232 A 
HETATM   14  N2  UNL     1      29.904   0.305  53.886  1.00  0.00    -0.253 NA
HETATM   15  C4  UNL     1      28.839   1.135  53.952  1.00  0.00     0.131 A 
ENDBRANCH   8   9
ENDBRANCH   1   7
BRANCH   4  16
HETATM   16  C9  UNL     1      22.090   4.864  51.267  1.00  0.00     0.154 C 
BRANCH  16  17
HETATM   17  C10 UNL     1      20.729   4.270  51.419  1.00  0.00     0.292 C 
BRANCH  17  18
HETATM   18  N5  UNL     1      20.377   3.270  50.459  1.00  0.00     0.090 N 
HETATM   19  C11 UNL     1      20.398   1.935  51.007  1.00  0.00     0.272 C 
HETATM   20  C12 UNL     1      21.536   1.084  50.563  1.00  0.00     0.030 C 
HETATM   21  C13 UNL     1      21.423   0.905  49.062  1.00  0.00     0.003 C 
HETATM   22  C14 UNL     1      21.083   2.180  48.372  1.00  0.00     0.030 C 
HETATM   23  C15 UNL     1      21.182   3.392  49.266  1.00  0.00     0.272 C 
ENDBRANCH  17  18
ENDBRANCH  16  17
ENDBRANCH   4  16
TORSDOF 5
ENDMDL
MODEL 6
REMARK VINA RESULT:      -6.4      6.026      8.686
REMARK  5 active torsions:
REMARK  status: ('A' for Active; 'I' for Inactive)
REMARK    1  A    between atoms: C5_7  and  C6_8 
REMARK    2  A    between atoms: C7_9  and  N3_10 
REMARK       I    between atoms: N3_10  and  C8_11 
REMARK       I    between atoms: C8_11  and  N4_13 
REMARK    3  A    between atoms: N4_13  and  C9_14 
REMARK    4  A    between atoms: C9_14  and  C10_15 
REMARK    5  A    between atoms: C10_15  and  N5_16 
ROOT
HETATM    1  N3  UNL     1      28.937   6.057  47.814  1.00  0.00    -0.319 N 
HETATM    2  C8  UNL     1      30.331   6.040  48.087  1.00  0.00     0.320 C 
HETATM    3  O1  UNL     1      30.896   5.275  48.939  1.00  0.00    -0.247 OA
HETATM    4  N4  UNL     1      31.220   6.924  47.387  1.00  0.00    -0.341 N 
HETATM    5  H8  UNL     1      28.563   6.699  47.102  1.00  0.00     0.170 HD
HETATM    6  H9  UNL     1      30.743   7.543  46.702  1.00  0.00     0.164 HD
ENDROOT
BRANCH   1   7
HETATM    7  C7  UNL     1      28.064   5.224  48.488  1.00  0.00     0.093 C 
HETATM    8  C6  UNL     1      26.898   4.926  48.960  1.00  0.00     0.032 C 
BRANCH   8   9
HETATM    9  C5  UNL     1      25.967   4.096  49.648  1.00  0.00     0.007 A 
HETATM   10  C2  UNL     1      24.613   4.287  49.494  1.00  0.00     0.043 A 
HETATM   11  C1  UNL     1      23.972   5.298  48.625  1.00  0.00     0.071 C 
HETATM   12  N1  UNL     1      23.810   3.449  50.214  1.00  0.00    -0.246 NA
HETATM   13  C3  UNL     1      24.368   2.524  50.999  1.00  0.00     0.232 A 
HETATM   14  N2  UNL     1      25.705   2.341  51.144  1.00  0.00    -0.253 NA
HETATM   15  C4  UNL     1      26.567   3.131  50.466  1.00  0.00     0.131 A 
ENDBRANCH   8   9
ENDBRANCH   1   7
BRANCH   4  16
HETATM   16  C9  UNL     1      32.638   6.797  47.763  1.00  0.00     0.154 C 
BRANCH  16  17
HETATM   17  C10 UNL     1      33.363   6.414  46.517  1.00  0.00     0.292 C 
BRANCH  17  18
HETATM   18  N5  UNL     1      33.804   5.055  46.446  1.00  0.00     0.090 N 
HETATM   19  C11 UNL     1      32.912   4.215  45.682  1.00  0.00     0.272 C 
HETATM   20  C12 UNL     1      32.094   3.264  46.484  1.00  0.00     0.030 C 
HETATM   21  C13 UNL     1      33.043   2.314  47.186  1.00  0.00     0.003 C 
HETATM   22  C14 UNL     1      34.213   3.026  47.772  1.00  0.00     0.030 C 
HETATM   23  C15 UNL     1      34.067   4.528  47.765  1.00  0.00     0.272 C 
ENDBRANCH  17  18
ENDBRANCH  16  17
ENDBRANCH   4  16
TORSDOF 5
ENDMDL
MODEL 7
REMARK VINA RESULT:      -6.4      2.850      4.669
REMARK  5 active torsions:
REMARK  status: ('A' for Active; 'I' for Inactive)
REMARK    1  A    between atoms: C5_7  and  C6_8 
REMARK    2  A    between atoms: C7_9  and  N3_10 
REMARK       I    between atoms: N3_10  and  C8_11 
REMARK       I    between atoms: C8_11  and  N4_13 
REMARK    3  A    between atoms: N4_13  and  C9_14 
REMARK    4  A    between atoms: C9_14  and  C10_15 
REMARK    5  A    between atoms: C10_15  and  N5_16 
ROOT
HETATM    1  N3  UNL     1      23.801   5.568  52.661  1.00  0.00    -0.319 N 
HETATM    2  C8  UNL     1      23.907   6.257  51.423  1.00  0.00     0.320 C 
HETATM    3  O1  UNL     1      23.709   5.730  50.277  1.00  0.00    -0.247 OA
HETATM    4  N4  UNL     1      24.258   7.648  51.394  1.00  0.00    -0.341 N 
HETATM    5  H8  UNL     1      23.966   6.071  53.543  1.00  0.00     0.170 HD
HETATM    6  H9  UNL     1      24.421   8.060  52.334  1.00  0.00     0.164 HD
ENDROOT
BRANCH   1   7
HETATM    7  C7  UNL     1      23.477   4.224  52.709  1.00  0.00     0.093 C 
HETATM    8  C6  UNL     1      23.750   2.988  52.971  1.00  0.00     0.032 C 
BRANCH   8   9
HETATM    9  C5  UNL     1      23.455   1.596  53.036  1.00  0.00     0.007 A 
HETATM   10  C2  UNL     1      24.461   0.677  53.229  1.00  0.00     0.043 A 
HETATM   11  C1  UNL     1      25.896   0.986  53.415  1.00  0.00     0.071 C 
HETATM   12  N1  UNL     1      24.072  -0.632  53.256  1.00  0.00    -0.246 NA
HETATM   13  C3  UNL     1      22.780  -0.932  53.098  1.00  0.00     0.232 A 
HETATM   14  N2  UNL     1      21.794  -0.019  52.908  1.00  0.00    -0.253 NA
HETATM   15  C4  UNL     1      22.098   1.297  52.869  1.00  0.00     0.131 A 
ENDBRANCH   8   9
ENDBRANCH   1   7
BRANCH   4  16
HETATM   16  C9  UNL     1      24.326   8.239  50.047  1.00  0.00     0.154 C 
BRANCH  16  17
HETATM   17  C10 UNL     1      25.662   8.896  49.950  1.00  0.00     0.292 C 
BRANCH  17  18
HETATM   18  N5  UNL     1      26.486   8.471  48.861  1.00  0.00     0.090 N 
HETATM   19  C11 UNL     1      26.090   7.192  48.324  1.00  0.00     0.272 C 
HETATM   20  C12 UNL     1      27.000   6.058  48.649  1.00  0.00     0.030 C 
HETATM   21  C13 UNL     1      28.352   6.357  48.032  1.00  0.00     0.003 C 
HETATM   22  C14 UNL     1      28.761   7.774  48.242  1.00  0.00     0.030 C 
HETATM   23  C15 UNL     1      27.884   8.512  49.223  1.00  0.00     0.272 C 
ENDBRANCH  17  18
ENDBRANCH  16  17
ENDBRANCH   4  16
TORSDOF 5
ENDMDL
MODEL 8
REMARK VINA RESULT:      -6.2      4.044      5.571
REMARK  5 active torsions:
REMARK  status: ('A' for Active; 'I' for Inactive)
REMARK    1  A    between atoms: C5_7  and  C6_8 
REMARK    2  A    between atoms: C7_9  and  N3_10 
REMARK       I    between atoms: N3_10  and  C8_11 
REMARK       I    between atoms: C8_11  and  N4_13 
REMARK    3  A    between atoms: N4_13  and  C9_14 
REMARK    4  A    between atoms: C9_14  and  C10_15 
REMARK    5  A    between atoms: C10_15  and  N5_16 
ROOT
HETATM    1  N3  UNL     1      23.649   1.706  51.141  1.00  0.00    -0.319 N 
HETATM    2  C8  UNL     1      22.306   1.709  51.604  1.00  0.00     0.320 C 
HETATM    3  O1  UNL     1      21.944   1.404  52.790  1.00  0.00    -0.247 OA
HETATM    4  N4  UNL     1      21.234   2.072  50.722  1.00  0.00    -0.341 N 
HETATM    5  H8  UNL     1      23.857   1.976  50.171  1.00  0.00     0.170 HD
HETATM    6  H9  UNL     1      21.545   2.311  49.759  1.00  0.00     0.164 HD
ENDROOT
BRANCH   1   7
HETATM    7  C7  UNL     1      24.694   1.345  51.973  1.00  0.00     0.093 C 
HETATM    8  C6  UNL     1      25.923   1.008  52.189  1.00  0.00     0.032 C 
BRANCH   8   9
HETATM    9  C5  UNL     1      27.024   0.633  53.011  1.00  0.00     0.007 A 
HETATM   10  C2  UNL     1      27.390  -0.688  53.131  1.00  0.00     0.043 A 
HETATM   11  C1  UNL     1      26.750  -1.831  52.444  1.00  0.00     0.071 C 
HETATM   12  N1  UNL     1      28.446  -0.938  53.959  1.00  0.00    -0.246 NA
HETATM   13  C3  UNL     1      29.043   0.081  54.582  1.00  0.00     0.232 A 
HETATM   14  N2  UNL     1      28.676   1.382  54.458  1.00  0.00    -0.253 NA
HETATM   15  C4  UNL     1      27.639   1.712  53.657  1.00  0.00     0.131 A 
ENDBRANCH   8   9
ENDBRANCH   1   7
BRANCH   4  16
HETATM   16  C9  UNL     1      19.894   2.039  51.333  1.00  0.00     0.154 C 
BRANCH  16  17
HETATM   17  C10 UNL     1      19.034   1.257  50.398  1.00  0.00     0.292 C 
BRANCH  17  18
HETATM   18  N5  UNL     1      18.544   0.009  50.899  1.00  0.00     0.090 N 
HETATM   19  C11 UNL     1      17.160  -0.224  50.566  1.00  0.00     0.272 C 
HETATM   20  C12 UNL     1      16.204  -0.097  51.701  1.00  0.00     0.030 C 
HETATM   21  C13 UNL     1      16.558  -1.154  52.727  1.00  0.00     0.003 C 
HETATM   22  C14 UNL     1      18.028  -1.245  52.949  1.00  0.00     0.030 C 
HETATM   23  C15 UNL     1      18.803  -0.116  52.315  1.00  0.00     0.272 C 
ENDBRANCH  17  18
ENDBRANCH  16  17
ENDBRANCH   4  16
TORSDOF 5
ENDMDL
MODEL 9
REMARK VINA RESULT:      -6.2      1.276      2.026
REMARK  5 active torsions:
REMARK  status: ('A' for Active; 'I' for Inactive)
REMARK    1  A    between atoms: C5_7  and  C6_8 
REMARK    2  A    between atoms: C7_9  and  N3_10 
REMARK       I    between atoms: N3_10  and  C8_11 
REMARK       I    between atoms: C8_11  and  N4_13 
REMARK    3  A    between atoms: N4_13  and  C9_14 
REMARK    4  A    between atoms: C9_14  and  C10_15 
REMARK    5  A    between atoms: C10_15  and  N5_16 
ROOT
HETATM    1  N3  UNL     1      23.292   1.339  51.633  1.00  0.00    -0.319 N 
HETATM    2  C8  UNL     1      22.745   2.648  51.702  1.00  0.00     0.320 C 
HETATM    3  O1  UNL     1      23.232   3.604  52.395  1.00  0.00    -0.247 OA
HETATM    4  N4  UNL     1      21.563   2.982  50.961  1.00  0.00    -0.341 N 
HETATM    5  H8  UNL     1      22.843   0.627  51.041  1.00  0.00     0.170 HD
HETATM    6  H9  UNL     1      21.177   2.191  50.407  1.00  0.00     0.164 HD
ENDROOT
BRANCH   1   7
HETATM    7  C7  UNL     1      24.422   0.994  52.351  1.00  0.00     0.093 C 
HETATM    8  C6  UNL     1      25.681   0.712  52.442  1.00  0.00     0.032 C 
BRANCH   8   9
HETATM    9  C5  UNL     1      26.867   0.357  53.146  1.00  0.00     0.007 A 
HETATM   10  C2  UNL     1      27.364  -0.925  53.076  1.00  0.00     0.043 A 
HETATM   11  C1  UNL     1      26.790  -2.037  52.288  1.00  0.00     0.071 C 
HETATM   12  N1  UNL     1      28.495  -1.163  53.804  1.00  0.00    -0.246 NA
HETATM   13  C3  UNL     1      29.035  -0.170  54.515  1.00  0.00     0.232 A 
HETATM   14  N2  UNL     1      28.539   1.092  54.578  1.00  0.00    -0.253 NA
HETATM   15  C4  UNL     1      27.421   1.408  53.887  1.00  0.00     0.131 A 
ENDBRANCH   8   9
ENDBRANCH   1   7
BRANCH   4  16
HETATM   16  C9  UNL     1      21.110   4.374  51.117  1.00  0.00     0.154 C 
BRANCH  16  17
HETATM   17  C10 UNL     1      21.162   4.981  49.755  1.00  0.00     0.292 C 
BRANCH  17  18
HETATM   18  N5  UNL     1      22.182   5.963  49.550  1.00  0.00     0.090 N 
HETATM   19  C11 UNL     1      23.305   5.456  48.799  1.00  0.00     0.272 C 
HETATM   20  C12 UNL     1      24.545   5.226  49.591  1.00  0.00     0.030 C 
HETATM   21  C13 UNL     1      24.997   6.562  50.144  1.00  0.00     0.003 C 
HETATM   22  C14 UNL     1      23.859   7.355  50.687  1.00  0.00     0.030 C 
HETATM   23  C15 UNL     1      22.578   6.566  50.802  1.00  0.00     0.272 C 
ENDBRANCH  17  18
ENDBRANCH  16  17
ENDBRANCH   4  16
TORSDOF 5
ENDMDL
