MODEL 1
REMARK VINA RESULT:      -7.8      0.000      0.000
REMARK  4 active torsions:
REMARK  status: ('A' for Active; 'I' for Inactive)
REMARK    1  A    between atoms: C5_9  and  N3_10 
REMARK    2  A    between atoms: N3_10  and  C6_11 
REMARK    3  A    between atoms: C6_11  and  P1_12 
REMARK    4  A    between atoms: P1_12  and  C7_13 
ROOT
HETATM    1  N1  UNL     1      28.000   2.786  53.852  1.00  0.00    -0.292 NA
HETATM    2  C1  UNL     1      27.757   1.547  53.891  1.00  0.00     0.107 A 
HETATM    3  C2  UNL     1      28.537   0.302  54.158  1.00  0.00     0.184 A 
HETATM    4  N2  UNL     1      27.935  -0.806  54.109  1.00  0.00    -0.137 NA
HETATM    5  O1  UNL     1      26.758  -1.315  53.887  1.00  0.00    -0.205 OA
HETATM    6  C3  UNL     1      25.526  -0.561  53.557  1.00  0.00     0.157 A 
HETATM    7  S1  UNL     1      26.025   1.113  53.540  1.00  0.00    -0.051 SA
HETATM    8  C4  UNL     1      24.406   1.849  53.126  1.00  0.00     0.113 A 
HETATM    9  C5  UNL     1      24.292   3.129  53.004  1.00  0.00     0.155 C 
HETATM   10  N4  UNL     1      23.586   0.709  53.031  1.00  0.00    -0.249 NA
HETATM   11  C13 UNL     1      24.135  -0.405  53.237  1.00  0.00     0.164 A 
HETATM   12  H1  UNL     1      27.352   3.559  53.649  1.00  0.00     0.187 HD
ENDROOT
BRANCH   9  13
HETATM   13  N3  UNL     1      23.256   4.055  52.704  1.00  0.00    -0.269 NA
BRANCH  13  14
HETATM   14  C6  UNL     1      23.529   5.098  52.017  1.00  0.00     0.123 C 
BRANCH  14  15
HETATM   15  P1  UNL     1      24.044   6.422  50.858  1.00  0.00    -0.053 P 
HETATM   16  H5  UNL     1      24.378   7.647  51.571  1.00  0.00     0.068 HD
BRANCH  15  17
HETATM   17  C7  UNL     1      25.532   5.864  49.910  1.00  0.00    -0.029 A 
HETATM   18  C8  UNL     1      26.342   6.702  49.171  1.00  0.00     0.012 A 
HETATM   19  C9  UNL     1      27.432   6.203  48.494  1.00  0.00     0.001 A 
HETATM   20  C10 UNL     1      27.735   4.859  48.540  1.00  0.00     0.000 A 
HETATM   21  C11 UNL     1      26.926   4.006  49.281  1.00  0.00     0.001 A 
HETATM   22  C12 UNL     1      25.836   4.517  49.957  1.00  0.00     0.012 A 
ENDBRANCH  15  17
ENDBRANCH  14  15
ENDBRANCH  13  14
ENDBRANCH   9  13
TORSDOF 4
ENDMDL
MODEL 2
REMARK VINA RESULT:      -7.1      4.378      6.755
REMARK  4 active torsions:
REMARK  status: ('A' for Active; 'I' for Inactive)
REMARK    1  A    between atoms: C5_9  and  N3_10 
REMARK    2  A    between atoms: N3_10  and  C6_11 
REMARK    3  A    between atoms: C6_11  and  P1_12 
REMARK    4  A    between atoms: P1_12  and  C7_13 
ROOT
HETATM    1  N1  UNL     1      27.169   2.857  51.759  1.00  0.00    -0.292 NA
HETATM    2  C1  UNL     1      27.608   2.258  52.781  1.00  0.00     0.107 A 
HETATM    3  C2  UNL     1      28.881   2.246  53.561  1.00  0.00     0.184 A 
HETATM    4  N2  UNL     1      28.961   1.489  54.568  1.00  0.00    -0.137 NA
HETATM    5  O1  UNL     1      28.267   0.623  55.247  1.00  0.00    -0.205 OA
HETATM    6  C3  UNL     1      26.879   0.193  54.957  1.00  0.00     0.157 A 
HETATM    7  S1  UNL     1      26.424   1.100  53.535  1.00  0.00    -0.051 SA
HETATM    8  C4  UNL     1      24.731   0.440  53.351  1.00  0.00     0.113 A 
HETATM    9  C5  UNL     1      23.982   0.848  52.383  1.00  0.00     0.155 C 
HETATM   10  N4  UNL     1      24.651  -0.454  54.435  1.00  0.00    -0.249 NA
HETATM   11  C13 UNL     1      25.669  -0.550  55.170  1.00  0.00     0.164 A 
HETATM   12  H1  UNL     1      26.247   2.770  51.313  1.00  0.00     0.187 HD
ENDROOT
BRANCH   9  13
HETATM   13  N3  UNL     1      22.665   0.595  51.912  1.00  0.00    -0.269 NA
BRANCH  13  14
HETATM   14  C6  UNL     1      21.801   0.093  52.708  1.00  0.00     0.123 C 
BRANCH  14  15
HETATM   15  P1  UNL     1      20.375  -0.495  53.699  1.00  0.00    -0.053 P 
HETATM   16  H5  UNL     1      20.140   0.365  54.850  1.00  0.00     0.068 HD
BRANCH  15  17
HETATM   17  C7  UNL     1      18.854  -0.501  52.645  1.00  0.00    -0.029 A 
HETATM   18  C8  UNL     1      18.720   0.207  51.469  1.00  0.00     0.012 A 
HETATM   19  C9  UNL     1      17.551   0.147  50.744  1.00  0.00     0.001 A 
HETATM   20  C10 UNL     1      16.493  -0.621  51.180  1.00  0.00     0.000 A 
HETATM   21  C11 UNL     1      16.616  -1.339  52.363  1.00  0.00     0.001 A 
HETATM   22  C12 UNL     1      17.793  -1.272  53.082  1.00  0.00     0.012 A 
ENDBRANCH  15  17
ENDBRANCH  14  15
ENDBRANCH  13  14
ENDBRANCH   9  13
TORSDOF 4
ENDMDL
MODEL 3
REMARK VINA RESULT:      -7.0      2.861      5.217
REMARK  4 active torsions:
REMARK  status: ('A' for Active; 'I' for Inactive)
REMARK    1  A    between atoms: C5_9  and  N3_10 
REMARK    2  A    between atoms: N3_10  and  C6_11 
REMARK    3  A    between atoms: C6_11  and  P1_12 
REMARK    4  A    between atoms: P1_12  and  C7_13 
ROOT
HETATM    1  N1  UNL     1      28.517   2.893  52.897  1.00  0.00    -0.292 NA
HETATM    2  C1  UNL     1      28.229   1.867  53.575  1.00  0.00     0.107 A 
HETATM    3  C2  UNL     1      28.935   0.987  54.553  1.00  0.00     0.184 A 
HETATM    4  N2  UNL     1      28.303   0.013  55.049  1.00  0.00    -0.137 NA
HETATM    5  O1  UNL     1      27.140  -0.568  55.015  1.00  0.00    -0.205 OA
HETATM    6  C3  UNL     1      25.975  -0.148  54.202  1.00  0.00     0.157 A 
HETATM    7  S1  UNL     1      26.529   1.264  53.334  1.00  0.00    -0.051 SA
HETATM    8  C4  UNL     1      24.988   1.613  52.419  1.00  0.00     0.113 A 
HETATM    9  C5  UNL     1      24.931   2.618  51.613  1.00  0.00     0.155 C 
HETATM   10  N4  UNL     1      24.144   0.580  52.871  1.00  0.00    -0.249 NA
HETATM   11  C13 UNL     1      24.630  -0.228  53.703  1.00  0.00     0.164 A 
HETATM   12  H1  UNL     1      27.920   3.415  52.241  1.00  0.00     0.187 HD
ENDROOT
BRANCH   9  13
HETATM   13  N3  UNL     1      23.964   3.206  50.752  1.00  0.00    -0.269 NA
BRANCH  13  14
HETATM   14  C6  UNL     1      22.759   3.335  51.159  1.00  0.00     0.123 C 
BRANCH  14  15
HETATM   15  P1  UNL     1      21.140   3.549  51.992  1.00  0.00    -0.053 P 
HETATM   16  H5  UNL     1      20.190   4.238  51.131  1.00  0.00     0.068 HD
BRANCH  15  17
HETATM   17  C7  UNL     1      20.448   1.889  52.428  1.00  0.00    -0.029 A 
HETATM   18  C8  UNL     1      20.801   1.170  53.551  1.00  0.00     0.012 A 
HETATM   19  C9  UNL     1      20.237  -0.060  53.801  1.00  0.00     0.001 A 
HETATM   20  C10 UNL     1      19.309  -0.597  52.934  1.00  0.00     0.000 A 
HETATM   21  C11 UNL     1      18.945   0.118  51.800  1.00  0.00     0.001 A 
HETATM   22  C12 UNL     1      19.517   1.351  51.560  1.00  0.00     0.012 A 
ENDBRANCH  15  17
ENDBRANCH  14  15
ENDBRANCH  13  14
ENDBRANCH   9  13
TORSDOF 4
ENDMDL
MODEL 4
REMARK VINA RESULT:      -6.8      4.130      6.717
REMARK  4 active torsions:
REMARK  status: ('A' for Active; 'I' for Inactive)
REMARK    1  A    between atoms: C5_9  and  N3_10 
REMARK    2  A    between atoms: N3_10  and  C6_11 
REMARK    3  A    between atoms: C6_11  and  P1_12 
REMARK    4  A    between atoms: P1_12  and  C7_13 
ROOT
HETATM    1  N1  UNL     1      19.508   1.084  50.854  1.00  0.00    -0.292 NA
HETATM    2  C1  UNL     1      19.449   0.247  51.799  1.00  0.00     0.107 A 
HETATM    3  C2  UNL     1      18.388  -0.592  52.432  1.00  0.00     0.184 A 
HETATM    4  N2  UNL     1      18.712  -1.341  53.395  1.00  0.00    -0.137 NA
HETATM    5  O1  UNL     1      19.739  -1.686  54.115  1.00  0.00    -0.205 OA
HETATM    6  C3  UNL     1      21.123  -1.179  53.965  1.00  0.00     0.157 A 
HETATM    7  S1  UNL     1      21.037  -0.048  52.637  1.00  0.00    -0.051 SA
HETATM    8  C4  UNL     1      22.794   0.447  52.618  1.00  0.00     0.113 A 
HETATM    9  C5  UNL     1      23.212   1.311  51.756  1.00  0.00     0.155 C 
HETATM   10  N4  UNL     1      23.322  -0.324  53.671  1.00  0.00    -0.249 NA
HETATM   11  C13 UNL     1      22.519  -1.075  54.284  1.00  0.00     0.164 A 
HETATM   12  H1  UNL     1      20.326   1.605  50.511  1.00  0.00     0.187 HD
ENDROOT
BRANCH   9  13
HETATM   13  N3  UNL     1      24.445   1.935  51.424  1.00  0.00    -0.269 NA
BRANCH  13  14
HETATM   14  C6  UNL     1      25.453   1.778  52.194  1.00  0.00     0.123 C 
BRANCH  14  15
HETATM   15  P1  UNL     1      26.838   1.800  53.395  1.00  0.00    -0.053 P 
HETATM   16  H5  UNL     1      26.355   1.985  54.756  1.00  0.00     0.068 HD
BRANCH  15  17
HETATM   17  C7  UNL     1      27.755   0.195  53.306  1.00  0.00    -0.029 A 
HETATM   18  C8  UNL     1      27.191  -1.002  52.916  1.00  0.00     0.012 A 
HETATM   19  C9  UNL     1      27.947  -2.152  52.878  1.00  0.00     0.001 A 
HETATM   20  C10 UNL     1      29.280  -2.130  53.228  1.00  0.00     0.000 A 
HETATM   21  C11 UNL     1      29.859  -0.930  53.622  1.00  0.00     0.001 A 
HETATM   22  C12 UNL     1      29.092   0.218  53.656  1.00  0.00     0.012 A 
ENDBRANCH  15  17
ENDBRANCH  14  15
ENDBRANCH  13  14
ENDBRANCH   9  13
TORSDOF 4
ENDMDL
MODEL 5
REMARK VINA RESULT:      -6.7      4.523      6.968
REMARK  4 active torsions:
REMARK  status: ('A' for Active; 'I' for Inactive)
REMARK    1  A    between atoms: C5_9  and  N3_10 
REMARK    2  A    between atoms: N3_10  and  C6_11 
REMARK    3  A    between atoms: C6_11  and  P1_12 
REMARK    4  A    between atoms: P1_12  and  C7_13 
ROOT
HETATM    1  N1  UNL     1      26.233  -0.512  55.328  1.00  0.00    -0.292 NA
HETATM    2  C1  UNL     1      27.086   0.199  54.725  1.00  0.00     0.107 A 
HETATM    3  C2  UNL     1      28.537   0.511  54.884  1.00  0.00     0.184 A 
HETATM    4  N2  UNL     1      29.076   1.297  54.057  1.00  0.00    -0.137 NA
HETATM    5  O1  UNL     1      28.801   2.011  53.005  1.00  0.00    -0.205 OA
HETATM    6  C3  UNL     1      27.482   2.119  52.340  1.00  0.00     0.157 A 
HETATM    7  S1  UNL     1      26.428   1.093  53.283  1.00  0.00    -0.051 SA
HETATM    8  C4  UNL     1      24.897   1.362  52.324  1.00  0.00     0.113 A 
HETATM    9  C5  UNL     1      23.805   0.771  52.674  1.00  0.00     0.155 C 
HETATM   10  N4  UNL     1      25.336   2.250  51.323  1.00  0.00    -0.249 NA
HETATM   11  C13 UNL     1      26.548   2.588  51.354  1.00  0.00     0.164 A 
HETATM   12  H1  UNL     1      25.237  -0.642  55.107  1.00  0.00     0.187 HD
ENDROOT
BRANCH   9  13
HETATM   13  N3  UNL     1      22.461   0.717  52.216  1.00  0.00    -0.269 NA
BRANCH  13  14
HETATM   14  C6  UNL     1      21.583   0.111  52.920  1.00  0.00     0.123 C 
BRANCH  14  15
HETATM   15  P1  UNL     1      20.140  -0.627  53.776  1.00  0.00    -0.053 P 
HETATM   16  H5  UNL     1      19.811   0.109  54.989  1.00  0.00     0.068 HD
BRANCH  15  17
HETATM   17  C7  UNL     1      18.673  -0.595  52.648  1.00  0.00    -0.029 A 
HETATM   18  C8  UNL     1      17.457  -1.179  52.937  1.00  0.00     0.012 A 
HETATM   19  C9  UNL     1      16.415  -1.109  52.039  1.00  0.00     0.001 A 
HETATM   20  C10 UNL     1      16.567  -0.453  50.836  1.00  0.00     0.000 A 
HETATM   21  C11 UNL     1      17.787   0.139  50.535  1.00  0.00     0.001 A 
HETATM   22  C12 UNL     1      18.825   0.062  51.442  1.00  0.00     0.012 A 
ENDBRANCH  15  17
ENDBRANCH  14  15
ENDBRANCH  13  14
ENDBRANCH   9  13
TORSDOF 4
ENDMDL
MODEL 6
REMARK VINA RESULT:      -6.7      2.360      2.658
REMARK  4 active torsions:
REMARK  status: ('A' for Active; 'I' for Inactive)
REMARK    1  A    between atoms: C5_9  and  N3_10 
REMARK    2  A    between atoms: N3_10  and  C6_11 
REMARK    3  A    between atoms: C6_11  and  P1_12 
REMARK    4  A    between atoms: P1_12  and  C7_13 
ROOT
HETATM    1  N1  UNL     1      28.152   2.764  53.859  1.00  0.00    -0.292 NA
HETATM    2  C1  UNL     1      27.869   1.535  53.921  1.00  0.00     0.107 A 
HETATM    3  C2  UNL     1      28.608   0.271  54.213  1.00  0.00     0.184 A 
HETATM    4  N2  UNL     1      27.970  -0.818  54.183  1.00  0.00    -0.137 NA
HETATM    5  O1  UNL     1      26.779  -1.293  53.968  1.00  0.00    -0.205 OA
HETATM    6  C3  UNL     1      25.572  -0.506  53.621  1.00  0.00     0.157 A 
HETATM    7  S1  UNL     1      26.124   1.150  53.574  1.00  0.00    -0.051 SA
HETATM    8  C4  UNL     1      24.531   1.931  53.142  1.00  0.00     0.113 A 
HETATM    9  C5  UNL     1      24.459   3.210  52.996  1.00  0.00     0.155 C 
HETATM   10  N4  UNL     1      23.675   0.815  53.066  1.00  0.00    -0.249 NA
HETATM   11  C13 UNL     1      24.187  -0.311  53.294  1.00  0.00     0.164 A 
HETATM   12  H1  UNL     1      27.530   3.554  53.641  1.00  0.00     0.187 HD
ENDROOT
BRANCH   9  13
HETATM   13  N3  UNL     1      23.454   4.164  52.676  1.00  0.00    -0.269 NA
BRANCH  13  14
HETATM   14  C6  UNL     1      23.535   4.815  51.579  1.00  0.00     0.123 C 
BRANCH  14  15
HETATM   15  P1  UNL     1      23.433   5.887  50.096  1.00  0.00    -0.053 P 
HETATM   16  H5  UNL     1      24.727   6.473  49.777  1.00  0.00     0.068 HD
BRANCH  15  17
HETATM   17  C7  UNL     1      22.865   4.883  48.649  1.00  0.00    -0.029 A 
HETATM   18  C8  UNL     1      22.460   5.417  47.443  1.00  0.00     0.012 A 
HETATM   19  C9  UNL     1      22.051   4.596  46.416  1.00  0.00     0.001 A 
HETATM   20  C10 UNL     1      22.040   3.226  46.573  1.00  0.00     0.000 A 
HETATM   21  C11 UNL     1      22.446   2.677  47.782  1.00  0.00     0.001 A 
HETATM   22  C12 UNL     1      22.854   3.510  48.806  1.00  0.00     0.012 A 
ENDBRANCH  15  17
ENDBRANCH  14  15
ENDBRANCH  13  14
ENDBRANCH   9  13
TORSDOF 4
ENDMDL
MODEL 7
REMARK VINA RESULT:      -6.6      2.328      3.292
REMARK  4 active torsions:
REMARK  status: ('A' for Active; 'I' for Inactive)
REMARK    1  A    between atoms: C5_9  and  N3_10 
REMARK    2  A    between atoms: N3_10  and  C6_11 
REMARK    3  A    between atoms: C6_11  and  P1_12 
REMARK    4  A    between atoms: P1_12  and  C7_13 
ROOT
HETATM    1  N1  UNL     1      29.029   2.414  53.079  1.00  0.00    -0.292 NA
HETATM    2  C1  UNL     1      28.358   1.482  53.605  1.00  0.00     0.107 A 
HETATM    3  C2  UNL     1      28.586   0.449  54.659  1.00  0.00     0.184 A 
HETATM    4  N2  UNL     1      27.646  -0.348  54.931  1.00  0.00    -0.137 NA
HETATM    5  O1  UNL     1      26.422  -0.630  54.593  1.00  0.00    -0.205 OA
HETATM    6  C3  UNL     1      25.615   0.066  53.565  1.00  0.00     0.157 A 
HETATM    7  S1  UNL     1      26.672   1.309  52.942  1.00  0.00    -0.051 SA
HETATM    8  C4  UNL     1      25.518   2.029  51.723  1.00  0.00     0.113 A 
HETATM    9  C5  UNL     1      25.890   3.025  50.993  1.00  0.00     0.155 C 
HETATM   10  N4  UNL     1      24.375   1.226  51.900  1.00  0.00    -0.249 NA
HETATM   11  C13 UNL     1      24.447   0.317  52.767  1.00  0.00     0.164 A 
HETATM   12  H1  UNL     1      28.744   3.070  52.341  1.00  0.00     0.187 HD
ENDROOT
BRANCH   9  13
HETATM   13  N3  UNL     1      25.320   3.836  49.974  1.00  0.00    -0.269 NA
BRANCH  13  14
HETATM   14  C6  UNL     1      25.468   5.105  50.028  1.00  0.00     0.123 C 
BRANCH  14  15
HETATM   15  P1  UNL     1      25.413   6.937  50.045  1.00  0.00    -0.053 P 
HETATM   16  H5  UNL     1      26.115   7.498  48.899  1.00  0.00     0.068 HD
BRANCH  15  17
HETATM   17  C7  UNL     1      23.651   7.500  49.994  1.00  0.00    -0.029 A 
HETATM   18  C8  UNL     1      23.194   8.556  49.232  1.00  0.00     0.012 A 
HETATM   19  C9  UNL     1      21.864   8.910  49.252  1.00  0.00     0.001 A 
HETATM   20  C10 UNL     1      20.964   8.217  50.033  1.00  0.00     0.000 A 
HETATM   21  C11 UNL     1      21.412   7.152  50.803  1.00  0.00     0.001 A 
HETATM   22  C12 UNL     1      22.748   6.805  50.776  1.00  0.00     0.012 A 
ENDBRANCH  15  17
ENDBRANCH  14  15
ENDBRANCH  13  14
ENDBRANCH   9  13
TORSDOF 4
ENDMDL
MODEL 8
REMARK VINA RESULT:      -6.6      1.732      2.856
REMARK  4 active torsions:
REMARK  status: ('A' for Active; 'I' for Inactive)
REMARK    1  A    between atoms: C5_9  and  N3_10 
REMARK    2  A    between atoms: N3_10  and  C6_11 
REMARK    3  A    between atoms: C6_11  and  P1_12 
REMARK    4  A    between atoms: P1_12  and  C7_13 
ROOT
HETATM    1  N1  UNL     1      23.065  -0.148  53.142  1.00  0.00    -0.292 NA
HETATM    2  C1  UNL     1      24.225  -0.125  53.642  1.00  0.00     0.107 A 
HETATM    3  C2  UNL     1      24.925  -0.800  54.775  1.00  0.00     0.184 A 
HETATM    4  N2  UNL     1      26.137  -0.517  54.985  1.00  0.00    -0.137 NA
HETATM    5  O1  UNL     1      27.102   0.226  54.528  1.00  0.00    -0.205 OA
HETATM    6  C3  UNL     1      27.023   1.151  53.374  1.00  0.00     0.157 A 
HETATM    7  S1  UNL     1      25.378   1.005  52.803  1.00  0.00    -0.051 SA
HETATM    8  C4  UNL     1      25.489   2.193  51.421  1.00  0.00     0.113 A 
HETATM    9  C5  UNL     1      24.457   2.417  50.680  1.00  0.00     0.155 C 
HETATM   10  N4  UNL     1      26.827   2.620  51.514  1.00  0.00    -0.249 NA
HETATM   11  C13 UNL     1      27.521   2.118  52.435  1.00  0.00     0.164 A 
HETATM   12  H1  UNL     1      22.704   0.382  52.338  1.00  0.00     0.187 HD
ENDROOT
BRANCH   9  13
HETATM   13  N3  UNL     1      24.142   3.230  49.556  1.00  0.00    -0.269 NA
BRANCH  13  14
HETATM   14  C6  UNL     1      24.344   4.490  49.618  1.00  0.00     0.123 C 
BRANCH  14  15
HETATM   15  P1  UNL     1      24.889   6.240  49.625  1.00  0.00    -0.053 P 
HETATM   16  H5  UNL     1      24.906   6.784  50.975  1.00  0.00     0.068 HD
BRANCH  15  17
HETATM   17  C7  UNL     1      26.597   6.355  48.919  1.00  0.00    -0.029 A 
HETATM   18  C8  UNL     1      27.195   7.533  48.520  1.00  0.00     0.012 A 
HETATM   19  C9  UNL     1      28.472   7.529  48.004  1.00  0.00     0.001 A 
HETATM   20  C10 UNL     1      29.175   6.351  47.877  1.00  0.00     0.000 A 
HETATM   21  C11 UNL     1      28.583   5.159  48.276  1.00  0.00     0.001 A 
HETATM   22  C12 UNL     1      27.302   5.174  48.792  1.00  0.00     0.012 A 
ENDBRANCH  15  17
ENDBRANCH  14  15
ENDBRANCH  13  14
ENDBRANCH   9  13
TORSDOF 4
ENDMDL
MODEL 9
REMARK VINA RESULT:      -6.4      2.239      3.590
REMARK  4 active torsions:
REMARK  status: ('A' for Active; 'I' for Inactive)
REMARK    1  A    between atoms: C5_9  and  N3_10 
REMARK    2  A    between atoms: N3_10  and  C6_11 
REMARK    3  A    between atoms: C6_11  and  P1_12 
REMARK    4  A    between atoms: P1_12  and  C7_13 
ROOT
HETATM    1  N1  UNL     1      23.751   0.344  52.570  1.00  0.00    -0.292 NA
HETATM    2  C1  UNL     1      24.647   0.103  53.427  1.00  0.00     0.107 A 
HETATM    3  C2  UNL     1      24.771  -0.743  54.651  1.00  0.00     0.184 A 
HETATM    4  N2  UNL     1      25.865  -0.731  55.280  1.00  0.00    -0.137 NA
HETATM    5  O1  UNL     1      27.050  -0.196  55.250  1.00  0.00    -0.205 OA
HETATM    6  C3  UNL     1      27.552   0.764  54.239  1.00  0.00     0.157 A 
HETATM    7  S1  UNL     1      26.211   0.990  53.143  1.00  0.00    -0.051 SA
HETATM    8  C4  UNL     1      27.015   2.174  52.008  1.00  0.00     0.113 A 
HETATM    9  C5  UNL     1      26.366   2.638  50.994  1.00  0.00     0.155 C 
HETATM   10  N4  UNL     1      28.293   2.303  52.585  1.00  0.00    -0.249 NA
HETATM   11  C13 UNL     1      28.517   1.634  53.627  1.00  0.00     0.164 A 
HETATM   12  H1  UNL     1      23.798   0.966  51.753  1.00  0.00     0.187 HD
ENDROOT
BRANCH   9  13
HETATM   13  N3  UNL     1      26.618   3.537  49.922  1.00  0.00    -0.269 NA
BRANCH  13  14
HETATM   14  C6  UNL     1      25.966   4.634  49.858  1.00  0.00     0.123 C 
BRANCH  14  15
HETATM   15  P1  UNL     1      25.166   6.278  49.993  1.00  0.00    -0.053 P 
HETATM   16  H5  UNL     1      25.919   7.162  50.872  1.00  0.00     0.068 HD
BRANCH  15  17
HETATM   17  C7  UNL     1      25.068   7.054  48.316  1.00  0.00    -0.029 A 
HETATM   18  C8  UNL     1      26.125   7.676  47.684  1.00  0.00     0.012 A 
HETATM   19  C9  UNL     1      25.965   8.230  46.434  1.00  0.00     0.001 A 
HETATM   20  C10 UNL     1      24.748   8.172  45.790  1.00  0.00     0.000 A 
HETATM   21  C11 UNL     1      23.677   7.547  46.416  1.00  0.00     0.001 A 
HETATM   22  C12 UNL     1      23.848   6.996  47.670  1.00  0.00     0.012 A 
ENDBRANCH  15  17
ENDBRANCH  14  15
ENDBRANCH  13  14
ENDBRANCH   9  13
TORSDOF 4
ENDMDL
