MODEL 1
REMARK VINA RESULT:      -9.4      0.000      0.000
REMARK  2 active torsions:
REMARK  status: ('A' for Active; 'I' for Inactive)
REMARK    1  A    between atoms: O1_1  and  C1_2 
REMARK    2  A    between atoms: C3_5  and  N1_6 
ROOT
HETATM    1  N1  UNL     1      25.988   0.250  52.883  1.00  0.00    -0.212 N 
HETATM    2  N2  UNL     1      24.743  -0.050  53.387  1.00  0.00    -0.150 NA
HETATM    3  C4  UNL     1      23.802   0.692  52.970  1.00  0.00     0.151 A 
HETATM    4  C5  UNL     1      24.406   1.682  52.027  1.00  0.00     0.141 A 
HETATM    5  C6  UNL     1      25.848   1.352  51.999  1.00  0.00     0.043 A 
HETATM    6  C7  UNL     1      26.791   1.927  51.299  1.00  0.00     0.012 C 
HETATM    7  C8  UNL     1      26.298   3.030  50.499  1.00  0.00     0.063 C 
HETATM    8  C9  UNL     1      26.301   4.064  49.637  1.00  0.00     0.000 C 
HETATM    9 CL1  UNL     1      27.330   5.052  48.561  1.00  0.00    -0.093 Cl
HETATM   10  C10 UNL     1      24.863   4.511  49.592  1.00  0.00     0.031 C 
HETATM   11  C11 UNL     1      23.549   4.786  49.664  1.00  0.00     0.120 C 
HETATM   12  C12 UNL     1      22.584   4.162  50.407  1.00  0.00    -0.099 C 
HETATM   13  C13 UNL     1      21.779   3.618  51.028  1.00  0.00    -0.099 C 
HETATM   14  C14 UNL     1      20.826   2.940  51.773  1.00  0.00     0.091 C 
HETATM   15  C15 UNL     1      21.011   1.880  52.595  1.00  0.00     0.053 C 
HETATM   16  C16 UNL     1      21.495   0.728  53.429  1.00  0.00     0.098 C 
HETATM   17  N3  UNL     1      22.635   0.149  53.660  1.00  0.00    -0.247 NA
ENDROOT
BRANCH   1  18
HETATM   18  C3  UNL     1      27.280  -0.434  53.174  1.00  0.00     0.196 A 
HETATM   19  S1  UNL     1      28.932   0.322  53.669  1.00  0.00    -0.058 SA
HETATM   20  C2  UNL     1      29.714  -1.340  53.740  1.00  0.00     0.111 A 
HETATM   21  C1  UNL     1      28.657  -2.169  53.395  1.00  0.00     0.171 A 
HETATM   22  N4  UNL     1      27.477  -1.556  53.136  1.00  0.00    -0.198 NA
BRANCH  21  23
HETATM   23  O1  UNL     1      28.792  -3.571  53.316  1.00  0.00    -0.344 OA
HETATM   24  H1  UNL     1      28.176  -4.190  53.772  1.00  0.00     0.219 HD
ENDBRANCH  21  23
ENDBRANCH   1  18
TORSDOF 2
ENDMDL
MODEL 2
REMARK VINA RESULT:      -9.1      2.596      4.250
REMARK  2 active torsions:
REMARK  status: ('A' for Active; 'I' for Inactive)
REMARK    1  A    between atoms: O1_1  and  C1_2 
REMARK    2  A    between atoms: C3_5  and  N1_6 
ROOT
HETATM    1  N1  UNL     1      26.829   0.784  52.302  1.00  0.00    -0.212 N 
HETATM    2  N2  UNL     1      26.989   1.893  51.502  1.00  0.00    -0.150 NA
HETATM    3  C4  UNL     1      25.910   2.464  51.154  1.00  0.00     0.151 A 
HETATM    4  C5  UNL     1      24.786   1.693  51.766  1.00  0.00     0.141 A 
HETATM    5  C6  UNL     1      25.438   0.597  52.516  1.00  0.00     0.043 A 
HETATM    6  C7  UNL     1      24.868  -0.332  53.239  1.00  0.00     0.012 C 
HETATM    7  C8  UNL     1      23.423  -0.232  53.239  1.00  0.00     0.063 C 
HETATM    8  C9  UNL     1      22.138  -0.517  53.522  1.00  0.00     0.000 C 
HETATM    9 CL1  UNL     1      21.063  -1.626  54.418  1.00  0.00    -0.093 Cl
HETATM   10  C10 UNL     1      21.355   0.539  52.786  1.00  0.00     0.031 C 
HETATM   11  C11 UNL     1      20.807   1.541  52.076  1.00  0.00     0.120 C 
HETATM   12  C12 UNL     1      21.432   2.501  51.329  1.00  0.00    -0.099 C 
HETATM   13  C13 UNL     1      21.973   3.314  50.714  1.00  0.00    -0.099 C 
HETATM   14  C14 UNL     1      22.645   4.288  49.992  1.00  0.00     0.091 C 
HETATM   15  C15 UNL     1      23.982   4.431  49.830  1.00  0.00     0.053 C 
HETATM   16  C16 UNL     1      25.482   4.352  49.818  1.00  0.00     0.098 C 
HETATM   17  N3  UNL     1      26.386   3.575  50.334  1.00  0.00    -0.247 NA
ENDROOT
BRANCH   1  18
HETATM   18  C3  UNL     1      27.891  -0.091  52.873  1.00  0.00     0.196 A 
HETATM   19  S1  UNL     1      29.497   0.399  53.723  1.00  0.00    -0.058 SA
HETATM   20  C2  UNL     1      29.953  -1.365  53.965  1.00  0.00     0.111 A 
HETATM   21  C1  UNL     1      28.873  -2.021  53.392  1.00  0.00     0.171 A 
HETATM   22  N4  UNL     1      27.900  -1.232  52.877  1.00  0.00    -0.198 NA
BRANCH  21  23
HETATM   23  O1  UNL     1      28.784  -3.428  53.344  1.00  0.00    -0.344 OA
HETATM   24  H1  UNL     1      28.103  -3.898  52.809  1.00  0.00     0.219 HD
ENDBRANCH  21  23
ENDBRANCH   1  18
TORSDOF 2
ENDMDL
MODEL 3
REMARK VINA RESULT:      -9.0      2.168      2.799
REMARK  2 active torsions:
REMARK  status: ('A' for Active; 'I' for Inactive)
REMARK    1  A    between atoms: O1_1  and  C1_2 
REMARK    2  A    between atoms: C3_5  and  N1_6 
ROOT
HETATM    1  N1  UNL     1      25.591   0.223  53.545  1.00  0.00    -0.212 N 
HETATM    2  N2  UNL     1      24.721  -0.580  54.247  1.00  0.00    -0.150 NA
HETATM    3  C4  UNL     1      23.500  -0.463  53.920  1.00  0.00     0.151 A 
HETATM    4  C5  UNL     1      23.432   0.556  52.829  1.00  0.00     0.141 A 
HETATM    5  C6  UNL     1      24.833   0.979  52.613  1.00  0.00     0.043 A 
HETATM    6  C7  UNL     1      25.286   1.843  51.741  1.00  0.00     0.012 C 
HETATM    7  C8  UNL     1      24.233   2.438  50.945  1.00  0.00     0.063 C 
HETATM    8  C9  UNL     1      23.634   3.209  50.018  1.00  0.00     0.000 C 
HETATM    9 CL1  UNL     1      23.918   4.418  48.734  1.00  0.00    -0.093 Cl
HETATM   10  C10 UNL     1      22.170   2.878  50.153  1.00  0.00     0.031 C 
HETATM   11  C11 UNL     1      20.911   2.476  50.398  1.00  0.00     0.120 C 
HETATM   12  C12 UNL     1      20.466   1.567  51.318  1.00  0.00    -0.099 C 
HETATM   13  C13 UNL     1      20.108   0.787  52.089  1.00  0.00    -0.099 C 
HETATM   14  C14 UNL     1      19.702  -0.163  53.013  1.00  0.00     0.091 C 
HETATM   15  C15 UNL     1      20.471  -0.870  53.874  1.00  0.00     0.053 C 
HETATM   16  C16 UNL     1      21.545  -1.507  54.710  1.00  0.00     0.098 C 
HETATM   17  N3  UNL     1      22.837  -1.410  54.812  1.00  0.00    -0.247 NA
ENDROOT
BRANCH   1  18
HETATM   18  C3  UNL     1      27.071   0.313  53.692  1.00  0.00     0.196 A 
HETATM   19  S1  UNL     1      28.384  -0.958  53.239  1.00  0.00    -0.058 SA
HETATM   20  C2  UNL     1      29.721   0.156  53.830  1.00  0.00     0.111 A 
HETATM   21  C1  UNL     1      29.003   1.263  54.259  1.00  0.00     0.171 A 
HETATM   22  N4  UNL     1      27.658   1.191  54.122  1.00  0.00    -0.198 NA
BRANCH  21  23
HETATM   23  O1  UNL     1      29.629   2.402  54.807  1.00  0.00    -0.344 OA
HETATM   24  H1  UNL     1      29.243   2.910  55.557  1.00  0.00     0.219 HD
ENDBRANCH  21  23
ENDBRANCH   1  18
TORSDOF 2
ENDMDL
MODEL 4
REMARK VINA RESULT:      -8.8      4.094      5.840
REMARK  2 active torsions:
REMARK  status: ('A' for Active; 'I' for Inactive)
REMARK    1  A    between atoms: O1_1  and  C1_2 
REMARK    2  A    between atoms: C3_5  and  N1_6 
ROOT
HETATM    1  N1  UNL     1      25.333   3.472  50.044  1.00  0.00    -0.212 N 
HETATM    2  N2  UNL     1      24.021   3.217  49.716  1.00  0.00    -0.150 NA
HETATM    3  C4  UNL     1      23.457   2.323  50.419  1.00  0.00     0.151 A 
HETATM    4  C5  UNL     1      24.466   1.836  51.406  1.00  0.00     0.141 A 
HETATM    5  C6  UNL     1      25.688   2.623  51.125  1.00  0.00     0.043 A 
HETATM    6  C7  UNL     1      26.838   2.570  51.745  1.00  0.00     0.012 C 
HETATM    7  C8  UNL     1      26.857   1.583  52.805  1.00  0.00     0.063 C 
HETATM    8  C9  UNL     1      27.316   0.838  53.827  1.00  0.00     0.000 C 
HETATM    9 CL1  UNL     1      28.732   0.524  54.871  1.00  0.00    -0.093 Cl
HETATM   10  C10 UNL     1      26.148  -0.037  54.201  1.00  0.00     0.031 C 
HETATM   11  C11 UNL     1      25.021  -0.741  54.407  1.00  0.00     0.120 C 
HETATM   12  C12 UNL     1      23.829  -0.662  53.741  1.00  0.00    -0.099 C 
HETATM   13  C13 UNL     1      22.825  -0.574  53.180  1.00  0.00    -0.099 C 
HETATM   14  C14 UNL     1      21.624  -0.442  52.500  1.00  0.00     0.091 C 
HETATM   15  C15 UNL     1      21.333   0.399  51.480  1.00  0.00     0.053 C 
HETATM   16  C16 UNL     1      21.285   1.420  50.378  1.00  0.00     0.098 C 
HETATM   17  N3  UNL     1      22.111   2.274  49.853  1.00  0.00    -0.247 NA
ENDROOT
BRANCH   1  18
HETATM   18  C3  UNL     1      26.257   4.458  49.415  1.00  0.00     0.196 A 
HETATM   19  S1  UNL     1      25.962   6.277  49.030  1.00  0.00    -0.058 SA
HETATM   20  C2  UNL     1      27.648   6.439  48.318  1.00  0.00     0.111 A 
HETATM   21  C1  UNL     1      28.150   5.155  48.472  1.00  0.00     0.171 A 
HETATM   22  N4  UNL     1      27.318   4.256  49.050  1.00  0.00    -0.198 NA
BRANCH  21  23
HETATM   23  O1  UNL     1      29.449   4.797  48.055  1.00  0.00    -0.344 OA
HETATM   24  H1  UNL     1      29.951   4.055  48.463  1.00  0.00     0.219 HD
ENDBRANCH  21  23
ENDBRANCH   1  18
TORSDOF 2
ENDMDL
MODEL 5
REMARK VINA RESULT:      -8.6      3.275      4.734
REMARK  2 active torsions:
REMARK  status: ('A' for Active; 'I' for Inactive)
REMARK    1  A    between atoms: O1_1  and  C1_2 
REMARK    2  A    between atoms: C3_5  and  N1_6 
ROOT
HETATM    1  N1  UNL     1      26.099   1.658  52.124  1.00  0.00    -0.212 N 
HETATM    2  N2  UNL     1      26.044   2.607  51.129  1.00  0.00    -0.150 NA
HETATM    3  C4  UNL     1      24.895   2.784  50.619  1.00  0.00     0.151 A 
HETATM    4  C5  UNL     1      23.956   1.852  51.314  1.00  0.00     0.141 A 
HETATM    5  C6  UNL     1      24.792   1.131  52.299  1.00  0.00     0.043 A 
HETATM    6  C7  UNL     1      24.415   0.224  53.162  1.00  0.00     0.012 C 
HETATM    7  C8  UNL     1      23.003  -0.084  53.068  1.00  0.00     0.063 C 
HETATM    8  C9  UNL     1      21.816  -0.661  53.335  1.00  0.00     0.000 C 
HETATM    9 CL1  UNL     1      20.984  -1.849  54.377  1.00  0.00    -0.093 Cl
HETATM   10  C10 UNL     1      20.864  -0.013  52.364  1.00  0.00     0.031 C 
HETATM   11  C11 UNL     1      20.148   0.654  51.442  1.00  0.00     0.120 C 
HETATM   12  C12 UNL     1      20.572   1.602  50.552  1.00  0.00    -0.099 C 
HETATM   13  C13 UNL     1      20.941   2.411  49.816  1.00  0.00    -0.099 C 
HETATM   14  C14 UNL     1      21.404   3.390  48.950  1.00  0.00     0.091 C 
HETATM   15  C15 UNL     1      22.665   3.869  48.833  1.00  0.00     0.053 C 
HETATM   16  C16 UNL     1      24.126   4.210  48.914  1.00  0.00     0.098 C 
HETATM   17  N3  UNL     1      25.144   3.820  49.620  1.00  0.00    -0.247 NA
ENDROOT
BRANCH   1  18
HETATM   18  C3  UNL     1      27.289   1.229  52.912  1.00  0.00     0.196 A 
HETATM   19  S1  UNL     1      27.965  -0.507  53.182  1.00  0.00    -0.058 SA
HETATM   20  C2  UNL     1      29.325   0.144  54.232  1.00  0.00     0.111 A 
HETATM   21  C1  UNL     1      29.070   1.508  54.218  1.00  0.00     0.171 A 
HETATM   22  N4  UNL     1      27.994   1.906  53.498  1.00  0.00    -0.198 NA
BRANCH  21  23
HETATM   23  O1  UNL     1      29.878   2.434  54.911  1.00  0.00    -0.344 OA
HETATM   24  H1  UNL     1      30.862   2.406  54.878  1.00  0.00     0.219 HD
ENDBRANCH  21  23
ENDBRANCH   1  18
TORSDOF 2
ENDMDL
MODEL 6
REMARK VINA RESULT:      -8.3      3.822      6.068
REMARK  2 active torsions:
REMARK  status: ('A' for Active; 'I' for Inactive)
REMARK    1  A    between atoms: O1_1  and  C1_2 
REMARK    2  A    between atoms: C3_5  and  N1_6 
ROOT
HETATM    1  N1  UNL     1      25.466   2.665  51.513  1.00  0.00    -0.212 N 
HETATM    2  N2  UNL     1      26.233   2.168  52.542  1.00  0.00    -0.150 NA
HETATM    3  C4  UNL     1      25.654   1.310  53.278  1.00  0.00     0.151 A 
HETATM    4  C5  UNL     1      24.271   1.131  52.740  1.00  0.00     0.141 A 
HETATM    5  C6  UNL     1      24.192   2.041  51.576  1.00  0.00     0.043 A 
HETATM    6  C7  UNL     1      23.183   2.221  50.764  1.00  0.00     0.012 C 
HETATM    7  C8  UNL     1      22.029   1.422  51.122  1.00  0.00     0.063 C 
HETATM    8  C9  UNL     1      20.788   0.902  51.068  1.00  0.00     0.000 C 
HETATM    9 CL1  UNL     1      19.251   0.909  50.158  1.00  0.00    -0.093 Cl
HETATM   10  C10 UNL     1      20.735  -0.047  52.238  1.00  0.00     0.031 C 
HETATM   11  C11 UNL     1      20.848  -0.845  53.314  1.00  0.00     0.120 C 
HETATM   12  C12 UNL     1      21.920  -1.013  54.145  1.00  0.00    -0.099 C 
HETATM   13  C13 UNL     1      22.838  -1.156  54.830  1.00  0.00    -0.099 C 
HETATM   14  C14 UNL     1      23.958  -1.321  55.631  1.00  0.00     0.091 C 
HETATM   15  C15 UNL     1      25.160  -0.708  55.519  1.00  0.00     0.053 C 
HETATM   16  C16 UNL     1      26.372   0.105  55.166  1.00  0.00     0.098 C 
HETATM   17  N3  UNL     1      26.687   0.976  54.254  1.00  0.00    -0.247 NA
ENDROOT
BRANCH   1  18
HETATM   18  C3  UNL     1      25.857   3.671  50.486  1.00  0.00     0.196 A 
HETATM   19  S1  UNL     1      24.853   5.104  49.792  1.00  0.00    -0.058 SA
HETATM   20  C2  UNL     1      26.239   5.592  48.689  1.00  0.00     0.111 A 
HETATM   21  C1  UNL     1      27.201   4.642  49.000  1.00  0.00     0.171 A 
HETATM   22  N4  UNL     1      26.855   3.728  49.938  1.00  0.00    -0.198 NA
BRANCH  21  23
HETATM   23  O1  UNL     1      28.469   4.620  48.381  1.00  0.00    -0.344 OA
HETATM   24  H1  UNL     1      28.706   3.967  47.683  1.00  0.00     0.219 HD
ENDBRANCH  21  23
ENDBRANCH   1  18
TORSDOF 2
ENDMDL
MODEL 7
REMARK VINA RESULT:      -8.2      3.903      5.716
REMARK  2 active torsions:
REMARK  status: ('A' for Active; 'I' for Inactive)
REMARK    1  A    between atoms: O1_1  and  C1_2 
REMARK    2  A    between atoms: C3_5  and  N1_6 
ROOT
HETATM    1  N1  UNL     1      25.660   3.422  50.278  1.00  0.00    -0.212 N 
HETATM    2  N2  UNL     1      26.041   2.668  51.364  1.00  0.00    -0.150 NA
HETATM    3  C4  UNL     1      25.161   1.857  51.789  1.00  0.00     0.151 A 
HETATM    4  C5  UNL     1      23.960   2.012  50.915  1.00  0.00     0.141 A 
HETATM    5  C6  UNL     1      24.334   3.052  49.931  1.00  0.00     0.043 A 
HETATM    6  C7  UNL     1      23.616   3.519  48.943  1.00  0.00     0.012 C 
HETATM    7  C8  UNL     1      22.298   2.921  48.879  1.00  0.00     0.063 C 
HETATM    8  C9  UNL     1      21.050   2.660  48.446  1.00  0.00     0.000 C 
HETATM    9 CL1  UNL     1      19.829   3.071  47.209  1.00  0.00    -0.093 Cl
HETATM   10  C10 UNL     1      20.543   1.607  49.397  1.00  0.00     0.031 C 
HETATM   11  C11 UNL     1      20.241   0.680  50.322  1.00  0.00     0.120 C 
HETATM   12  C12 UNL     1      21.016   0.210  51.347  1.00  0.00    -0.099 C 
HETATM   13  C13 UNL     1      21.687  -0.188  52.197  1.00  0.00    -0.099 C 
HETATM   14  C14 UNL     1      22.515  -0.659  53.204  1.00  0.00     0.091 C 
HETATM   15  C15 UNL     1      23.784  -0.281  53.484  1.00  0.00     0.053 C 
HETATM   16  C16 UNL     1      25.158   0.319  53.570  1.00  0.00     0.098 C 
HETATM   17  N3  UNL     1      25.834   1.216  52.916  1.00  0.00    -0.247 NA
ENDROOT
BRANCH   1  18
HETATM   18  C3  UNL     1      26.461   4.449  49.553  1.00  0.00     0.196 A 
HETATM   19  S1  UNL     1      26.011   6.232  49.153  1.00  0.00    -0.058 SA
HETATM   20  C2  UNL     1      27.620   6.487  48.303  1.00  0.00     0.111 A 
HETATM   21  C1  UNL     1      28.220   5.245  48.445  1.00  0.00     0.171 A 
HETATM   22  N4  UNL     1      27.501   4.308  49.109  1.00  0.00    -0.198 NA
BRANCH  21  23
HETATM   23  O1  UNL     1      29.504   4.963  47.932  1.00  0.00    -0.344 OA
HETATM   24  H1  UNL     1      29.643   4.428  47.117  1.00  0.00     0.219 HD
ENDBRANCH  21  23
ENDBRANCH   1  18
TORSDOF 2
ENDMDL
MODEL 8
REMARK VINA RESULT:      -8.2      4.667      7.455
REMARK  2 active torsions:
REMARK  status: ('A' for Active; 'I' for Inactive)
REMARK    1  A    between atoms: O1_1  and  C1_2 
REMARK    2  A    between atoms: C3_5  and  N1_6 
ROOT
HETATM    1  N1  UNL     1      24.079   2.581  50.380  1.00  0.00    -0.212 N 
HETATM    2  N2  UNL     1      25.407   2.725  50.711  1.00  0.00    -0.150 NA
HETATM    3  C4  UNL     1      25.782   2.063  51.727  1.00  0.00     0.151 A 
HETATM    4  C5  UNL     1      24.589   1.320  52.234  1.00  0.00     0.141 A 
HETATM    5  C6  UNL     1      23.489   1.689  51.315  1.00  0.00     0.043 A 
HETATM    6  C7  UNL     1      22.250   1.273  51.337  1.00  0.00     0.012 C 
HETATM    7  C8  UNL     1      21.984   0.366  52.435  1.00  0.00     0.063 C 
HETATM    8  C9  UNL     1      21.309  -0.466  53.249  1.00  0.00     0.000 C 
HETATM    9 CL1  UNL     1      19.719  -1.220  53.556  1.00  0.00    -0.093 Cl
HETATM   10  C10 UNL     1      22.334  -0.905  54.262  1.00  0.00     0.031 C 
HETATM   11  C11 UNL     1      23.360  -1.196  55.082  1.00  0.00     0.120 C 
HETATM   12  C12 UNL     1      24.650  -0.745  55.032  1.00  0.00    -0.099 C 
HETATM   13  C13 UNL     1      25.738  -0.368  54.969  1.00  0.00    -0.099 C 
HETATM   14  C14 UNL     1      27.043   0.089  54.865  1.00  0.00     0.091 C 
HETATM   15  C15 UNL     1      27.560   0.933  53.941  1.00  0.00     0.053 C 
HETATM   16  C16 UNL     1      27.862   1.871  52.808  1.00  0.00     0.098 C 
HETATM   17  N3  UNL     1      27.197   2.408  51.829  1.00  0.00    -0.247 NA
ENDROOT
BRANCH   1  18
HETATM   18  C3  UNL     1      23.344   3.218  49.251  1.00  0.00     0.196 A 
HETATM   19  S1  UNL     1      22.427   2.399  47.825  1.00  0.00    -0.058 SA
HETATM   20  C2  UNL     1      21.977   4.036  47.123  1.00  0.00     0.111 A 
HETATM   21  C1  UNL     1      22.561   4.908  48.031  1.00  0.00     0.171 A 
HETATM   22  N4  UNL     1      23.225   4.336  49.064  1.00  0.00    -0.198 NA
BRANCH  21  23
HETATM   23  O1  UNL     1      22.476   6.309  47.894  1.00  0.00    -0.344 OA
HETATM   24  H1  UNL     1      23.272   6.884  47.821  1.00  0.00     0.219 HD
ENDBRANCH  21  23
ENDBRANCH   1  18
TORSDOF 2
ENDMDL
MODEL 9
REMARK VINA RESULT:      -8.1      4.359      5.934
REMARK  2 active torsions:
REMARK  status: ('A' for Active; 'I' for Inactive)
REMARK    1  A    between atoms: O1_1  and  C1_2 
REMARK    2  A    between atoms: C3_5  and  N1_6 
ROOT
HETATM    1  N1  UNL     1      24.674   3.896  49.688  1.00  0.00    -0.212 N 
HETATM    2  N2  UNL     1      23.417   3.806  49.136  1.00  0.00    -0.150 NA
HETATM    3  C4  UNL     1      22.655   2.946  49.677  1.00  0.00     0.151 A 
HETATM    4  C5  UNL     1      23.430   2.301  50.779  1.00  0.00     0.141 A 
HETATM    5  C6  UNL     1      24.754   2.960  50.752  1.00  0.00     0.043 A 
HETATM    6  C7  UNL     1      25.773   2.749  51.544  1.00  0.00     0.012 C 
HETATM    7  C8  UNL     1      25.514   1.714  52.524  1.00  0.00     0.063 C 
HETATM    8  C9  UNL     1      25.717   0.873  53.555  1.00  0.00     0.000 C 
HETATM    9 CL1  UNL     1      26.898   0.351  54.790  1.00  0.00    -0.093 Cl
HETATM   10  C10 UNL     1      24.420   0.116  53.675  1.00  0.00     0.031 C 
HETATM   11  C11 UNL     1      23.209  -0.467  53.650  1.00  0.00     0.120 C 
HETATM   12  C12 UNL     1      22.159  -0.223  52.807  1.00  0.00    -0.099 C 
HETATM   13  C13 UNL     1      21.277   0.004  52.098  1.00  0.00    -0.099 C 
HETATM   14  C14 UNL     1      20.227   0.303  51.244  1.00  0.00     0.091 C 
HETATM   15  C15 UNL     1      20.198   1.220  50.249  1.00  0.00     0.053 C 
HETATM   16  C16 UNL     1      20.440   2.294  49.226  1.00  0.00     0.098 C 
HETATM   17  N3  UNL     1      21.425   3.075  48.899  1.00  0.00    -0.247 NA
ENDROOT
BRANCH   1  18
HETATM   18  C3  UNL     1      25.786   4.803  49.284  1.00  0.00     0.196 A 
HETATM   19  S1  UNL     1      25.812   6.684  49.213  1.00  0.00    -0.058 SA
HETATM   20  C2  UNL     1      27.550   6.676  48.615  1.00  0.00     0.111 A 
HETATM   21  C1  UNL     1      27.829   5.318  48.564  1.00  0.00     0.171 A 
HETATM   22  N4  UNL     1      26.826   4.488  48.936  1.00  0.00    -0.198 NA
BRANCH  21  23
HETATM   23  O1  UNL     1      29.082   4.821  48.148  1.00  0.00    -0.344 OA
HETATM   24  H1  UNL     1      29.781   4.545  48.785  1.00  0.00     0.219 HD
ENDBRANCH  21  23
ENDBRANCH   1  18
TORSDOF 2
ENDMDL
