MODEL 1
REMARK VINA RESULT:      -8.7      0.000      0.000
REMARK  6 active torsions:
REMARK  status: ('A' for Active; 'I' for Inactive)
REMARK    1  A    between atoms: C2_2  and  C4_4 
REMARK    2  A    between atoms: C4_4  and  C5_5 
REMARK    3  A    between atoms: C5_5  and  C7_7 
REMARK       I    between atoms: C7_7  and  N1_9 
REMARK    4  A    between atoms: N1_9  and  C8_10 
REMARK    5  A    between atoms: C13_17  and  N4_18 
REMARK    6  A    between atoms: N4_18  and  C14_19 
ROOT
HETATM    1  C8  UNL     1      22.773   1.403  52.018  1.00  0.00     0.141 A 
HETATM    2  C9  UNL     1      23.817   0.804  52.551  1.00  0.00     0.037 A 
HETATM    3  C10 UNL     1      23.676   0.026  53.587  1.00  0.00     0.031 A 
HETATM    4  C11 UNL     1      22.367  -0.204  54.186  1.00  0.00     0.086 A 
HETATM    5  N2  UNL     1      22.210  -0.976  55.218  1.00  0.00    -0.240 NA
HETATM    6  C12 UNL     1      23.398  -1.597  55.746  1.00  0.00     0.230 A 
HETATM    7  N3  UNL     1      24.604  -1.446  55.276  1.00  0.00    -0.252 NA
HETATM    8  C13 UNL     1      24.891  -0.610  54.132  1.00  0.00     0.244 A 
HETATM    9  C19 UNL     1      21.230   0.479  53.563  1.00  0.00     0.151 A 
HETATM   10  N5  UNL     1      21.460   1.234  52.536  1.00  0.00    -0.240 NA
ENDROOT
BRANCH   1  11
HETATM   11  N1  UNL     1      22.979   2.241  50.888  1.00  0.00    -0.311 N 
HETATM   12  C7  UNL     1      23.253   3.629  51.060  1.00  0.00     0.227 C 
HETATM   13  O1  UNL     1      23.321   4.155  52.208  1.00  0.00    -0.273 OA
HETATM   14  H14 UNL     1      22.936   1.867  49.919  1.00  0.00     0.170 HD
BRANCH  12  15
HETATM   15  C5  UNL     1      23.476   4.543  49.875  1.00  0.00     0.074 C 
HETATM   16  C6  UNL     1      23.638   5.925  50.446  1.00  0.00     0.020 C 
BRANCH  15  17
HETATM   17  C4  UNL     1      24.682   4.055  49.180  1.00  0.00     0.017 C 
BRANCH  17  18
HETATM   18  C2  UNL     1      25.984   4.092  49.887  1.00  0.00    -0.022 C 
HETATM   19  C1  UNL     1      26.537   2.815  50.404  1.00  0.00     0.009 C 
HETATM   20  C3  UNL     1      26.994   4.734  48.916  1.00  0.00     0.009 C 
ENDBRANCH  17  18
ENDBRANCH  15  17
ENDBRANCH  12  15
ENDBRANCH   1  11
BRANCH   8  21
HETATM   21  N4  UNL     1      25.881   0.388  54.519  1.00  0.00    -0.365 N 
HETATM   22  H17 UNL     1      25.990   1.305  54.998  1.00  0.00     0.162 HD
BRANCH  21  23
HETATM   23  C14 UNL     1      27.213   0.047  54.130  1.00  0.00     0.032 A 
HETATM   24  C15 UNL     1      27.350  -1.036  53.348  1.00  0.00     0.029 A 
HETATM   25  C16 UNL     1      28.784  -1.212  53.064  1.00  0.00     0.042 A 
HETATM   26  C17 UNL     1      29.456  -0.250  53.671  1.00  0.00     0.118 A 
HETATM   27  F1  UNL     1      30.766   0.131  53.794  1.00  0.00    -0.209 F 
HETATM   28  C18 UNL     1      28.539   0.656  54.413  1.00  0.00     0.193 A 
HETATM   29 CL1  UNL     1      28.703   2.286  53.724  1.00  0.00    -0.111 Cl
ENDBRANCH  21  23
ENDBRANCH   8  21
TORSDOF 6
ENDMDL
MODEL 2
REMARK VINA RESULT:      -8.0      1.586      2.628
REMARK  6 active torsions:
REMARK  status: ('A' for Active; 'I' for Inactive)
REMARK    1  A    between atoms: C2_2  and  C4_4 
REMARK    2  A    between atoms: C4_4  and  C5_5 
REMARK    3  A    between atoms: C5_5  and  C7_7 
REMARK       I    between atoms: C7_7  and  N1_9 
REMARK    4  A    between atoms: N1_9  and  C8_10 
REMARK    5  A    between atoms: C13_17  and  N4_18 
REMARK    6  A    between atoms: N4_18  and  C14_19 
ROOT
HETATM    1  C8  UNL     1      24.155   3.524  51.785  1.00  0.00     0.141 A 
HETATM    2  C9  UNL     1      24.701   2.414  52.236  1.00  0.00     0.037 A 
HETATM    3  C10 UNL     1      23.958   1.454  52.709  1.00  0.00     0.031 A 
HETATM    4  C11 UNL     1      22.505   1.577  52.753  1.00  0.00     0.086 A 
HETATM    5  N2  UNL     1      21.750   0.630  53.221  1.00  0.00    -0.240 NA
HETATM    6  C12 UNL     1      22.420  -0.554  53.697  1.00  0.00     0.230 A 
HETATM    7  N3  UNL     1      23.708  -0.747  53.695  1.00  0.00    -0.252 NA
HETATM    8  C13 UNL     1      24.640   0.241  53.198  1.00  0.00     0.244 A 
HETATM    9  C19 UNL     1      21.935   2.826  52.241  1.00  0.00     0.151 A 
HETATM   10  N5  UNL     1      22.748   3.728  51.789  1.00  0.00    -0.240 NA
ENDROOT
BRANCH   1  11
HETATM   11  N1  UNL     1      25.009   4.540  51.280  1.00  0.00    -0.311 N 
HETATM   12  C7  UNL     1      25.421   4.525  49.915  1.00  0.00     0.227 C 
HETATM   13  O1  UNL     1      25.045   3.618  49.119  1.00  0.00    -0.273 OA
HETATM   14  H14 UNL     1      25.352   5.313  51.885  1.00  0.00     0.170 HD
BRANCH  12  15
HETATM   15  C5  UNL     1      26.330   5.595  49.352  1.00  0.00     0.074 C 
HETATM   16  C6  UNL     1      27.462   4.864  48.684  1.00  0.00     0.020 C 
BRANCH  15  17
HETATM   17  C4  UNL     1      25.519   6.394  48.413  1.00  0.00     0.017 C 
BRANCH  17  18
HETATM   18  C2  UNL     1      24.193   6.891  48.851  1.00  0.00    -0.022 C 
HETATM   19  C1  UNL     1      24.100   8.280  49.365  1.00  0.00     0.009 C 
HETATM   20  C3  UNL     1      23.243   6.721  47.650  1.00  0.00     0.009 C 
ENDBRANCH  17  18
ENDBRANCH  15  17
ENDBRANCH  12  15
ENDBRANCH   1  11
BRANCH   8  21
HETATM   21  N4  UNL     1      25.590   0.561  54.256  1.00  0.00    -0.365 N 
HETATM   22  H17 UNL     1      25.666   0.992  55.200  1.00  0.00     0.162 HD
BRANCH  21  23
HETATM   23  C14 UNL     1      26.930   0.164  53.954  1.00  0.00     0.032 A 
HETATM   24  C15 UNL     1      27.075  -0.975  53.259  1.00  0.00     0.029 A 
HETATM   25  C16 UNL     1      28.516  -1.202  53.055  1.00  0.00     0.042 A 
HETATM   26  C17 UNL     1      29.183  -0.213  53.622  1.00  0.00     0.118 A 
HETATM   27  F1  UNL     1      30.496   0.148  53.779  1.00  0.00    -0.209 F 
HETATM   28  C18 UNL     1      28.256   0.764  54.255  1.00  0.00     0.193 A 
HETATM   29 CL1  UNL     1      28.491   2.336  53.461  1.00  0.00    -0.111 Cl
ENDBRANCH  21  23
ENDBRANCH   8  21
TORSDOF 6
ENDMDL
MODEL 3
REMARK VINA RESULT:      -7.8      3.201      5.936
REMARK  6 active torsions:
REMARK  status: ('A' for Active; 'I' for Inactive)
REMARK    1  A    between atoms: C2_2  and  C4_4 
REMARK    2  A    between atoms: C4_4  and  C5_5 
REMARK    3  A    between atoms: C5_5  and  C7_7 
REMARK       I    between atoms: C7_7  and  N1_9 
REMARK    4  A    between atoms: N1_9  and  C8_10 
REMARK    5  A    between atoms: C13_17  and  N4_18 
REMARK    6  A    between atoms: N4_18  and  C14_19 
ROOT
HETATM    1  C8  UNL     1      22.305  -0.460  53.125  1.00  0.00     0.141 A 
HETATM    2  C9  UNL     1      23.378   0.219  52.777  1.00  0.00     0.037 A 
HETATM    3  C10 UNL     1      24.465   0.154  53.493  1.00  0.00     0.031 A 
HETATM    4  C11 UNL     1      24.527  -0.667  54.697  1.00  0.00     0.086 A 
HETATM    5  N2  UNL     1      25.602  -0.742  55.421  1.00  0.00    -0.240 NA
HETATM    6  C12 UNL     1      26.735   0.029  54.977  1.00  0.00     0.230 A 
HETATM    7  N3  UNL     1      26.766   0.787  53.918  1.00  0.00    -0.252 NA
HETATM    8  C13 UNL     1      25.626   0.943  53.042  1.00  0.00     0.244 A 
HETATM    9  C19 UNL     1      23.314  -1.408  55.051  1.00  0.00     0.151 A 
HETATM   10  N5  UNL     1      22.278  -1.286  54.282  1.00  0.00    -0.240 NA
ENDROOT
BRANCH   1  11
HETATM   11  N1  UNL     1      21.146  -0.356  52.310  1.00  0.00    -0.311 N 
HETATM   12  C7  UNL     1      20.233   0.724  52.488  1.00  0.00     0.227 C 
HETATM   13  O1  UNL     1      20.422   1.614  53.366  1.00  0.00    -0.273 OA
HETATM   14  H14 UNL     1      20.937  -1.057  51.572  1.00  0.00     0.170 HD
BRANCH  12  15
HETATM   15  C5  UNL     1      18.991   0.858  51.635  1.00  0.00     0.074 C 
HETATM   16  C6  UNL     1      19.472   1.264  50.268  1.00  0.00     0.020 C 
BRANCH  15  17
HETATM   17  C4  UNL     1      18.320  -0.455  51.648  1.00  0.00     0.017 C 
BRANCH  17  18
HETATM   18  C2  UNL     1      17.387  -0.775  52.755  1.00  0.00    -0.022 C 
HETATM   19  C1  UNL     1      15.956  -0.991  52.426  1.00  0.00     0.009 C 
HETATM   20  C3  UNL     1      17.949  -2.028  53.454  1.00  0.00     0.009 C 
ENDBRANCH  17  18
ENDBRANCH  15  17
ENDBRANCH  12  15
ENDBRANCH   1  11
BRANCH   8  21
HETATM   21  N4  UNL     1      25.298   2.360  52.951  1.00  0.00    -0.365 N 
HETATM   22  H17 UNL     1      25.014   3.184  53.519  1.00  0.00     0.162 HD
BRANCH  21  23
HETATM   23  C14 UNL     1      25.374   2.876  51.620  1.00  0.00     0.032 A 
HETATM   24  C15 UNL     1      26.513   2.640  50.950  1.00  0.00     0.029 A 
HETATM   25  C16 UNL     1      26.389   3.247  49.614  1.00  0.00     0.042 A 
HETATM   26  C17 UNL     1      25.202   3.820  49.520  1.00  0.00     0.118 A 
HETATM   27  F1  UNL     1      24.504   4.525  48.575  1.00  0.00    -0.209 F 
HETATM   28  C18 UNL     1      24.425   3.651  50.777  1.00  0.00     0.193 A 
HETATM   29 CL1  UNL     1      22.952   2.736  50.391  1.00  0.00    -0.111 Cl
ENDBRANCH  21  23
ENDBRANCH   8  21
TORSDOF 6
ENDMDL
MODEL 4
REMARK VINA RESULT:      -7.8      2.259      5.916
REMARK  6 active torsions:
REMARK  status: ('A' for Active; 'I' for Inactive)
REMARK    1  A    between atoms: C2_2  and  C4_4 
REMARK    2  A    between atoms: C4_4  and  C5_5 
REMARK    3  A    between atoms: C5_5  and  C7_7 
REMARK       I    between atoms: C7_7  and  N1_9 
REMARK    4  A    between atoms: N1_9  and  C8_10 
REMARK    5  A    between atoms: C13_17  and  N4_18 
REMARK    6  A    between atoms: N4_18  and  C14_19 
ROOT
HETATM    1  C8  UNL     1      23.160   0.449  52.798  1.00  0.00     0.141 A 
HETATM    2  C9  UNL     1      23.276   1.583  52.140  1.00  0.00     0.037 A 
HETATM    3  C10 UNL     1      22.259   2.389  52.024  1.00  0.00     0.031 A 
HETATM    4  C11 UNL     1      20.966   2.063  52.615  1.00  0.00     0.086 A 
HETATM    5  N2  UNL     1      19.943   2.856  52.507  1.00  0.00    -0.240 NA
HETATM    6  C12 UNL     1      20.148   4.078  51.773  1.00  0.00     0.230 A 
HETATM    7  N3  UNL     1      21.265   4.447  51.213  1.00  0.00    -0.252 NA
HETATM    8  C13 UNL     1      22.464   3.641  51.271  1.00  0.00     0.244 A 
HETATM    9  C19 UNL     1      20.877   0.793  53.340  1.00  0.00     0.151 A 
HETATM   10  N5  UNL     1      21.937   0.052  53.407  1.00  0.00    -0.240 NA
ENDROOT
BRANCH   1  11
HETATM   11  N1  UNL     1      24.298  -0.395  52.897  1.00  0.00    -0.311 N 
HETATM   12  C7  UNL     1      25.521   0.102  53.435  1.00  0.00     0.227 C 
HETATM   13  O1  UNL     1      25.632   1.296  53.837  1.00  0.00    -0.273 OA
HETATM   14  H14 UNL     1      24.269  -1.386  52.584  1.00  0.00     0.170 HD
BRANCH  12  15
HETATM   15  C5  UNL     1      26.748  -0.775  53.552  1.00  0.00     0.074 C 
HETATM   16  C6  UNL     1      26.562  -1.878  52.546  1.00  0.00     0.020 C 
BRANCH  15  17
HETATM   17  C4  UNL     1      27.914   0.082  53.267  1.00  0.00     0.017 C 
BRANCH  17  18
HETATM   18  C2  UNL     1      29.079   0.039  54.182  1.00  0.00    -0.022 C 
HETATM   19  C1  UNL     1      30.281  -0.720  53.753  1.00  0.00     0.009 C 
HETATM   20  C3  UNL     1      29.469   1.502  54.466  1.00  0.00     0.009 C 
ENDBRANCH  17  18
ENDBRANCH  15  17
ENDBRANCH  12  15
ENDBRANCH   1  11
BRANCH   8  21
HETATM   21  N4  UNL     1      22.911   3.371  49.910  1.00  0.00    -0.365 N 
HETATM   22  H17 UNL     1      22.648   2.876  49.033  1.00  0.00     0.162 HD
BRANCH  21  23
HETATM   23  C14 UNL     1      24.165   3.980  49.593  1.00  0.00     0.032 A 
HETATM   24  C15 UNL     1      24.164   5.315  49.453  1.00  0.00     0.029 A 
HETATM   25  C16 UNL     1      25.537   5.739  49.132  1.00  0.00     0.042 A 
HETATM   26  C17 UNL     1      26.310   4.669  49.088  1.00  0.00     0.118 A 
HETATM   27  F1  UNL     1      27.632   4.398  48.850  1.00  0.00    -0.209 F 
HETATM   28  C18 UNL     1      25.531   3.434  49.376  1.00  0.00     0.193 A 
HETATM   29 CL1  UNL     1      26.208   2.687  50.838  1.00  0.00    -0.111 Cl
ENDBRANCH  21  23
ENDBRANCH   8  21
TORSDOF 6
ENDMDL
MODEL 5
REMARK VINA RESULT:      -7.7      3.025      4.835
REMARK  6 active torsions:
REMARK  status: ('A' for Active; 'I' for Inactive)
REMARK    1  A    between atoms: C2_2  and  C4_4 
REMARK    2  A    between atoms: C4_4  and  C5_5 
REMARK    3  A    between atoms: C5_5  and  C7_7 
REMARK       I    between atoms: C7_7  and  N1_9 
REMARK    4  A    between atoms: N1_9  and  C8_10 
REMARK    5  A    between atoms: C13_17  and  N4_18 
REMARK    6  A    between atoms: N4_18  and  C14_19 
ROOT
HETATM    1  C8  UNL     1      26.007   4.523  49.305  1.00  0.00     0.141 A 
HETATM    2  C9  UNL     1      26.120   3.611  50.247  1.00  0.00     0.037 A 
HETATM    3  C10 UNL     1      25.084   3.256  50.953  1.00  0.00     0.031 A 
HETATM    4  C11 UNL     1      23.774   3.853  50.723  1.00  0.00     0.086 A 
HETATM    5  N2  UNL     1      22.732   3.510  51.418  1.00  0.00    -0.240 NA
HETATM    6  C12 UNL     1      22.933   2.506  52.431  1.00  0.00     0.230 A 
HETATM    7  N3  UNL     1      24.066   1.922  52.703  1.00  0.00    -0.252 NA
HETATM    8  C13 UNL     1      25.287   2.229  51.992  1.00  0.00     0.244 A 
HETATM    9  C19 UNL     1      23.688   4.864  49.665  1.00  0.00     0.151 A 
HETATM   10  N5  UNL     1      24.768   5.157  49.013  1.00  0.00    -0.240 NA
ENDROOT
BRANCH   1  11
HETATM   11  N1  UNL     1      27.167   4.875  48.563  1.00  0.00    -0.311 N 
HETATM   12  C7  UNL     1      27.614   6.228  48.521  1.00  0.00     0.227 C 
HETATM   13  O1  UNL     1      27.000   7.149  49.134  1.00  0.00    -0.273 OA
HETATM   14  H14 UNL     1      27.713   4.163  48.038  1.00  0.00     0.170 HD
BRANCH  12  15
HETATM   15  C5  UNL     1      28.844   6.630  47.739  1.00  0.00     0.074 C 
HETATM   16  C6  UNL     1      29.159   8.039  48.161  1.00  0.00     0.020 C 
BRANCH  15  17
HETATM   17  C4  UNL     1      29.906   5.668  48.089  1.00  0.00     0.017 C 
BRANCH  17  18
HETATM   18  C2  UNL     1      31.301   6.152  48.223  1.00  0.00    -0.022 C 
HETATM   19  C1  UNL     1      32.012   5.895  49.500  1.00  0.00     0.009 C 
HETATM   20  C3  UNL     1      32.095   5.532  47.057  1.00  0.00     0.009 C 
ENDBRANCH  17  18
ENDBRANCH  15  17
ENDBRANCH  12  15
ENDBRANCH   1  11
BRANCH   8  21
HETATM   21  N4  UNL     1      26.296   2.647  52.957  1.00  0.00    -0.365 N 
HETATM   22  H17 UNL     1      26.577   3.435  53.575  1.00  0.00     0.162 HD
BRANCH  21  23
HETATM   23  C14 UNL     1      27.304   1.659  53.189  1.00  0.00     0.032 A 
HETATM   24  C15 UNL     1      28.448   2.090  53.744  1.00  0.00     0.029 A 
HETATM   25  C16 UNL     1      29.342   0.930  53.898  1.00  0.00     0.042 A 
HETATM   26  C17 UNL     1      28.724  -0.143  53.440  1.00  0.00     0.118 A 
HETATM   27  F1  UNL     1      29.003  -1.478  53.306  1.00  0.00    -0.209 F 
HETATM   28  C18 UNL     1      27.364   0.195  52.940  1.00  0.00     0.193 A 
HETATM   29 CL1  UNL     1      26.183  -0.712  53.909  1.00  0.00    -0.111 Cl
ENDBRANCH  21  23
ENDBRANCH   8  21
TORSDOF 6
ENDMDL
MODEL 6
REMARK VINA RESULT:      -7.6      3.330      6.909
REMARK  6 active torsions:
REMARK  status: ('A' for Active; 'I' for Inactive)
REMARK    1  A    between atoms: C2_2  and  C4_4 
REMARK    2  A    between atoms: C4_4  and  C5_5 
REMARK    3  A    between atoms: C5_5  and  C7_7 
REMARK       I    between atoms: C7_7  and  N1_9 
REMARK    4  A    between atoms: N1_9  and  C8_10 
REMARK    5  A    between atoms: C13_17  and  N4_18 
REMARK    6  A    between atoms: N4_18  and  C14_19 
ROOT
HETATM    1  C8  UNL     1      24.986   2.024  51.421  1.00  0.00     0.141 A 
HETATM    2  C9  UNL     1      23.670   2.070  51.438  1.00  0.00     0.037 A 
HETATM    3  C10 UNL     1      23.038   3.118  50.992  1.00  0.00     0.031 A 
HETATM    4  C11 UNL     1      23.763   4.268  50.462  1.00  0.00     0.086 A 
HETATM    5  N2  UNL     1      23.149   5.320  50.014  1.00  0.00    -0.240 NA
HETATM    6  C12 UNL     1      21.709   5.297  50.065  1.00  0.00     0.230 A 
HETATM    7  N3  UNL     1      20.983   4.316  50.521  1.00  0.00    -0.252 NA
HETATM    8  C13 UNL     1      21.564   3.100  51.043  1.00  0.00     0.244 A 
HETATM    9  C19 UNL     1      25.226   4.178  50.460  1.00  0.00     0.151 A 
HETATM   10  N5  UNL     1      25.772   3.098  50.922  1.00  0.00    -0.240 NA
ENDROOT
BRANCH   1  11
HETATM   11  N1  UNL     1      25.627   0.858  51.919  1.00  0.00    -0.311 N 
HETATM   12  C7  UNL     1      25.891   0.718  53.313  1.00  0.00     0.227 C 
HETATM   13  O1  UNL     1      25.567   1.616  54.142  1.00  0.00    -0.273 OA
HETATM   14  H14 UNL     1      25.917   0.085  51.286  1.00  0.00     0.170 HD
BRANCH  12  15
HETATM   15  C5  UNL     1      26.572  -0.513  53.869  1.00  0.00     0.074 C 
HETATM   16  C6  UNL     1      26.742  -1.451  52.705  1.00  0.00     0.020 C 
BRANCH  15  17
HETATM   17  C4  UNL     1      27.853  -0.067  54.448  1.00  0.00     0.017 C 
BRANCH  17  18
HETATM   18  C2  UNL     1      28.818   0.659  53.588  1.00  0.00    -0.022 C 
HETATM   19  C1  UNL     1      29.173   2.053  53.954  1.00  0.00     0.009 C 
HETATM   20  C3  UNL     1      30.096  -0.201  53.540  1.00  0.00     0.009 C 
ENDBRANCH  17  18
ENDBRANCH  15  17
ENDBRANCH  12  15
ENDBRANCH   1  11
BRANCH   8  21
HETATM   21  N4  UNL     1      21.087   2.902  52.406  1.00  0.00    -0.365 N 
HETATM   22  H17 UNL     1      21.016   3.365  53.336  1.00  0.00     0.162 HD
BRANCH  21  23
HETATM   23  C14 UNL     1      20.480   1.625  52.616  1.00  0.00     0.032 A 
HETATM   24  C15 UNL     1      19.551   1.249  51.723  1.00  0.00     0.029 A 
HETATM   25  C16 UNL     1      19.056  -0.082  52.115  1.00  0.00     0.042 A 
HETATM   26  C17 UNL     1      19.689  -0.460  53.211  1.00  0.00     0.118 A 
HETATM   27  F1  UNL     1      19.684  -1.550  54.042  1.00  0.00    -0.209 F 
HETATM   28  C18 UNL     1      20.662   0.575  53.653  1.00  0.00     0.193 A 
HETATM   29 CL1  UNL     1      22.284  -0.148  53.617  1.00  0.00    -0.111 Cl
ENDBRANCH  21  23
ENDBRANCH   8  21
TORSDOF 6
ENDMDL
MODEL 7
REMARK VINA RESULT:      -7.6      2.980      6.321
REMARK  6 active torsions:
REMARK  status: ('A' for Active; 'I' for Inactive)
REMARK    1  A    between atoms: C2_2  and  C4_4 
REMARK    2  A    between atoms: C4_4  and  C5_5 
REMARK    3  A    between atoms: C5_5  and  C7_7 
REMARK       I    between atoms: C7_7  and  N1_9 
REMARK    4  A    between atoms: N1_9  and  C8_10 
REMARK    5  A    between atoms: C13_17  and  N4_18 
REMARK    6  A    between atoms: N4_18  and  C14_19 
ROOT
HETATM    1  C8  UNL     1      25.313   2.715  50.658  1.00  0.00     0.141 A 
HETATM    2  C9  UNL     1      24.153   2.234  51.055  1.00  0.00     0.037 A 
HETATM    3  C10 UNL     1      23.039   2.767  50.641  1.00  0.00     0.031 A 
HETATM    4  C11 UNL     1      23.039   3.906  49.730  1.00  0.00     0.086 A 
HETATM    5  N2  UNL     1      21.938   4.448  49.308  1.00  0.00    -0.240 NA
HETATM    6  C12 UNL     1      20.708   3.868  49.786  1.00  0.00     0.230 A 
HETATM    7  N3  UNL     1      20.616   2.854  50.599  1.00  0.00    -0.252 NA
HETATM    8  C13 UNL     1      21.778   2.177  51.129  1.00  0.00     0.244 A 
HETATM    9  C19 UNL     1      24.350   4.412  49.311  1.00  0.00     0.151 A 
HETATM   10  N5  UNL     1      25.407   3.822  49.771  1.00  0.00    -0.240 NA
ENDROOT
BRANCH   1  11
HETATM   11  N1  UNL     1      26.500   2.098  51.138  1.00  0.00    -0.311 N 
HETATM   12  C7  UNL     1      26.754   2.014  52.538  1.00  0.00     0.227 C 
HETATM   13  O1  UNL     1      25.943   2.480  53.389  1.00  0.00    -0.273 OA
HETATM   14  H14 UNL     1      27.204   1.696  50.488  1.00  0.00     0.170 HD
BRANCH  12  15
HETATM   15  C5  UNL     1      28.010   1.363  53.075  1.00  0.00     0.074 C 
HETATM   16  C6  UNL     1      28.786   2.460  53.751  1.00  0.00     0.020 C 
BRANCH  15  17
HETATM   17  C4  UNL     1      27.577   0.301  54.003  1.00  0.00     0.017 C 
BRANCH  17  18
HETATM   18  C2  UNL     1      27.846  -1.114  53.652  1.00  0.00    -0.022 C 
HETATM   19  C1  UNL     1      27.085  -1.715  52.528  1.00  0.00     0.009 C 
HETATM   20  C3  UNL     1      29.356  -1.215  53.363  1.00  0.00     0.009 C 
ENDBRANCH  17  18
ENDBRANCH  15  17
ENDBRANCH  12  15
ENDBRANCH   1  11
BRANCH   8  21
HETATM   21  N4  UNL     1      21.711   2.204  52.584  1.00  0.00    -0.365 N 
HETATM   22  H17 UNL     1      21.778   2.839  53.406  1.00  0.00     0.162 HD
BRANCH  21  23
HETATM   23  C14 UNL     1      21.465   0.921  53.166  1.00  0.00     0.032 A 
HETATM   24  C15 UNL     1      20.252   0.388  52.949  1.00  0.00     0.029 A 
HETATM   25  C16 UNL     1      20.203  -0.919  53.624  1.00  0.00     0.042 A 
HETATM   26  C17 UNL     1      21.365  -1.131  54.217  1.00  0.00     0.118 A 
HETATM   27  F1  UNL     1      21.934  -2.119  54.977  1.00  0.00    -0.209 F 
HETATM   28  C18 UNL     1      22.296   0.008  53.994  1.00  0.00     0.193 A 
HETATM   29 CL1  UNL     1      23.714  -0.607  53.119  1.00  0.00    -0.111 Cl
ENDBRANCH  21  23
ENDBRANCH   8  21
TORSDOF 6
ENDMDL
MODEL 8
REMARK VINA RESULT:      -7.5      3.091      4.941
REMARK  6 active torsions:
REMARK  status: ('A' for Active; 'I' for Inactive)
REMARK    1  A    between atoms: C2_2  and  C4_4 
REMARK    2  A    between atoms: C4_4  and  C5_5 
REMARK    3  A    between atoms: C5_5  and  C7_7 
REMARK       I    between atoms: C7_7  and  N1_9 
REMARK    4  A    between atoms: N1_9  and  C8_10 
REMARK    5  A    between atoms: C13_17  and  N4_18 
REMARK    6  A    between atoms: N4_18  and  C14_19 
ROOT
HETATM    1  C8  UNL     1      22.511  -0.176  52.946  1.00  0.00     0.141 A 
HETATM    2  C9  UNL     1      23.579   0.508  52.591  1.00  0.00     0.037 A 
HETATM    3  C10 UNL     1      24.685   0.408  53.270  1.00  0.00     0.031 A 
HETATM    4  C11 UNL     1      24.777  -0.458  54.440  1.00  0.00     0.086 A 
HETATM    5  N2  UNL     1      25.873  -0.569  55.128  1.00  0.00    -0.240 NA
HETATM    6  C12 UNL     1      26.999   0.210  54.679  1.00  0.00     0.230 A 
HETATM    7  N3  UNL     1      27.004   1.007  53.649  1.00  0.00    -0.252 NA
HETATM    8  C13 UNL     1      25.840   1.205  52.814  1.00  0.00     0.244 A 
HETATM    9  C19 UNL     1      23.568  -1.203  54.803  1.00  0.00     0.151 A 
HETATM   10  N5  UNL     1      22.511  -1.045  54.071  1.00  0.00    -0.240 NA
ENDROOT
BRANCH   1  11
HETATM   11  N1  UNL     1      21.328  -0.033  52.171  1.00  0.00    -0.311 N 
HETATM   12  C7  UNL     1      20.499   1.117  52.325  1.00  0.00     0.227 C 
HETATM   13  O1  UNL     1      20.785   2.036  53.145  1.00  0.00    -0.273 OA
HETATM   14  H14 UNL     1      21.041  -0.754  51.480  1.00  0.00     0.170 HD
BRANCH  12  15
HETATM   15  C5  UNL     1      19.235   1.294  51.513  1.00  0.00     0.074 C 
HETATM   16  C6  UNL     1      18.846   2.739  51.666  1.00  0.00     0.020 C 
BRANCH  15  17
HETATM   17  C4  UNL     1      19.564   0.924  50.123  1.00  0.00     0.017 C 
BRANCH  17  18
HETATM   18  C2  UNL     1      20.465   1.802  49.339  1.00  0.00    -0.022 C 
HETATM   19  C1  UNL     1      21.596   1.175  48.611  1.00  0.00     0.009 C 
HETATM   20  C3  UNL     1      19.573   2.569  48.343  1.00  0.00     0.009 C 
ENDBRANCH  17  18
ENDBRANCH  15  17
ENDBRANCH  12  15
ENDBRANCH   1  11
BRANCH   8  21
HETATM   21  N4  UNL     1      25.521   2.626  52.786  1.00  0.00    -0.365 N 
HETATM   22  H17 UNL     1      25.231   3.424  53.388  1.00  0.00     0.162 HD
BRANCH  21  23
HETATM   23  C14 UNL     1      25.626   3.206  51.483  1.00  0.00     0.032 A 
HETATM   24  C15 UNL     1      26.582   2.709  50.682  1.00  0.00     0.029 A 
HETATM   25  C16 UNL     1      26.522   3.434  49.401  1.00  0.00     0.042 A 
HETATM   26  C17 UNL     1      25.552   4.328  49.467  1.00  0.00     0.118 A 
HETATM   27  F1  UNL     1      25.009   5.278  48.642  1.00  0.00    -0.209 F 
HETATM   28  C18 UNL     1      24.874   4.286  50.791  1.00  0.00     0.193 A 
HETATM   29 CL1  UNL     1      23.170   3.866  50.520  1.00  0.00    -0.111 Cl
ENDBRANCH  21  23
ENDBRANCH   8  21
TORSDOF 6
ENDMDL
MODEL 9
REMARK VINA RESULT:      -7.5      2.367      5.518
REMARK  6 active torsions:
REMARK  status: ('A' for Active; 'I' for Inactive)
REMARK    1  A    between atoms: C2_2  and  C4_4 
REMARK    2  A    between atoms: C4_4  and  C5_5 
REMARK    3  A    between atoms: C5_5  and  C7_7 
REMARK       I    between atoms: C7_7  and  N1_9 
REMARK    4  A    between atoms: N1_9  and  C8_10 
REMARK    5  A    between atoms: C13_17  and  N4_18 
REMARK    6  A    between atoms: N4_18  and  C14_19 
ROOT
HETATM    1  C8  UNL     1      22.575   3.042  51.157  1.00  0.00     0.141 A 
HETATM    2  C9  UNL     1      23.862   2.836  51.342  1.00  0.00     0.037 A 
HETATM    3  C10 UNL     1      24.745   3.464  50.619  1.00  0.00     0.031 A 
HETATM    4  C11 UNL     1      24.339   4.410  49.586  1.00  0.00     0.086 A 
HETATM    5  N2  UNL     1      25.206   5.044  48.857  1.00  0.00    -0.240 NA
HETATM    6  C12 UNL     1      26.596   4.766  49.118  1.00  0.00     0.230 A 
HETATM    7  N3  UNL     1      27.046   3.938  50.017  1.00  0.00    -0.252 NA
HETATM    8  C13 UNL     1      26.168   3.181  50.882  1.00  0.00     0.244 A 
HETATM    9  C19 UNL     1      22.898   4.614  49.411  1.00  0.00     0.151 A 
HETATM   10  N5  UNL     1      22.090   3.947  50.174  1.00  0.00    -0.240 NA
ENDROOT
BRANCH   1  11
HETATM   11  N1  UNL     1      21.653   2.333  51.972  1.00  0.00    -0.311 N 
HETATM   12  C7  UNL     1      21.114   1.087  51.537  1.00  0.00     0.227 C 
HETATM   13  O1  UNL     1      21.435   0.578  50.424  1.00  0.00    -0.273 OA
HETATM   14  H14 UNL     1      21.351   2.700  52.897  1.00  0.00     0.170 HD
BRANCH  12  15
HETATM   15  C5  UNL     1      20.130   0.311  52.385  1.00  0.00     0.074 C 
HETATM   16  C6  UNL     1      18.940   0.054  51.502  1.00  0.00     0.020 C 
BRANCH  15  17
HETATM   17  C4  UNL     1      20.815  -0.923  52.813  1.00  0.00     0.017 C 
BRANCH  17  18
HETATM   18  C2  UNL     1      21.649  -0.895  54.038  1.00  0.00    -0.022 C 
HETATM   19  C1  UNL     1      23.109  -0.674  53.887  1.00  0.00     0.009 C 
HETATM   20  C3  UNL     1      21.054   0.196  54.949  1.00  0.00     0.009 C 
ENDBRANCH  17  18
ENDBRANCH  15  17
ENDBRANCH  12  15
ENDBRANCH   1  11
BRANCH   8  21
HETATM   21  N4  UNL     1      26.463   1.763  50.720  1.00  0.00    -0.365 N 
HETATM   22  H17 UNL     1      26.591   1.019  50.004  1.00  0.00     0.162 HD
BRANCH  21  23
HETATM   23  C14 UNL     1      26.662   1.079  51.960  1.00  0.00     0.032 A 
HETATM   24  C15 UNL     1      26.630  -0.263  51.915  1.00  0.00     0.029 A 
HETATM   25  C16 UNL     1      26.854  -0.768  53.280  1.00  0.00     0.042 A 
HETATM   26  C17 UNL     1      27.010   0.263  54.091  1.00  0.00     0.118 A 
HETATM   27  F1  UNL     1      27.242   0.458  55.427  1.00  0.00    -0.209 F 
HETATM   28  C18 UNL     1      26.907   1.549  53.349  1.00  0.00     0.193 A 
HETATM   29 CL1  UNL     1      28.456   2.403  53.517  1.00  0.00    -0.111 Cl
ENDBRANCH  21  23
ENDBRANCH   8  21
TORSDOF 6
ENDMDL
