MODEL 1
REMARK VINA RESULT:      -8.7      0.000      0.000
REMARK  2 active torsions:
REMARK  status: ('A' for Active; 'I' for Inactive)
REMARK    1  A    between atoms: C2_3  and  N1_4 
REMARK    2  A    between atoms: N1_4  and  C3_5 
ROOT
HETATM    1  C3  UNL     1      25.653   1.284  53.311  1.00  0.00     0.160 A 
HETATM    2  N2  UNL     1      26.270   2.299  52.677  1.00  0.00    -0.222 NA
HETATM    3  C4  UNL     1      25.726   2.847  51.566  1.00  0.00     0.238 A 
HETATM    4  N3  UNL     1      24.547   2.362  51.091  1.00  0.00    -0.215 NA
HETATM    5  C5  UNL     1      23.917   1.340  51.722  1.00  0.00     0.202 A 
HETATM    6  C6  UNL     1      24.460   0.764  52.866  1.00  0.00     0.129 A 
HETATM    7  N4  UNL     1      24.026  -0.284  53.707  1.00  0.00    -0.379 N 
HETATM    8  C7  UNL     1      22.680  -0.719  53.939  1.00  0.00     0.161 C 
HETATM    9  C8  UNL     1      21.686  -0.315  52.966  1.00  0.00    -0.005 A 
HETATM   10  C9  UNL     1      20.471  -0.796  53.436  1.00  0.00     0.030 A 
HETATM   11  C10 UNL     1      19.296  -0.580  52.732  1.00  0.00     0.011 A 
HETATM   12 BR2  UNL     1      17.571  -1.185  53.269  1.00  0.00    -0.051 Br
HETATM   13  C11 UNL     1      19.304   0.117  51.550  1.00  0.00     0.022 A 
HETATM   14  C12 UNL     1      20.489   0.627  51.025  1.00  0.00     0.039 A 
HETATM   15  C13 UNL     1      21.628   0.376  51.778  1.00  0.00     0.086 A 
HETATM   16  O1  UNL     1      22.725   0.938  51.139  1.00  0.00    -0.289 OA
HETATM   17  H3  UNL     1      24.836  -0.733  54.171  1.00  0.00     0.160 HD
ENDROOT
BRANCH   1  18
HETATM   18  N1  UNL     1      26.349   0.826  54.462  1.00  0.00    -0.338 N 
HETATM   19  H1  UNL     1      26.124   0.860  55.480  1.00  0.00     0.167 HD
BRANCH  18  20
HETATM   20  C2  UNL     1      27.591   0.205  54.071  1.00  0.00     0.047 A 
HETATM   21  C1  UNL     1      27.869  -0.859  53.344  1.00  0.00     0.019 A 
HETATM   22 BR1  UNL     1      26.921  -2.204  52.386  1.00  0.00    -0.053 Br
HETATM   23  C16 UNL     1      29.315  -1.079  53.241  1.00  0.00     0.076 A 
HETATM   24  C15 UNL     1      29.916   0.019  54.020  1.00  0.00    -0.019 A 
HETATM   25  C14 UNL     1      28.904   0.735  54.481  1.00  0.00     0.027 A 
ENDBRANCH  18  20
ENDBRANCH   1  18
TORSDOF 2
ENDMDL
MODEL 2
REMARK VINA RESULT:      -7.9      4.192      7.599
REMARK  2 active torsions:
REMARK  status: ('A' for Active; 'I' for Inactive)
REMARK    1  A    between atoms: C2_3  and  N1_4 
REMARK    2  A    between atoms: N1_4  and  C3_5 
ROOT
HETATM    1  C3  UNL     1      24.572   2.835  52.117  1.00  0.00     0.160 A 
HETATM    2  N2  UNL     1      25.274   1.986  52.891  1.00  0.00    -0.222 NA
HETATM    3  C4  UNL     1      26.565   1.705  52.607  1.00  0.00     0.238 A 
HETATM    4  N3  UNL     1      27.153   2.286  51.526  1.00  0.00    -0.215 NA
HETATM    5  C5  UNL     1      26.456   3.142  50.739  1.00  0.00     0.202 A 
HETATM    6  C6  UNL     1      25.127   3.445  51.015  1.00  0.00     0.129 A 
HETATM    7  N4  UNL     1      24.186   4.286  50.382  1.00  0.00    -0.379 N 
HETATM    8  C7  UNL     1      24.448   5.450  49.590  1.00  0.00     0.161 C 
HETATM    9  C8  UNL     1      25.791   5.598  49.069  1.00  0.00    -0.005 A 
HETATM   10  C9  UNL     1      25.813   6.814  48.400  1.00  0.00     0.030 A 
HETATM   11  C10 UNL     1      26.964   7.268  47.775  1.00  0.00     0.011 A 
HETATM   12 BR2  UNL     1      27.123   8.914  46.829  1.00  0.00    -0.051 Br
HETATM   13  C11 UNL     1      28.117   6.522  47.802  1.00  0.00     0.022 A 
HETATM   14  C12 UNL     1      28.162   5.294  48.457  1.00  0.00     0.039 A 
HETATM   15  C13 UNL     1      26.976   4.899  49.061  1.00  0.00     0.086 A 
HETATM   16  O1  UNL     1      27.168   3.667  49.671  1.00  0.00    -0.289 OA
HETATM   17  H3  UNL     1      23.222   3.950  50.564  1.00  0.00     0.160 HD
ENDROOT
BRANCH   1  18
HETATM   18  N1  UNL     1      23.234   3.029  52.554  1.00  0.00    -0.338 N 
HETATM   19  H1  UNL     1      22.745   3.845  52.981  1.00  0.00     0.167 HD
BRANCH  18  20
HETATM   20  C2  UNL     1      22.464   1.829  52.328  1.00  0.00     0.047 A 
HETATM   21  C1  UNL     1      21.982   1.268  51.238  1.00  0.00     0.019 A 
HETATM   22 BR1  UNL     1      21.958   1.607  49.365  1.00  0.00    -0.053 Br
HETATM   23  C16 UNL     1      21.252   0.033  51.545  1.00  0.00     0.076 A 
HETATM   24  C15 UNL     1      21.349  -0.103  53.010  1.00  0.00    -0.019 A 
HETATM   25  C14 UNL     1      22.048   0.939  53.428  1.00  0.00     0.027 A 
ENDBRANCH  18  20
ENDBRANCH   1  18
TORSDOF 2
ENDMDL
MODEL 3
REMARK VINA RESULT:      -7.7      4.203      5.853
REMARK  2 active torsions:
REMARK  status: ('A' for Active; 'I' for Inactive)
REMARK    1  A    between atoms: C2_3  and  N1_4 
REMARK    2  A    between atoms: N1_4  and  C3_5 
ROOT
HETATM    1  C3  UNL     1      24.618   5.296  49.612  1.00  0.00     0.160 A 
HETATM    2  N2  UNL     1      24.025   5.892  48.560  1.00  0.00    -0.222 NA
HETATM    3  C4  UNL     1      23.030   5.268  47.889  1.00  0.00     0.238 A 
HETATM    4  N3  UNL     1      22.633   4.029  48.285  1.00  0.00    -0.215 NA
HETATM    5  C5  UNL     1      23.223   3.420  49.342  1.00  0.00     0.202 A 
HETATM    6  C6  UNL     1      24.247   4.045  50.045  1.00  0.00     0.129 A 
HETATM    7  N4  UNL     1      25.017   3.653  51.162  1.00  0.00    -0.379 N 
HETATM    8  C7  UNL     1      24.646   2.744  52.206  1.00  0.00     0.161 C 
HETATM    9  C8  UNL     1      23.539   1.852  51.932  1.00  0.00    -0.005 A 
HETATM   10  C9  UNL     1      23.333   1.126  53.097  1.00  0.00     0.030 A 
HETATM   11  C10 UNL     1      22.333   0.169  53.177  1.00  0.00     0.011 A 
HETATM   12 BR2  UNL     1      21.948  -0.889  54.714  1.00  0.00    -0.051 Br
HETATM   13  C11 UNL     1      21.518  -0.086  52.102  1.00  0.00     0.022 A 
HETATM   14  C12 UNL     1      21.672   0.608  50.904  1.00  0.00     0.039 A 
HETATM   15  C13 UNL     1      22.691   1.552  50.891  1.00  0.00     0.086 A 
HETATM   16  O1  UNL     1      22.727   2.160  49.644  1.00  0.00    -0.289 OA
HETATM   17  H3  UNL     1      25.940   4.126  51.147  1.00  0.00     0.160 HD
ENDROOT
BRANCH   1  18
HETATM   18  N1  UNL     1      25.638   6.085  50.210  1.00  0.00    -0.338 N 
HETATM   19  H1  UNL     1      25.706   6.563  51.135  1.00  0.00     0.167 HD
BRANCH  18  20
HETATM   20  C2  UNL     1      26.762   6.198  49.312  1.00  0.00     0.047 A 
HETATM   21  C1  UNL     1      27.295   7.218  48.671  1.00  0.00     0.019 A 
HETATM   22 BR1  UNL     1      26.992   9.089  48.491  1.00  0.00    -0.053 Br
HETATM   23  C16 UNL     1      28.447   6.804  47.864  1.00  0.00     0.076 A 
HETATM   24  C15 UNL     1      28.563   5.353  48.094  1.00  0.00    -0.019 A 
HETATM   25  C14 UNL     1      27.585   5.037  48.927  1.00  0.00     0.027 A 
ENDBRANCH  18  20
ENDBRANCH   1  18
TORSDOF 2
ENDMDL
MODEL 4
REMARK VINA RESULT:      -7.6      4.047      7.542
REMARK  2 active torsions:
REMARK  status: ('A' for Active; 'I' for Inactive)
REMARK    1  A    between atoms: C2_3  and  N1_4 
REMARK    2  A    between atoms: N1_4  and  C3_5 
ROOT
HETATM    1  C3  UNL     1      22.779   3.026  50.782  1.00  0.00     0.160 A 
HETATM    2  N2  UNL     1      21.576   3.449  51.216  1.00  0.00    -0.222 NA
HETATM    3  C4  UNL     1      21.377   4.748  51.533  1.00  0.00     0.238 A 
HETATM    4  N3  UNL     1      22.407   5.629  51.412  1.00  0.00    -0.215 NA
HETATM    5  C5  UNL     1      23.622   5.215  50.976  1.00  0.00     0.202 A 
HETATM    6  C6  UNL     1      23.846   3.883  50.645  1.00  0.00     0.129 A 
HETATM    7  N4  UNL     1      24.983   3.194  50.171  1.00  0.00    -0.379 N 
HETATM    8  C7  UNL     1      26.077   3.726  49.414  1.00  0.00     0.161 C 
HETATM    9  C8  UNL     1      26.245   5.165  49.432  1.00  0.00    -0.005 A 
HETATM   10  C9  UNL     1      27.313   5.438  48.589  1.00  0.00     0.030 A 
HETATM   11  C10 UNL     1      27.744   6.739  48.377  1.00  0.00     0.011 A 
HETATM   12 BR2  UNL     1      29.192   7.244  47.246  1.00  0.00    -0.051 Br
HETATM   13  C11 UNL     1      27.122   7.793  48.998  1.00  0.00     0.022 A 
HETATM   14  C12 UNL     1      26.044   7.587  49.855  1.00  0.00     0.039 A 
HETATM   15  C13 UNL     1      25.664   6.262  50.023  1.00  0.00     0.086 A 
HETATM   16  O1  UNL     1      24.586   6.209  50.897  1.00  0.00    -0.289 OA
HETATM   17  H3  UNL     1      24.940   2.195  50.445  1.00  0.00     0.160 HD
ENDROOT
BRANCH   1  18
HETATM   18  N1  UNL     1      22.820   1.637  50.486  1.00  0.00    -0.338 N 
HETATM   19  H1  UNL     1      22.909   1.112  49.589  1.00  0.00     0.167 HD
BRANCH  18  20
HETATM   20  C2  UNL     1      22.719   0.871  51.705  1.00  0.00     0.047 A 
HETATM   21  C1  UNL     1      23.532   0.709  52.729  1.00  0.00     0.019 A 
HETATM   22 BR1  UNL     1      25.253   1.311  53.277  1.00  0.00    -0.053 Br
HETATM   23  C16 UNL     1      22.959  -0.191  53.735  1.00  0.00     0.076 A 
HETATM   24  C15 UNL     1      21.645  -0.576  53.186  1.00  0.00    -0.019 A 
HETATM   25  C14 UNL     1      21.539   0.047  52.025  1.00  0.00     0.027 A 
ENDBRANCH  18  20
ENDBRANCH   1  18
TORSDOF 2
ENDMDL
MODEL 5
REMARK VINA RESULT:      -7.6      3.954      6.504
REMARK  2 active torsions:
REMARK  status: ('A' for Active; 'I' for Inactive)
REMARK    1  A    between atoms: C2_3  and  N1_4 
REMARK    2  A    between atoms: N1_4  and  C3_5 
ROOT
HETATM    1  C3  UNL     1      24.756   5.031  49.797  1.00  0.00     0.160 A 
HETATM    2  N2  UNL     1      25.832   5.134  48.993  1.00  0.00    -0.222 NA
HETATM    3  C4  UNL     1      26.881   4.292  49.138  1.00  0.00     0.238 A 
HETATM    4  N3  UNL     1      26.842   3.339  50.108  1.00  0.00    -0.215 NA
HETATM    5  C5  UNL     1      25.765   3.227  50.924  1.00  0.00     0.202 A 
HETATM    6  C6  UNL     1      24.676   4.082  50.789  1.00  0.00     0.129 A 
HETATM    7  N4  UNL     1      23.450   4.185  51.482  1.00  0.00    -0.379 N 
HETATM    8  C7  UNL     1      22.745   3.145  52.172  1.00  0.00     0.161 C 
HETATM    9  C8  UNL     1      23.504   1.962  52.521  1.00  0.00    -0.005 A 
HETATM   10  C9  UNL     1      22.603   1.089  53.115  1.00  0.00     0.030 A 
HETATM   11  C10 UNL     1      23.007  -0.156  53.573  1.00  0.00     0.011 A 
HETATM   12 BR2  UNL     1      21.871  -1.441  54.401  1.00  0.00    -0.051 Br
HETATM   13  C11 UNL     1      24.315  -0.557  53.451  1.00  0.00     0.022 A 
HETATM   14  C12 UNL     1      25.268   0.272  52.865  1.00  0.00     0.039 A 
HETATM   15  C13 UNL     1      24.797   1.503  52.428  1.00  0.00     0.086 A 
HETATM   16  O1  UNL     1      25.849   2.217  51.869  1.00  0.00    -0.289 OA
HETATM   17  H3  UNL     1      23.089   5.155  51.434  1.00  0.00     0.160 HD
ENDROOT
BRANCH   1  18
HETATM   18  N1  UNL     1      23.741   5.983  49.511  1.00  0.00    -0.338 N 
HETATM   19  H1  UNL     1      23.383   6.809  50.038  1.00  0.00     0.167 HD
BRANCH  18  20
HETATM   20  C2  UNL     1      23.139   5.690  48.232  1.00  0.00     0.047 A 
HETATM   21  C1  UNL     1      22.559   4.614  47.742  1.00  0.00     0.019 A 
HETATM   22 BR1  UNL     1      22.141   2.847  48.317  1.00  0.00    -0.053 Br
HETATM   23  C16 UNL     1      22.106   4.825  46.364  1.00  0.00     0.076 A 
HETATM   24  C15 UNL     1      22.491   6.214  46.053  1.00  0.00    -0.019 A 
HETATM   25  C14 UNL     1      23.080   6.681  47.142  1.00  0.00     0.027 A 
ENDBRANCH  18  20
ENDBRANCH   1  18
TORSDOF 2
ENDMDL
MODEL 6
REMARK VINA RESULT:      -7.6      2.835      4.966
REMARK  2 active torsions:
REMARK  status: ('A' for Active; 'I' for Inactive)
REMARK    1  A    between atoms: C2_3  and  N1_4 
REMARK    2  A    between atoms: N1_4  and  C3_5 
ROOT
HETATM    1  C3  UNL     1      24.687   2.822  50.722  1.00  0.00     0.160 A 
HETATM    2  N2  UNL     1      26.013   2.602  50.803  1.00  0.00    -0.222 NA
HETATM    3  C4  UNL     1      26.516   1.770  51.744  1.00  0.00     0.238 A 
HETATM    4  N3  UNL     1      25.668   1.157  52.614  1.00  0.00    -0.215 NA
HETATM    5  C5  UNL     1      24.332   1.372  52.542  1.00  0.00     0.202 A 
HETATM    6  C6  UNL     1      23.796   2.223  51.581  1.00  0.00     0.129 A 
HETATM    7  N4  UNL     1      22.473   2.615  51.282  1.00  0.00    -0.379 N 
HETATM    8  C7  UNL     1      21.266   1.883  51.531  1.00  0.00     0.161 C 
HETATM    9  C8  UNL     1      21.341   0.809  52.499  1.00  0.00    -0.005 A 
HETATM   10  C9  UNL     1      20.083   0.220  52.518  1.00  0.00     0.030 A 
HETATM   11  C10 UNL     1      19.809  -0.855  53.349  1.00  0.00     0.011 A 
HETATM   12 BR2  UNL     1      18.131  -1.749  53.467  1.00  0.00    -0.051 Br
HETATM   13  C11 UNL     1      20.777  -1.366  54.178  1.00  0.00     0.022 A 
HETATM   14  C12 UNL     1      22.058  -0.822  54.206  1.00  0.00     0.039 A 
HETATM   15  C13 UNL     1      22.266   0.252  53.350  1.00  0.00     0.086 A 
HETATM   16  O1  UNL     1      23.577   0.689  53.484  1.00  0.00    -0.289 OA
HETATM   17  H3  UNL     1      22.466   3.549  50.834  1.00  0.00     0.160 HD
ENDROOT
BRANCH   1  18
HETATM   18  N1  UNL     1      24.322   3.714  49.678  1.00  0.00    -0.338 N 
HETATM   19  H1  UNL     1      23.879   3.561  48.745  1.00  0.00     0.167 HD
BRANCH  18  20
HETATM   20  C2  UNL     1      24.652   5.068  50.050  1.00  0.00     0.047 A 
HETATM   21  C1  UNL     1      25.634   5.876  49.707  1.00  0.00     0.019 A 
HETATM   22 BR1  UNL     1      27.171   5.836  48.583  1.00  0.00    -0.053 Br
HETATM   23  C16 UNL     1      25.523   7.176  50.377  1.00  0.00     0.076 A 
HETATM   24  C15 UNL     1      24.308   7.066  51.205  1.00  0.00    -0.019 A 
HETATM   25  C14 UNL     1      23.833   5.850  50.995  1.00  0.00     0.027 A 
ENDBRANCH  18  20
ENDBRANCH   1  18
TORSDOF 2
ENDMDL
MODEL 7
REMARK VINA RESULT:      -7.2      9.479     12.500
REMARK  2 active torsions:
REMARK  status: ('A' for Active; 'I' for Inactive)
REMARK    1  A    between atoms: C2_3  and  N1_4 
REMARK    2  A    between atoms: N1_4  and  C3_5 
ROOT
HETATM    1  C3  UNL     1      29.388   9.654  49.024  1.00  0.00     0.160 A 
HETATM    2  N2  UNL     1      28.909  10.637  48.238  1.00  0.00    -0.222 NA
HETATM    3  C4  UNL     1      29.575  11.011  47.122  1.00  0.00     0.238 A 
HETATM    4  N3  UNL     1      30.739  10.385  46.798  1.00  0.00    -0.215 NA
HETATM    5  C5  UNL     1      31.231   9.395  47.582  1.00  0.00     0.202 A 
HETATM    6  C6  UNL     1      30.561   8.996  48.734  1.00  0.00     0.129 A 
HETATM    7  N4  UNL     1      30.836   8.012  49.708  1.00  0.00    -0.379 N 
HETATM    8  C7  UNL     1      31.592   6.805  49.543  1.00  0.00     0.161 C 
HETATM    9  C8  UNL     1      32.470   6.736  48.394  1.00  0.00    -0.005 A 
HETATM   10  C9  UNL     1      33.035   5.468  48.418  1.00  0.00     0.030 A 
HETATM   11  C10 UNL     1      33.936   5.067  47.443  1.00  0.00     0.011 A 
HETATM   12 BR2  UNL     1      34.777   3.359  47.363  1.00  0.00    -0.051 Br
HETATM   13  C11 UNL     1      34.294   5.918  46.427  1.00  0.00     0.022 A 
HETATM   14  C12 UNL     1      33.763   7.203  46.345  1.00  0.00     0.039 A 
HETATM   15  C13 UNL     1      32.868   7.540  47.351  1.00  0.00     0.086 A 
HETATM   16  O1  UNL     1      32.423   8.839  47.143  1.00  0.00    -0.289 OA
HETATM   17  H3  UNL     1      30.404   8.270  50.614  1.00  0.00     0.160 HD
ENDROOT
BRANCH   1  18
HETATM   18  N1  UNL     1      28.569   9.378  50.152  1.00  0.00    -0.338 N 
HETATM   19  H1  UNL     1      28.704   9.535  51.174  1.00  0.00     0.167 HD
BRANCH  18  20
HETATM   20  C2  UNL     1      27.332   8.770  49.724  1.00  0.00     0.047 A 
HETATM   21  C1  UNL     1      27.061   7.661  49.066  1.00  0.00     0.019 A 
HETATM   22 BR1  UNL     1      28.017   6.209  48.288  1.00  0.00    -0.053 Br
HETATM   23  C16 UNL     1      25.618   7.488  48.872  1.00  0.00     0.076 A 
HETATM   24  C15 UNL     1      25.011   8.668  49.513  1.00  0.00    -0.019 A 
HETATM   25  C14 UNL     1      26.017   9.381  49.991  1.00  0.00     0.027 A 
ENDBRANCH  18  20
ENDBRANCH   1  18
TORSDOF 2
ENDMDL
MODEL 8
REMARK VINA RESULT:      -7.2      5.334      8.751
REMARK  2 active torsions:
REMARK  status: ('A' for Active; 'I' for Inactive)
REMARK    1  A    between atoms: C2_3  and  N1_4 
REMARK    2  A    between atoms: N1_4  and  C3_5 
ROOT
HETATM    1  C3  UNL     1      24.520   4.554  50.152  1.00  0.00     0.160 A 
HETATM    2  N2  UNL     1      23.365   5.015  50.669  1.00  0.00    -0.222 NA
HETATM    3  C4  UNL     1      23.218   6.326  50.963  1.00  0.00     0.238 A 
HETATM    4  N3  UNL     1      24.250   7.182  50.733  1.00  0.00    -0.215 NA
HETATM    5  C5  UNL     1      25.418   6.729  50.214  1.00  0.00     0.202 A 
HETATM    6  C6  UNL     1      25.589   5.384  49.904  1.00  0.00     0.129 A 
HETATM    7  N4  UNL     1      26.670   4.658  49.361  1.00  0.00    -0.379 N 
HETATM    8  C7  UNL     1      27.709   5.146  48.503  1.00  0.00     0.161 C 
HETATM    9  C8  UNL     1      27.905   6.581  48.465  1.00  0.00    -0.005 A 
HETATM   10  C9  UNL     1      28.907   6.808  47.531  1.00  0.00     0.030 A 
HETATM   11  C10 UNL     1      29.343   8.093  47.247  1.00  0.00     0.011 A 
HETATM   12 BR2  UNL     1      30.704   8.535  45.989  1.00  0.00    -0.051 Br
HETATM   13  C11 UNL     1      28.794   9.177  47.885  1.00  0.00     0.022 A 
HETATM   14  C12 UNL     1      27.786   9.018  48.832  1.00  0.00     0.039 A 
HETATM   15  C13 UNL     1      27.395   7.706  49.069  1.00  0.00     0.086 A 
HETATM   16  O1  UNL     1      26.391   7.700  50.028  1.00  0.00    -0.289 OA
HETATM   17  H3  UNL     1      26.631   3.669  49.667  1.00  0.00     0.160 HD
ENDROOT
BRANCH   1  18
HETATM   18  N1  UNL     1      24.511   3.157  49.894  1.00  0.00    -0.338 N 
HETATM   19  H1  UNL     1      24.603   2.604  49.015  1.00  0.00     0.167 HD
BRANCH  18  20
HETATM   20  C2  UNL     1      24.342   2.431  51.130  1.00  0.00     0.047 A 
HETATM   21  C1  UNL     1      23.395   1.630  51.574  1.00  0.00     0.019 A 
HETATM   22 BR1  UNL     1      21.733   0.929  50.963  1.00  0.00    -0.053 Br
HETATM   23  C16 UNL     1      23.695   1.137  52.922  1.00  0.00     0.076 A 
HETATM   24  C15 UNL     1      24.990   1.752  53.266  1.00  0.00    -0.019 A 
HETATM   25  C14 UNL     1      25.333   2.486  52.220  1.00  0.00     0.027 A 
ENDBRANCH  18  20
ENDBRANCH   1  18
TORSDOF 2
ENDMDL
MODEL 9
REMARK VINA RESULT:      -7.1      5.299      6.862
REMARK  2 active torsions:
REMARK  status: ('A' for Active; 'I' for Inactive)
REMARK    1  A    between atoms: C2_3  and  N1_4 
REMARK    2  A    between atoms: N1_4  and  C3_5 
ROOT
HETATM    1  C3  UNL     1      23.369   3.856  52.656  1.00  0.00     0.160 A 
HETATM    2  N2  UNL     1      22.541   2.793  52.666  1.00  0.00    -0.222 NA
HETATM    3  C4  UNL     1      21.335   2.856  52.057  1.00  0.00     0.238 A 
HETATM    4  N3  UNL     1      20.961   4.005  51.433  1.00  0.00    -0.215 NA
HETATM    5  C5  UNL     1      21.786   5.081  51.418  1.00  0.00     0.202 A 
HETATM    6  C6  UNL     1      23.030   5.037  52.038  1.00  0.00     0.129 A 
HETATM    7  N4  UNL     1      24.068   5.985  52.168  1.00  0.00    -0.379 N 
HETATM    8  C7  UNL     1      24.373   7.075  51.289  1.00  0.00     0.161 C 
HETATM    9  C8  UNL     1      23.328   7.490  50.376  1.00  0.00    -0.005 A 
HETATM   10  C9  UNL     1      23.876   8.502  49.599  1.00  0.00     0.030 A 
HETATM   11  C10 UNL     1      23.132   9.128  48.611  1.00  0.00     0.011 A 
HETATM   12 BR2  UNL     1      23.767  10.523  47.480  1.00  0.00    -0.051 Br
HETATM   13  C11 UNL     1      21.830   8.763  48.376  1.00  0.00     0.022 A 
HETATM   14  C12 UNL     1      21.221   7.756  49.120  1.00  0.00     0.039 A 
HETATM   15  C13 UNL     1      22.021   7.170  50.092  1.00  0.00     0.086 A 
HETATM   16  O1  UNL     1      21.289   6.190  50.749  1.00  0.00    -0.289 OA
HETATM   17  H3  UNL     1      24.624   5.796  53.022  1.00  0.00     0.160 HD
ENDROOT
BRANCH   1  18
HETATM   18  N1  UNL     1      24.596   3.626  53.333  1.00  0.00    -0.338 N 
HETATM   19  H1  UNL     1      25.045   4.089  54.153  1.00  0.00     0.167 HD
BRANCH  18  20
HETATM   20  C2  UNL     1      25.299   2.526  52.717  1.00  0.00     0.047 A 
HETATM   21  C1  UNL     1      25.920   2.397  51.562  1.00  0.00     0.019 A 
HETATM   22 BR1  UNL     1      26.296   3.465  50.031  1.00  0.00    -0.053 Br
HETATM   23  C16 UNL     1      26.481   1.052  51.399  1.00  0.00     0.076 A 
HETATM   24  C15 UNL     1      26.118   0.343  52.640  1.00  0.00    -0.019 A 
HETATM   25  C14 UNL     1      25.443   1.214  53.372  1.00  0.00     0.027 A 
ENDBRANCH  18  20
ENDBRANCH   1  18
TORSDOF 2
ENDMDL
