MODEL 1
REMARK VINA RESULT:      -8.3      0.000      0.000
REMARK  0 active torsions:
REMARK  status: ('A' for Active; 'I' for Inactive)
ROOT
HETATM    1  C1  UNL     1      26.533   1.103  53.573  1.00  0.00     0.044 C 
HETATM    2  C2  UNL     1      26.083   1.886  52.381  1.00  0.00    -0.076 C 
HETATM    3  C3  UNL     1      26.699   2.235  51.263  1.00  0.00     0.003 C 
HETATM    4  C4  UNL     1      26.524   2.936  50.001  1.00  0.00    -0.002 C 
HETATM    5  C5  UNL     1      25.571   3.580  49.331  1.00  0.00    -0.000 C 
HETATM    6  C6  UNL     1      24.268   4.141  49.034  1.00  0.00     0.128 C 
HETATM    7  C7  UNL     1      23.141   3.131  49.118  1.00  0.00     0.058 C 
HETATM    8  C8  UNL     1      22.515   3.355  50.453  1.00  0.00     0.128 C 
HETATM    9  C9  UNL     1      22.598   2.148  51.328  1.00  0.00    -0.030 A 
HETATM   10  C10 UNL     1      21.465   1.316  51.228  1.00  0.00     0.010 A 
HETATM   11  C11 UNL     1      21.270   0.136  51.916  1.00  0.00     0.007 A 
HETATM   12  C12 UNL     1      22.249  -0.282  52.776  1.00  0.00    -0.061 A 
HETATM   13  C13 UNL     1      22.129  -1.528  53.554  1.00  0.00     0.048 C 
HETATM   14  C14 UNL     1      23.358   0.518  52.883  1.00  0.00     0.015 A 
HETATM   15  C15 UNL     1      23.574   1.695  52.209  1.00  0.00    -0.042 A 
HETATM   16  C16 UNL     1      24.763   2.526  52.345  1.00  0.00     0.043 C 
HETATM   17  C17 UNL     1      24.679   3.232  53.752  1.00  0.00     0.020 C 
HETATM   18  N1  UNL     1      23.027   4.557  50.991  1.00  0.00    -0.155 NA
HETATM   19  S1  UNL     1      21.863   5.886  51.100  1.00  0.00    -0.031 SA
HETATM   20  C18 UNL     1      23.103   7.188  50.801  1.00  0.00     0.082 C 
HETATM   21  C19 UNL     1      24.078   6.527  50.194  1.00  0.00     0.114 C 
HETATM   22  N2  UNL     1      23.865   5.136  49.988  1.00  0.00    -0.302 N 
ENDROOT
TORSDOF 0
ENDMDL
MODEL 2
REMARK VINA RESULT:      -7.8      1.867      4.016
REMARK  0 active torsions:
REMARK  status: ('A' for Active; 'I' for Inactive)
ROOT
HETATM    1  C1  UNL     1      19.346   1.180  50.602  1.00  0.00     0.044 C 
HETATM    2  C2  UNL     1      20.347   2.237  50.947  1.00  0.00    -0.076 C 
HETATM    3  C3  UNL     1      20.219   3.527  51.211  1.00  0.00     0.003 C 
HETATM    4  C4  UNL     1      20.961   4.726  51.572  1.00  0.00    -0.002 C 
HETATM    5  C5  UNL     1      22.210   5.092  51.845  1.00  0.00    -0.000 C 
HETATM    6  C6  UNL     1      23.640   4.977  52.053  1.00  0.00     0.128 C 
HETATM    7  C7  UNL     1      24.020   3.921  53.072  1.00  0.00     0.058 C 
HETATM    8  C8  UNL     1      24.422   2.731  52.268  1.00  0.00     0.128 C 
HETATM    9  C9  UNL     1      23.556   1.545  52.539  1.00  0.00    -0.030 A 
HETATM   10  C10 UNL     1      24.069   0.708  53.551  1.00  0.00     0.010 A 
HETATM   11  C11 UNL     1      23.481  -0.453  54.010  1.00  0.00     0.007 A 
HETATM   12  C12 UNL     1      22.296  -0.844  53.449  1.00  0.00    -0.061 A 
HETATM   13  C13 UNL     1      21.594  -2.069  53.874  1.00  0.00     0.048 C 
HETATM   14  C14 UNL     1      21.785  -0.039  52.463  1.00  0.00     0.015 A 
HETATM   15  C15 UNL     1      22.351   1.119  51.990  1.00  0.00    -0.042 A 
HETATM   16  C16 UNL     1      21.786   1.955  50.939  1.00  0.00     0.043 C 
HETATM   17  C17 UNL     1      21.983   1.185  49.577  1.00  0.00     0.020 C 
HETATM   18  N1  UNL     1      24.543   3.123  50.916  1.00  0.00    -0.155 NA
HETATM   19  S1  UNL     1      26.196   3.126  50.280  1.00  0.00    -0.031 SA
HETATM   20  C18 UNL     1      25.915   4.532  49.156  1.00  0.00     0.082 C 
HETATM   21  C19 UNL     1      24.863   5.131  49.696  1.00  0.00     0.114 C 
HETATM   22  N2  UNL     1      24.335   4.538  50.875  1.00  0.00    -0.302 N 
ENDROOT
TORSDOF 0
ENDMDL
MODEL 3
REMARK VINA RESULT:      -7.7      2.199      3.401
REMARK  0 active torsions:
REMARK  status: ('A' for Active; 'I' for Inactive)
ROOT
HETATM    1  C1  UNL     1      25.852   3.543  50.824  1.00  0.00     0.044 C 
HETATM    2  C2  UNL     1      24.550   3.192  50.178  1.00  0.00    -0.076 C 
HETATM    3  C3  UNL     1      24.176   3.131  48.910  1.00  0.00     0.003 C 
HETATM    4  C4  UNL     1      23.054   2.826  48.035  1.00  0.00    -0.002 C 
HETATM    5  C5  UNL     1      21.794   2.411  48.123  1.00  0.00    -0.000 C 
HETATM    6  C6  UNL     1      20.554   1.966  48.728  1.00  0.00     0.128 C 
HETATM    7  C7  UNL     1      20.721   0.764  49.637  1.00  0.00     0.058 C 
HETATM    8  C8  UNL     1      20.755   1.323  51.019  1.00  0.00     0.128 C 
HETATM    9  C9  UNL     1      22.044   1.032  51.717  1.00  0.00    -0.030 A 
HETATM   10  C10 UNL     1      22.002  -0.153  52.478  1.00  0.00     0.010 A 
HETATM   11  C11 UNL     1      23.044  -0.669  53.223  1.00  0.00     0.007 A 
HETATM   12  C12 UNL     1      24.230   0.014  53.236  1.00  0.00    -0.061 A 
HETATM   13  C13 UNL     1      25.397  -0.458  54.001  1.00  0.00     0.048 C 
HETATM   14  C14 UNL     1      24.284   1.170  52.499  1.00  0.00     0.015 A 
HETATM   15  C15 UNL     1      23.262   1.701  51.751  1.00  0.00    -0.042 A 
HETATM   16  C16 UNL     1      23.349   2.933  50.978  1.00  0.00     0.043 C 
HETATM   17  C17 UNL     1      23.351   4.128  52.007  1.00  0.00     0.020 C 
HETATM   18  N1  UNL     1      20.365   2.680  50.964  1.00  0.00    -0.155 NA
HETATM   19  S1  UNL     1      18.797   3.040  51.705  1.00  0.00    -0.031 SA
HETATM   20  C18 UNL     1      18.389   4.377  50.536  1.00  0.00     0.082 C 
HETATM   21  C19 UNL     1      19.161   4.098  49.494  1.00  0.00     0.114 C 
HETATM   22  N2  UNL     1      19.987   2.947  49.611  1.00  0.00    -0.302 N 
ENDROOT
TORSDOF 0
ENDMDL
MODEL 4
REMARK VINA RESULT:      -7.5      5.228      7.936
REMARK  0 active torsions:
REMARK  status: ('A' for Active; 'I' for Inactive)
ROOT
HETATM    1  C1  UNL     1      25.151   5.020  49.591  1.00  0.00     0.044 C 
HETATM    2  C2  UNL     1      26.431   5.538  49.016  1.00  0.00    -0.076 C 
HETATM    3  C3  UNL     1      27.590   4.953  48.760  1.00  0.00     0.003 C 
HETATM    4  C4  UNL     1      28.923   5.183  48.224  1.00  0.00    -0.002 C 
HETATM    5  C5  UNL     1      29.632   6.168  47.679  1.00  0.00    -0.000 C 
HETATM    6  C6  UNL     1      29.947   7.487  47.167  1.00  0.00     0.128 C 
HETATM    7  C7  UNL     1      28.975   7.974  46.111  1.00  0.00     0.058 C 
HETATM    8  C8  UNL     1      28.043   8.889  46.831  1.00  0.00     0.128 C 
HETATM    9  C9  UNL     1      26.628   8.413  46.778  1.00  0.00    -0.030 A 
HETATM   10  C10 UNL     1      25.906   8.954  45.695  1.00  0.00     0.010 A 
HETATM   11  C11 UNL     1      24.584   8.690  45.397  1.00  0.00     0.007 A 
HETATM   12  C12 UNL     1      23.896   7.831  46.210  1.00  0.00    -0.061 A 
HETATM   13  C13 UNL     1      22.482   7.489  45.972  1.00  0.00     0.048 C 
HETATM   14  C14 UNL     1      24.587   7.297  47.268  1.00  0.00     0.015 A 
HETATM   15  C15 UNL     1      25.901   7.544  47.584  1.00  0.00    -0.042 A 
HETATM   16  C16 UNL     1      26.609   6.962  48.716  1.00  0.00     0.043 C 
HETATM   17  C17 UNL     1      26.061   7.664  50.017  1.00  0.00     0.020 C 
HETATM   18  N1  UNL     1      28.570   9.145  48.116  1.00  0.00    -0.155 NA
HETATM   19  S1  UNL     1      29.139  10.801  48.377  1.00  0.00    -0.031 SA
HETATM   20  C18 UNL     1      30.483  10.315  49.508  1.00  0.00     0.082 C 
HETATM   21  C19 UNL     1      30.677   9.041  49.198  1.00  0.00     0.114 C 
HETATM   22  N2  UNL     1      29.849   8.507  48.174  1.00  0.00    -0.302 N 
ENDROOT
TORSDOF 0
ENDMDL
MODEL 5
REMARK VINA RESULT:      -7.4      7.724     10.561
REMARK  0 active torsions:
REMARK  status: ('A' for Active; 'I' for Inactive)
ROOT
HETATM    1  C1  UNL     1      30.882  10.246  45.723  1.00  0.00     0.044 C 
HETATM    2  C2  UNL     1      31.646   9.238  46.520  1.00  0.00    -0.076 C 
HETATM    3  C3  UNL     1      32.693   9.348  47.322  1.00  0.00     0.003 C 
HETATM    4  C4  UNL     1      33.586   8.595  48.190  1.00  0.00    -0.002 C 
HETATM    5  C5  UNL     1      33.753   7.349  48.624  1.00  0.00    -0.000 C 
HETATM    6  C6  UNL     1      33.511   5.930  48.792  1.00  0.00     0.128 C 
HETATM    7  C7  UNL     1      32.103   5.607  49.251  1.00  0.00     0.058 C 
HETATM    8  C8  UNL     1      31.373   5.201  48.015  1.00  0.00     0.128 C 
HETATM    9  C9  UNL     1      30.218   6.100  47.718  1.00  0.00    -0.030 A 
HETATM   10  C10 UNL     1      29.006   5.640  48.269  1.00  0.00     0.010 A 
HETATM   11  C11 UNL     1      27.781   6.267  48.158  1.00  0.00     0.007 A 
HETATM   12  C12 UNL     1      27.716   7.439  47.456  1.00  0.00    -0.061 A 
HETATM   13  C13 UNL     1      26.453   8.180  47.283  1.00  0.00     0.048 C 
HETATM   14  C14 UNL     1      28.889   7.899  46.913  1.00  0.00     0.015 A 
HETATM   15  C15 UNL     1      30.117   7.294  47.010  1.00  0.00    -0.042 A 
HETATM   16  C16 UNL     1      31.348   7.805  46.421  1.00  0.00     0.043 C 
HETATM   17  C17 UNL     1      31.248   7.576  44.865  1.00  0.00     0.020 C 
HETATM   18  N1  UNL     1      32.315   5.026  46.977  1.00  0.00    -0.155 NA
HETATM   19  S1  UNL     1      32.541   3.352  46.444  1.00  0.00    -0.031 SA
HETATM   20  C18 UNL     1      34.306   3.565  46.046  1.00  0.00     0.082 C 
HETATM   21  C19 UNL     1      34.642   4.623  46.771  1.00  0.00     0.114 C 
HETATM   22  N2  UNL     1      33.610   5.203  47.557  1.00  0.00    -0.302 N 
ENDROOT
TORSDOF 0
ENDMDL
MODEL 6
REMARK VINA RESULT:      -7.4      2.933      6.078
REMARK  0 active torsions:
REMARK  status: ('A' for Active; 'I' for Inactive)
ROOT
HETATM    1  C1  UNL     1      24.237   8.698  47.645  1.00  0.00     0.044 C 
HETATM    2  C2  UNL     1      23.534   7.393  47.844  1.00  0.00    -0.076 C 
HETATM    3  C3  UNL     1      22.519   6.826  47.212  1.00  0.00     0.003 C 
HETATM    4  C4  UNL     1      21.682   5.636  47.173  1.00  0.00    -0.002 C 
HETATM    5  C5  UNL     1      21.567   4.467  47.797  1.00  0.00    -0.000 C 
HETATM    6  C6  UNL     1      21.854   3.397  48.731  1.00  0.00     0.128 C 
HETATM    7  C7  UNL     1      23.288   2.909  48.671  1.00  0.00     0.058 C 
HETATM    8  C8  UNL     1      23.977   3.580  49.811  1.00  0.00     0.128 C 
HETATM    9  C9  UNL     1      25.094   4.462  49.359  1.00  0.00    -0.030 A 
HETATM   10  C10 UNL     1      26.340   3.805  49.334  1.00  0.00     0.010 A 
HETATM   11  C11 UNL     1      27.542   4.369  48.957  1.00  0.00     0.007 A 
HETATM   12  C12 UNL     1      27.546   5.681  48.568  1.00  0.00    -0.061 A 
HETATM   13  C13 UNL     1      28.780   6.370  48.149  1.00  0.00     0.048 C 
HETATM   14  C14 UNL     1      26.340   6.334  48.587  1.00  0.00     0.015 A 
HETATM   15  C15 UNL     1      25.133   5.794  48.957  1.00  0.00    -0.042 A 
HETATM   16  C16 UNL     1      23.866   6.513  48.969  1.00  0.00     0.043 C 
HETATM   17  C17 UNL     1      23.908   7.509  50.190  1.00  0.00     0.020 C 
HETATM   18  N1  UNL     1      22.998   4.180  50.634  1.00  0.00    -0.155 NA
HETATM   19  S1  UNL     1      22.796   3.431  52.226  1.00  0.00    -0.031 SA
HETATM   20  C18 UNL     1      21.010   3.782  52.324  1.00  0.00     0.082 C 
HETATM   21  C19 UNL     1      20.676   3.947  51.052  1.00  0.00     0.114 C 
HETATM   22  N2  UNL     1      21.724   3.810  50.101  1.00  0.00    -0.302 N 
ENDROOT
TORSDOF 0
ENDMDL
MODEL 7
REMARK VINA RESULT:      -7.4      9.306     11.593
REMARK  0 active torsions:
REMARK  status: ('A' for Active; 'I' for Inactive)
ROOT
HETATM    1  C1  UNL     1      34.310   2.924  46.718  1.00  0.00     0.044 C 
HETATM    2  C2  UNL     1      34.176   4.363  47.104  1.00  0.00    -0.076 C 
HETATM    3  C3  UNL     1      34.894   5.139  47.899  1.00  0.00     0.003 C 
HETATM    4  C4  UNL     1      35.008   6.493  48.422  1.00  0.00    -0.002 C 
HETATM    5  C5  UNL     1      34.399   7.670  48.307  1.00  0.00    -0.000 C 
HETATM    6  C6  UNL     1      33.446   8.662  47.851  1.00  0.00     0.128 C 
HETATM    7  C7  UNL     1      33.385   8.795  46.342  1.00  0.00     0.058 C 
HETATM    8  C8  UNL     1      32.188   8.006  45.930  1.00  0.00     0.128 C 
HETATM    9  C9  UNL     1      32.541   6.874  45.021  1.00  0.00    -0.030 A 
HETATM   10  C10 UNL     1      32.460   7.217  43.657  1.00  0.00     0.010 A 
HETATM   11  C11 UNL     1      32.731   6.375  42.597  1.00  0.00     0.007 A 
HETATM   12  C12 UNL     1      33.115   5.091  42.874  1.00  0.00    -0.061 A 
HETATM   13  C13 UNL     1      33.424   4.120  41.809  1.00  0.00     0.048 C 
HETATM   14  C14 UNL     1      33.198   4.743  44.198  1.00  0.00     0.015 A 
HETATM   15  C15 UNL     1      32.934   5.563  45.267  1.00  0.00    -0.042 A 
HETATM   16  C16 UNL     1      33.029   5.165  46.666  1.00  0.00     0.043 C 
HETATM   17  C17 UNL     1      31.806   4.216  46.964  1.00  0.00     0.020 C 
HETATM   18  N1  UNL     1      31.450   7.674  47.088  1.00  0.00    -0.155 NA
HETATM   19  S1  UNL     1      29.884   8.486  47.237  1.00  0.00    -0.031 SA
HETATM   20  C18 UNL     1      29.939   8.572  49.056  1.00  0.00     0.082 C 
HETATM   21  C19 UNL     1      31.234   8.461  49.314  1.00  0.00     0.114 C 
HETATM   22  N2  UNL     1      32.092   8.324  48.188  1.00  0.00    -0.302 N 
ENDROOT
TORSDOF 0
ENDMDL
MODEL 8
REMARK VINA RESULT:      -7.1      2.221      2.823
REMARK  0 active torsions:
REMARK  status: ('A' for Active; 'I' for Inactive)
ROOT
HETATM    1  C1  UNL     1      24.575   3.138  53.220  1.00  0.00     0.044 C 
HETATM    2  C2  UNL     1      23.954   3.066  51.861  1.00  0.00    -0.076 C 
HETATM    3  C3  UNL     1      24.474   3.081  50.645  1.00  0.00     0.003 C 
HETATM    4  C4  UNL     1      24.142   3.015  49.230  1.00  0.00    -0.002 C 
HETATM    5  C5  UNL     1      23.072   2.873  48.453  1.00  0.00    -0.000 C 
HETATM    6  C6  UNL     1      21.681   2.697  48.083  1.00  0.00     0.128 C 
HETATM    7  C7  UNL     1      21.031   1.489  48.727  1.00  0.00     0.058 C 
HETATM    8  C8  UNL     1      20.263   2.031  49.885  1.00  0.00     0.128 C 
HETATM    9  C9  UNL     1      20.737   1.479  51.189  1.00  0.00    -0.030 A 
HETATM   10  C10 UNL     1      20.028   0.330  51.592  1.00  0.00     0.010 A 
HETATM   11  C11 UNL     1      20.250  -0.391  52.748  1.00  0.00     0.007 A 
HETATM   12  C12 UNL     1      21.243   0.030  53.591  1.00  0.00    -0.061 A 
HETATM   13  C13 UNL     1      21.554  -0.675  54.847  1.00  0.00     0.048 C 
HETATM   14  C14 UNL     1      21.942   1.147  53.211  1.00  0.00     0.015 A 
HETATM   15  C15 UNL     1      21.739   1.879  52.067  1.00  0.00    -0.042 A 
HETATM   16  C16 UNL     1      22.497   3.064  51.690  1.00  0.00     0.043 C 
HETATM   17  C17 UNL     1      22.034   4.234  52.640  1.00  0.00     0.020 C 
HETATM   18  N1  UNL     1      20.224   3.439  49.777  1.00  0.00    -0.155 NA
HETATM   19  S1  UNL     1      18.630   4.120  49.413  1.00  0.00    -0.031 SA
HETATM   20  C18 UNL     1      19.288   5.510  48.436  1.00  0.00     0.082 C 
HETATM   21  C19 UNL     1      20.488   5.075  48.081  1.00  0.00     0.114 C 
HETATM   22  N2  UNL     1      20.849   3.777  48.536  1.00  0.00    -0.302 N 
ENDROOT
TORSDOF 0
ENDMDL
MODEL 9
REMARK VINA RESULT:      -6.8      2.976      6.631
REMARK  0 active torsions:
REMARK  status: ('A' for Active; 'I' for Inactive)
ROOT
HETATM    1  C1  UNL     1      22.197   7.207  45.589  1.00  0.00     0.044 C 
HETATM    2  C2  UNL     1      22.279   5.971  46.427  1.00  0.00    -0.076 C 
HETATM    3  C3  UNL     1      21.939   4.715  46.192  1.00  0.00     0.003 C 
HETATM    4  C4  UNL     1      21.917   3.381  46.772  1.00  0.00    -0.002 C 
HETATM    5  C5  UNL     1      22.284   2.765  47.893  1.00  0.00    -0.000 C 
HETATM    6  C6  UNL     1      22.837   2.586  49.221  1.00  0.00     0.128 C 
HETATM    7  C7  UNL     1      24.263   3.083  49.355  1.00  0.00     0.058 C 
HETATM    8  C8  UNL     1      24.149   4.425  49.994  1.00  0.00     0.128 C 
HETATM    9  C9  UNL     1      24.692   5.514  49.126  1.00  0.00    -0.030 A 
HETATM   10  C10 UNL     1      26.049   5.796  49.383  1.00  0.00     0.010 A 
HETATM   11  C11 UNL     1      26.810   6.747  48.734  1.00  0.00     0.007 A 
HETATM   12  C12 UNL     1      26.215   7.492  47.751  1.00  0.00    -0.061 A 
HETATM   13  C13 UNL     1      26.947   8.530  47.004  1.00  0.00     0.048 C 
HETATM   14  C14 UNL     1      24.895   7.227  47.492  1.00  0.00     0.015 A 
HETATM   15  C15 UNL     1      24.119   6.287  48.123  1.00  0.00    -0.042 A 
HETATM   16  C16 UNL     1      22.715   6.029  47.826  1.00  0.00     0.043 C 
HETATM   17  C17 UNL     1      21.888   7.242  48.400  1.00  0.00     0.020 C 
HETATM   18  N1  UNL     1      22.823   4.593  50.452  1.00  0.00    -0.155 NA
HETATM   19  S1  UNL     1      22.636   4.612  52.213  1.00  0.00    -0.031 SA
HETATM   20  C18 UNL     1      20.992   3.826  52.191  1.00  0.00     0.082 C 
HETATM   21  C19 UNL     1      20.977   3.216  51.015  1.00  0.00     0.114 C 
HETATM   22  N2  UNL     1      22.144   3.357  50.216  1.00  0.00    -0.302 N 
ENDROOT
TORSDOF 0
ENDMDL
