MODEL 1
REMARK VINA RESULT:      -8.7      0.000      0.000
REMARK  4 active torsions:
REMARK  status: ('A' for Active; 'I' for Inactive)
REMARK    1  A    between atoms: S1_9  and  C19_25 
REMARK    2  A    between atoms: C11_15  and  C12_16 
REMARK    3  A    between atoms: C13_17  and  C14_18 
REMARK    4  A    between atoms: C18_23  and  N3_26 
ROOT
HETATM    1  C1  UNL     1      23.020   3.213  47.777  1.00  0.00     0.037 C 
HETATM    2  C2  UNL     1      23.384   3.302  49.196  1.00  0.00    -0.011 C 
HETATM    3  C3  UNL     1      23.955   3.880  50.207  1.00  0.00     0.017 C 
HETATM    4  C4  UNL     1      24.700   5.176  50.024  1.00  0.00     0.048 C 
HETATM    5 CL1  UNL     1      25.796   5.255  48.613  1.00  0.00    -0.083 Cl
HETATM    6  C5  UNL     1      24.523   6.180  50.822  1.00  0.00     0.013 C 
HETATM    7  C6  UNL     1      23.509   5.842  51.883  1.00  0.00     0.127 C 
HETATM    8  N1  UNL     1      24.134   4.921  52.745  1.00  0.00    -0.274 NA
HETATM    9  S1  UNL     1      23.938   3.256  51.768  1.00  0.00    -0.133 SA
HETATM   10  O1  UNL     1      22.256   2.639  52.424  1.00  0.00     0.000 OA
HETATM   11  C7  UNL     1      22.295   1.149  52.702  1.00  0.00     0.012 A 
HETATM   12  C8  UNL     1      21.248   0.745  51.914  1.00  0.00    -0.016 A 
HETATM   13  C9  UNL     1      21.759  -0.599  52.399  1.00  0.00    -0.003 A 
HETATM   14  C10 UNL     1      22.959  -0.982  53.338  1.00  0.00     0.058 A 
HETATM   15  C11 UNL     1      23.036   0.547  53.303  1.00  0.00     0.014 A 
HETATM   16  C12 UNL     1      23.154   2.024  53.302  1.00  0.00     0.114 A 
HETATM   17  C13 UNL     1      24.000  -0.581  53.063  1.00  0.00     0.116 A 
HETATM   18  N3  UNL     1      24.297  -0.652  54.292  1.00  0.00    -0.277 N 
HETATM   19  H8  UNL     1      25.177   5.010  52.704  1.00  0.00     0.134 HD
ENDROOT
BRANCH   9  20
HETATM   20  C19 UNL     1      25.085   2.178  52.490  1.00  0.00     0.005 A 
HETATM   21  C15 UNL     1      25.838   1.649  53.331  1.00  0.00     0.052 A 
HETATM   22  C14 UNL     1      26.555   1.719  51.716  1.00  0.00     0.150 A 
HETATM   23  C16 UNL     1      26.633   1.104  54.250  1.00  0.00     0.016 A 
HETATM   24  N2  UNL     1      25.997   1.267  52.851  1.00  0.00     0.000 N 
HETATM   25  O2  UNL     1      26.992   2.852  51.205  1.00  0.00    -0.223 OA
HETATM   26  C18 UNL     1      26.741   0.163  52.228  1.00  0.00     0.080 A 
HETATM   27  C17 UNL     1      27.158   0.277  53.710  1.00  0.00     0.026 A 
ENDBRANCH   9  20
TORSDOF 4
ENDMDL
MODEL 2
REMARK VINA RESULT:      -8.1      2.618      3.863
REMARK  4 active torsions:
REMARK  status: ('A' for Active; 'I' for Inactive)
REMARK    1  A    between atoms: S1_9  and  C19_25 
REMARK    2  A    between atoms: C11_15  and  C12_16 
REMARK    3  A    between atoms: C13_17  and  C14_18 
REMARK    4  A    between atoms: C18_23  and  N3_26 
ROOT
HETATM    1  C1  UNL     1      22.667   2.236  47.455  1.00  0.00     0.037 C 
HETATM    2  C2  UNL     1      22.257   2.436  48.849  1.00  0.00    -0.011 C 
HETATM    3  C3  UNL     1      22.413   2.930  50.039  1.00  0.00     0.017 C 
HETATM    4  C4  UNL     1      23.603   3.798  50.355  1.00  0.00     0.048 C 
HETATM    5 CL1  UNL     1      25.182   3.206  49.758  1.00  0.00    -0.083 Cl
HETATM    6  C5  UNL     1      23.476   4.921  50.986  1.00  0.00     0.013 C 
HETATM    7  C6  UNL     1      22.030   5.183  51.318  1.00  0.00     0.127 C 
HETATM    8  N1  UNL     1      21.686   4.266  52.329  1.00  0.00    -0.274 NA
HETATM    9  S1  UNL     1      21.350   2.650  51.311  1.00  0.00    -0.133 SA
HETATM   10  O1  UNL     1      19.491   2.834  50.928  1.00  0.00     0.000 OA
HETATM   11  C7  UNL     1      18.766   1.514  51.103  1.00  0.00     0.012 A 
HETATM   12  C8  UNL     1      18.208   1.396  49.855  1.00  0.00    -0.016 A 
HETATM   13  C9  UNL     1      17.795   0.070  50.465  1.00  0.00    -0.003 A 
HETATM   14  C10 UNL     1      18.068  -0.559  51.878  1.00  0.00     0.058 A 
HETATM   15  C11 UNL     1      18.774   0.797  51.974  1.00  0.00     0.014 A 
HETATM   16  C12 UNL     1      19.471   2.097  52.116  1.00  0.00     0.114 A 
HETATM   17  C13 UNL     1      19.161  -0.633  52.227  1.00  0.00     0.116 A 
HETATM   18  N3  UNL     1      18.732  -0.587  53.418  1.00  0.00    -0.277 N 
HETATM   19  H8  UNL     1      22.533   3.951  52.859  1.00  0.00     0.134 HD
ENDROOT
BRANCH   9  20
HETATM   20  C19 UNL     1      21.408   1.369  52.476  1.00  0.00     0.005 A 
HETATM   21  C15 UNL     1      21.298   0.749  53.552  1.00  0.00     0.052 A 
HETATM   22  C14 UNL     1      22.779   0.344  52.674  1.00  0.00     0.150 A 
HETATM   23  C16 UNL     1      21.169   0.111  54.713  1.00  0.00     0.016 A 
HETATM   24  N2  UNL     1      21.557   0.271  53.226  1.00  0.00     0.000 N 
HETATM   25  O2  UNL     1      23.793   1.183  52.611  1.00  0.00    -0.223 OA
HETATM   26  C18 UNL     1      22.078  -1.095  53.069  1.00  0.00     0.080 A 
HETATM   27  C17 UNL     1      21.578  -0.912  54.517  1.00  0.00     0.026 A 
ENDBRANCH   9  20
TORSDOF 4
ENDMDL
MODEL 3
REMARK VINA RESULT:      -7.8      1.781      2.073
REMARK  4 active torsions:
REMARK  status: ('A' for Active; 'I' for Inactive)
REMARK    1  A    between atoms: S1_9  and  C19_25 
REMARK    2  A    between atoms: C11_15  and  C12_16 
REMARK    3  A    between atoms: C13_17  and  C14_18 
REMARK    4  A    between atoms: C18_23  and  N3_26 
ROOT
HETATM    1  C1  UNL     1      21.917   4.170  46.750  1.00  0.00     0.037 C 
HETATM    2  C2  UNL     1      22.118   4.319  48.195  1.00  0.00    -0.011 C 
HETATM    3  C3  UNL     1      22.493   4.980  49.248  1.00  0.00     0.017 C 
HETATM    4  C4  UNL     1      23.052   6.372  49.114  1.00  0.00     0.048 C 
HETATM    5 CL1  UNL     1      24.261   6.607  47.817  1.00  0.00    -0.083 Cl
HETATM    6  C5  UNL     1      22.649   7.341  49.871  1.00  0.00     0.013 C 
HETATM    7  C6  UNL     1      21.594   6.860  50.833  1.00  0.00     0.127 C 
HETATM    8  N1  UNL     1      22.258   6.047  51.770  1.00  0.00    -0.274 NA
HETATM    9  S1  UNL     1      22.411   4.368  50.811  1.00  0.00    -0.133 SA
HETATM   10  O1  UNL     1      20.782   3.509  51.308  1.00  0.00     0.000 OA
HETATM   11  C7  UNL     1      21.013   2.043  51.618  1.00  0.00     0.012 A 
HETATM   12  C8  UNL     1      20.122   1.483  50.738  1.00  0.00    -0.016 A 
HETATM   13  C9  UNL     1      20.775   0.233  51.297  1.00  0.00    -0.003 A 
HETATM   14  C10 UNL     1      21.917   0.037  52.357  1.00  0.00     0.058 A 
HETATM   15  C11 UNL     1      21.771   1.561  52.301  1.00  0.00     0.014 A 
HETATM   16  C12 UNL     1      21.667   3.039  52.283  1.00  0.00     0.114 A 
HETATM   17  C13 UNL     1      22.910   0.588  52.179  1.00  0.00     0.116 A 
HETATM   18  N3  UNL     1      23.089   0.568  53.433  1.00  0.00    -0.277 N 
HETATM   19  H8  UNL     1      23.275   6.291  51.831  1.00  0.00     0.134 HD
ENDROOT
BRANCH   9  20
HETATM   20  C19 UNL     1      23.627   3.476  51.664  1.00  0.00     0.005 A 
HETATM   21  C15 UNL     1      24.370   3.079  52.582  1.00  0.00     0.052 A 
HETATM   22  C14 UNL     1      25.204   3.198  51.027  1.00  0.00     0.150 A 
HETATM   23  C16 UNL     1      25.151   2.673  53.582  1.00  0.00     0.016 A 
HETATM   24  N2  UNL     1      24.617   2.708  52.132  1.00  0.00     0.000 N 
HETATM   25  O2  UNL     1      25.528   4.364  50.507  1.00  0.00    -0.223 OA
HETATM   26  C18 UNL     1      25.551   1.697  51.614  1.00  0.00     0.080 A 
HETATM   27  C17 UNL     1      25.824   1.910  53.119  1.00  0.00     0.026 A 
ENDBRANCH   9  20
TORSDOF 4
ENDMDL
MODEL 4
REMARK VINA RESULT:      -7.4      9.877     12.500
REMARK  4 active torsions:
REMARK  status: ('A' for Active; 'I' for Inactive)
REMARK    1  A    between atoms: S1_9  and  C19_25 
REMARK    2  A    between atoms: C11_15  and  C12_16 
REMARK    3  A    between atoms: C13_17  and  C14_18 
REMARK    4  A    between atoms: C18_23  and  N3_26 
ROOT
HETATM    1  C1  UNL     1      33.250   4.942  43.687  1.00  0.00     0.037 C 
HETATM    2  C2  UNL     1      33.333   5.604  44.993  1.00  0.00    -0.011 C 
HETATM    3  C3  UNL     1      33.363   5.601  46.291  1.00  0.00     0.017 C 
HETATM    4  C4  UNL     1      33.281   4.303  47.051  1.00  0.00     0.048 C 
HETATM    5 CL1  UNL     1      32.034   3.148  46.494  1.00  0.00    -0.083 Cl
HETATM    6  C5  UNL     1      34.092   4.033  48.023  1.00  0.00     0.013 C 
HETATM    7  C6  UNL     1      35.062   5.166  48.235  1.00  0.00     0.127 C 
HETATM    8  N1  UNL     1      34.318   6.222  48.792  1.00  0.00    -0.274 NA
HETATM    9  S1  UNL     1      33.476   6.994  47.224  1.00  0.00    -0.133 SA
HETATM   10  O1  UNL     1      34.786   8.275  46.694  1.00  0.00     0.000 OA
HETATM   11  C7  UNL     1      34.134   9.581  46.283  1.00  0.00     0.012 A 
HETATM   12  C8  UNL     1      34.645   9.699  45.016  1.00  0.00    -0.016 A 
HETATM   13  C9  UNL     1      33.710  10.894  45.046  1.00  0.00    -0.003 A 
HETATM   14  C10 UNL     1      32.743  11.434  46.159  1.00  0.00     0.058 A 
HETATM   15  C11 UNL     1      33.373  10.209  46.830  1.00  0.00     0.014 A 
HETATM   16  C12 UNL     1      33.954   9.035  47.522  1.00  0.00     0.114 A 
HETATM   17  C13 UNL     1      31.972  10.702  46.598  1.00  0.00     0.116 A 
HETATM   18  N3  UNL     1      31.991  11.396  47.658  1.00  0.00    -0.277 N 
HETATM   19  H8  UNL     1      33.461   5.867  49.278  1.00  0.00     0.134 HD
ENDROOT
BRANCH   9  20
HETATM   20  C19 UNL     1      32.179   7.960  47.845  1.00  0.00     0.005 A 
HETATM   21  C15 UNL     1      31.498   8.662  48.618  1.00  0.00     0.052 A 
HETATM   22  C14 UNL     1      30.522   7.510  47.698  1.00  0.00     0.150 A 
HETATM   23  C16 UNL     1      30.792   9.411  49.463  1.00  0.00     0.016 A 
HETATM   24  N2  UNL     1      31.073   8.649  48.148  1.00  0.00     0.000 N 
HETATM   25  O2  UNL     1      30.535   6.223  47.974  1.00  0.00    -0.223 OA
HETATM   26  C18 UNL     1      29.784   8.974  47.520  1.00  0.00     0.080 A 
HETATM   27  C17 UNL     1      29.837   9.621  48.921  1.00  0.00     0.026 A 
ENDBRANCH   9  20
TORSDOF 4
ENDMDL
MODEL 5
REMARK VINA RESULT:      -7.4      3.693      5.725
REMARK  4 active torsions:
REMARK  status: ('A' for Active; 'I' for Inactive)
REMARK    1  A    between atoms: S1_9  and  C19_25 
REMARK    2  A    between atoms: C11_15  and  C12_16 
REMARK    3  A    between atoms: C13_17  and  C14_18 
REMARK    4  A    between atoms: C18_23  and  N3_26 
ROOT
HETATM    1  C1  UNL     1      25.316   8.665  45.637  1.00  0.00     0.037 C 
HETATM    2  C2  UNL     1      25.353   8.266  47.049  1.00  0.00    -0.011 C 
HETATM    3  C3  UNL     1      25.973   7.980  48.152  1.00  0.00     0.017 C 
HETATM    4  C4  UNL     1      27.477   8.028  48.216  1.00  0.00     0.048 C 
HETATM    5 CL1  UNL     1      28.342   7.268  46.847  1.00  0.00    -0.083 Cl
HETATM    6  C5  UNL     1      28.097   8.619  49.187  1.00  0.00     0.013 C 
HETATM    7  C6  UNL     1      27.114   9.209  50.163  1.00  0.00     0.127 C 
HETATM    8  N1  UNL     1      26.531   8.121  50.840  1.00  0.00    -0.274 NA
HETATM    9  S1  UNL     1      25.191   7.526  49.569  1.00  0.00    -0.133 SA
HETATM   10  O1  UNL     1      23.690   8.580  50.093  1.00  0.00     0.000 OA
HETATM   11  C7  UNL     1      22.418   7.755  50.089  1.00  0.00     0.012 A 
HETATM   12  C8  UNL     1      21.659   8.516  49.236  1.00  0.00    -0.016 A 
HETATM   13  C9  UNL     1      20.723   7.344  49.464  1.00  0.00    -0.003 A 
HETATM   14  C10 UNL     1      20.878   6.034  50.317  1.00  0.00     0.058 A 
HETATM   15  C11 UNL     1      22.205   6.757  50.569  1.00  0.00     0.014 A 
HETATM   16  C12 UNL     1      23.504   7.416  50.844  1.00  0.00     0.114 A 
HETATM   17  C13 UNL     1      21.802   5.379  50.125  1.00  0.00     0.116 A 
HETATM   18  N3  UNL     1      21.701   4.972  51.321  1.00  0.00    -0.277 N 
HETATM   19  H8  UNL     1      27.157   7.281  50.820  1.00  0.00     0.134 HD
ENDROOT
BRANCH   9  20
HETATM   20  C19 UNL     1      24.772   5.925  50.081  1.00  0.00     0.005 A 
HETATM   21  C15 UNL     1      24.575   4.935  50.813  1.00  0.00     0.052 A 
HETATM   22  C14 UNL     1      25.319   4.508  49.266  1.00  0.00     0.150 A 
HETATM   23  C16 UNL     1      24.371   3.894  51.618  1.00  0.00     0.016 A 
HETATM   24  N2  UNL     1      24.434   4.644  50.268  1.00  0.00     0.000 N 
HETATM   25  O2  UNL     1      26.583   4.776  49.014  1.00  0.00    -0.223 OA
HETATM   26  C18 UNL     1      24.035   3.490  49.448  1.00  0.00     0.080 A 
HETATM   27  C17 UNL     1      24.069   3.065  50.932  1.00  0.00     0.026 A 
ENDBRANCH   9  20
TORSDOF 4
ENDMDL
MODEL 6
REMARK VINA RESULT:      -7.4      4.283      7.064
REMARK  4 active torsions:
REMARK  status: ('A' for Active; 'I' for Inactive)
REMARK    1  A    between atoms: S1_9  and  C19_25 
REMARK    2  A    between atoms: C11_15  and  C12_16 
REMARK    3  A    between atoms: C13_17  and  C14_18 
REMARK    4  A    between atoms: C18_23  and  N3_26 
ROOT
HETATM    1  C1  UNL     1      22.295   1.871  47.883  1.00  0.00     0.037 C 
HETATM    2  C2  UNL     1      22.578   3.118  48.602  1.00  0.00    -0.011 C 
HETATM    3  C3  UNL     1      22.230   4.144  49.316  1.00  0.00     0.017 C 
HETATM    4  C4  UNL     1      20.796   4.328  49.738  1.00  0.00     0.048 C 
HETATM    5 CL1  UNL     1      19.566   4.059  48.466  1.00  0.00    -0.083 Cl
HETATM    6  C5  UNL     1      20.479   4.625  50.958  1.00  0.00     0.013 C 
HETATM    7  C6  UNL     1      21.713   4.739  51.813  1.00  0.00     0.127 C 
HETATM    8  N1  UNL     1      22.363   5.920  51.410  1.00  0.00    -0.274 NA
HETATM    9  S1  UNL     1      23.301   5.340  49.814  1.00  0.00    -0.133 SA
HETATM   10  O1  UNL     1      24.958   4.750  50.553  1.00  0.00     0.000 OA
HETATM   11  C7  UNL     1      26.126   5.199  49.697  1.00  0.00     0.012 A 
HETATM   12  C8  UNL     1      26.705   3.981  49.448  1.00  0.00    -0.016 A 
HETATM   13  C9  UNL     1      27.580   4.879  48.593  1.00  0.00    -0.003 A 
HETATM   14  C10 UNL     1      27.544   6.428  48.331  1.00  0.00     0.058 A 
HETATM   15  C11 UNL     1      26.377   6.226  49.302  1.00  0.00     0.014 A 
HETATM   16  C12 UNL     1      25.238   6.083  50.239  1.00  0.00     0.114 A 
HETATM   17  C13 UNL     1      26.556   6.883  47.963  1.00  0.00     0.116 A 
HETATM   18  N3  UNL     1      26.918   7.975  48.494  1.00  0.00    -0.277 N 
HETATM   19  H8  UNL     1      21.692   6.591  50.968  1.00  0.00     0.134 HD
ENDROOT
BRANCH   9  20
HETATM   20  C19 UNL     1      23.715   6.802  48.984  1.00  0.00     0.005 A 
HETATM   21  C15 UNL     1      23.999   7.998  48.772  1.00  0.00     0.052 A 
HETATM   22  C14 UNL     1      22.917   7.322  47.547  1.00  0.00     0.150 A 
HETATM   23  C16 UNL     1      24.301   9.280  48.576  1.00  0.00     0.016 A 
HETATM   24  N2  UNL     1      24.001   7.821  48.164  1.00  0.00     0.000 N 
HETATM   25  O2  UNL     1      21.648   7.084  47.807  1.00  0.00    -0.223 OA
HETATM   26  C18 UNL     1      24.142   8.051  46.718  1.00  0.00     0.080 A 
HETATM   27  C17 UNL     1      24.396   9.377  47.466  1.00  0.00     0.026 A 
ENDBRANCH   9  20
TORSDOF 4
ENDMDL
MODEL 7
REMARK VINA RESULT:      -7.1     21.571     24.396
REMARK  4 active torsions:
REMARK  status: ('A' for Active; 'I' for Inactive)
REMARK    1  A    between atoms: S1_9  and  C19_25 
REMARK    2  A    between atoms: C11_15  and  C12_16 
REMARK    3  A    between atoms: C13_17  and  C14_18 
REMARK    4  A    between atoms: C18_23  and  N3_26 
ROOT
HETATM    1  C1  UNL     1      42.680   0.897  72.731  1.00  0.00     0.037 C 
HETATM    2  C2  UNL     1      42.475   0.604  71.308  1.00  0.00    -0.011 C 
HETATM    3  C3  UNL     1      42.351   0.951  70.063  1.00  0.00     0.017 C 
HETATM    4  C4  UNL     1      42.436   2.400  69.664  1.00  0.00     0.048 C 
HETATM    5 CL1  UNL     1      41.515   3.547  70.682  1.00  0.00    -0.083 Cl
HETATM    6  C5  UNL     1      43.163   2.788  68.665  1.00  0.00     0.013 C 
HETATM    7  C6  UNL     1      43.860   1.614  68.029  1.00  0.00     0.127 C 
HETATM    8  N1  UNL     1      42.862   0.878  67.364  1.00  0.00    -0.274 NA
HETATM    9  S1  UNL     1      42.076  -0.141  68.815  1.00  0.00    -0.133 SA
HETATM   10  O1  UNL     1      43.162  -1.709  68.796  1.00  0.00     0.000 OA
HETATM   11  C7  UNL     1      42.320  -2.956  68.980  1.00  0.00     0.012 A 
HETATM   12  C8  UNL     1      42.945  -3.490  70.079  1.00  0.00    -0.016 A 
HETATM   13  C9  UNL     1      41.796  -4.467  69.916  1.00  0.00    -0.003 A 
HETATM   14  C10 UNL     1      40.616  -4.529  68.881  1.00  0.00     0.058 A 
HETATM   15  C11 UNL     1      41.391  -3.286  68.431  1.00  0.00     0.014 A 
HETATM   16  C12 UNL     1      42.106  -2.078  67.958  1.00  0.00     0.114 A 
HETATM   17  C13 UNL     1      39.958  -3.593  68.766  1.00  0.00     0.116 A 
HETATM   18  N3  UNL     1      39.714  -3.971  67.581  1.00  0.00    -0.277 N 
HETATM   19  H8  UNL     1      42.040   1.482  67.126  1.00  0.00     0.134 HD
ENDROOT
BRANCH   9  20
HETATM   20  C19 UNL     1      40.551  -0.686  68.202  1.00  0.00     0.005 A 
HETATM   21  C15 UNL     1      39.663  -1.052  67.407  1.00  0.00     0.052 A 
HETATM   22  C14 UNL     1      39.046   0.001  68.687  1.00  0.00     0.150 A 
HETATM   23  C16 UNL     1      38.733  -1.441  66.536  1.00  0.00     0.016 A 
HETATM   24  N2  UNL     1      39.301  -1.077  67.927  1.00  0.00     0.000 N 
HETATM   25  O2  UNL     1      39.296   1.294  68.694  1.00  0.00    -0.223 OA
HETATM   26  C18 UNL     1      38.045  -1.309  68.656  1.00  0.00     0.080 A 
HETATM   27  C17 UNL     1      37.818  -1.601  67.157  1.00  0.00     0.026 A 
ENDBRANCH   9  20
TORSDOF 4
ENDMDL
MODEL 8
REMARK VINA RESULT:      -7.0      2.563      4.581
REMARK  4 active torsions:
REMARK  status: ('A' for Active; 'I' for Inactive)
REMARK    1  A    between atoms: S1_9  and  C19_25 
REMARK    2  A    between atoms: C11_15  and  C12_16 
REMARK    3  A    between atoms: C13_17  and  C14_18 
REMARK    4  A    between atoms: C18_23  and  N3_26 
ROOT
HETATM    1  C1  UNL     1      21.999   5.872  51.609  1.00  0.00     0.037 C 
HETATM    2  C2  UNL     1      22.061   4.425  51.372  1.00  0.00    -0.011 C 
HETATM    3  C3  UNL     1      21.616   3.319  50.861  1.00  0.00     0.017 C 
HETATM    4  C4  UNL     1      20.368   3.315  50.019  1.00  0.00     0.048 C 
HETATM    5 CL1  UNL     1      18.988   4.255  50.663  1.00  0.00    -0.083 Cl
HETATM    6  C5  UNL     1      20.316   2.699  48.881  1.00  0.00     0.013 C 
HETATM    7  C6  UNL     1      21.636   2.041  48.575  1.00  0.00     0.127 C 
HETATM    8  N1  UNL     1      21.749   0.955  49.463  1.00  0.00    -0.274 NA
HETATM    9  S1  UNL     1      22.352   1.825  51.089  1.00  0.00    -0.133 SA
HETATM   10  O1  UNL     1      24.245   1.761  50.862  1.00  0.00     0.000 OA
HETATM   11  C7  UNL     1      24.936   1.387  52.159  1.00  0.00     0.012 A 
HETATM   12  C8  UNL     1      25.777   2.464  52.285  1.00  0.00    -0.016 A 
HETATM   13  C9  UNL     1      26.061   1.741  53.589  1.00  0.00    -0.003 A 
HETATM   14  C10 UNL     1      25.473   0.418  54.198  1.00  0.00     0.058 A 
HETATM   15  C11 UNL     1      24.736   0.526  52.860  1.00  0.00     0.014 A 
HETATM   16  C12 UNL     1      23.998   0.584  51.577  1.00  0.00     0.114 A 
HETATM   17  C13 UNL     1      24.331   0.337  54.295  1.00  0.00     0.116 A 
HETATM   18  N3  UNL     1      24.464  -0.921  54.216  1.00  0.00    -0.277 N 
HETATM   19  H8  UNL     1      20.808   0.634  49.792  1.00  0.00     0.134 HD
ENDROOT
BRANCH   9  20
HETATM   20  C19 UNL     1      22.047   0.676  52.349  1.00  0.00     0.005 A 
HETATM   21  C15 UNL     1      21.914  -0.410  52.947  1.00  0.00     0.052 A 
HETATM   22  C14 UNL     1      20.684   0.778  53.399  1.00  0.00     0.150 A 
HETATM   23  C16 UNL     1      21.781  -1.584  53.561  1.00  0.00     0.016 A 
HETATM   24  N2  UNL     1      21.746  -0.044  53.436  1.00  0.00     0.000 N 
HETATM   25  O2  UNL     1      19.699   1.093  52.583  1.00  0.00    -0.223 OA
HETATM   26  C18 UNL     1      21.298   0.199  54.816  1.00  0.00     0.080 A 
HETATM   27  C17 UNL     1      21.446  -1.322  54.595  1.00  0.00     0.026 A 
ENDBRANCH   9  20
TORSDOF 4
ENDMDL
MODEL 9
REMARK VINA RESULT:      -6.9      8.095     10.754
REMARK  4 active torsions:
REMARK  status: ('A' for Active; 'I' for Inactive)
REMARK    1  A    between atoms: S1_9  and  C19_25 
REMARK    2  A    between atoms: C11_15  and  C12_16 
REMARK    3  A    between atoms: C13_17  and  C14_18 
REMARK    4  A    between atoms: C18_23  and  N3_26 
ROOT
HETATM    1  C1  UNL     1      27.543   4.924  48.582  1.00  0.00     0.037 C 
HETATM    2  C2  UNL     1      28.349   6.141  48.438  1.00  0.00    -0.011 C 
HETATM    3  C3  UNL     1      28.490   7.421  48.282  1.00  0.00     0.017 C 
HETATM    4  C4  UNL     1      27.281   8.312  48.167  1.00  0.00     0.048 C 
HETATM    5 CL1  UNL     1      25.982   7.732  47.082  1.00  0.00    -0.083 Cl
HETATM    6  C5  UNL     1      27.180   9.411  48.845  1.00  0.00     0.013 C 
HETATM    7  C6  UNL     1      28.398   9.616  49.708  1.00  0.00     0.127 C 
HETATM    8  N1  UNL     1      29.451   9.937  48.831  1.00  0.00    -0.274 NA
HETATM    9  S1  UNL     1      29.981   8.189  48.179  1.00  0.00    -0.133 SA
HETATM   10  O1  UNL     1      31.290   7.692  49.474  1.00  0.00     0.000 OA
HETATM   11  C7  UNL     1      32.491   7.045  48.813  1.00  0.00     0.012 A 
HETATM   12  C8  UNL     1      32.508   5.853  49.493  1.00  0.00    -0.016 A 
HETATM   13  C9  UNL     1      33.625   5.614  48.495  1.00  0.00    -0.003 A 
HETATM   14  C10 UNL     1      34.211   6.513  47.349  1.00  0.00     0.058 A 
HETATM   15  C11 UNL     1      33.118   7.404  47.947  1.00  0.00     0.014 A 
HETATM   16  C12 UNL     1      32.073   8.303  48.490  1.00  0.00     0.114 A 
HETATM   17  C13 UNL     1      33.477   6.927  46.568  1.00  0.00     0.116 A 
HETATM   18  N3  UNL     1      34.282   7.890  46.393  1.00  0.00    -0.277 N 
HETATM   19  H8  UNL     1      29.089  10.341  47.935  1.00  0.00     0.134 HD
ENDROOT
BRANCH   9  20
HETATM   20  C19 UNL     1      30.911   8.509  46.752  1.00  0.00     0.005 A 
HETATM   21  C15 UNL     1      31.640   9.093  45.927  1.00  0.00     0.052 A 
HETATM   22  C14 UNL     1      30.329   8.185  45.163  1.00  0.00     0.150 A 
HETATM   23  C16 UNL     1      32.420   9.741  45.064  1.00  0.00     0.016 A 
HETATM   24  N2  UNL     1      31.546   8.574  45.577  1.00  0.00     0.000 N 
HETATM   25  O2  UNL     1      29.082   8.607  45.208  1.00  0.00    -0.223 OA
HETATM   26  C18 UNL     1      31.708   7.740  44.376  1.00  0.00     0.080 A 
HETATM   27  C17 UNL     1      32.501   9.051  44.188  1.00  0.00     0.026 A 
ENDBRANCH   9  20
TORSDOF 4
ENDMDL
