MODEL 1
REMARK VINA RESULT:      -7.8      0.000      0.000
REMARK  6 active torsions:
REMARK  status: ('A' for Active; 'I' for Inactive)
REMARK    1  A    between atoms: C7_7  and  O1_8 
REMARK    2  A    between atoms: O1_8  and  C8_9 
REMARK    3  A    between atoms: C11_12  and  C12_13 
REMARK    4  A    between atoms: C12_13  and  C13_15 
REMARK    5  A    between atoms: C13_15  and  C14_16 
REMARK    6  A    between atoms: C14_16  and  N1_17 
ROOT
HETATM    1  C8  UNL     1      23.771   3.132  51.175  1.00  0.00     0.058 A 
HETATM    2  C9  UNL     1      22.833   2.416  50.583  1.00  0.00     0.034 A 
HETATM    3  C10 UNL     1      22.757   1.181  51.393  1.00  0.00     0.013 A 
HETATM    4  C11 UNL     1      23.625   1.186  52.418  1.00  0.00    -0.006 A 
HETATM    5  C19 UNL     1      24.375   2.488  52.362  1.00  0.00     0.107 A 
ENDROOT
BRANCH   4   6
HETATM    6  C12 UNL     1      23.691   0.023  53.345  1.00  0.00     0.157 C 
HETATM    7  O2  UNL     1      22.608  -0.194  53.950  1.00  0.00    -0.293 OA
BRANCH   6   8
HETATM    8  C13 UNL     1      25.042  -0.538  53.272  1.00  0.00     0.103 C 
BRANCH   8   9
HETATM    9  C14 UNL     1      26.005  -0.210  54.346  1.00  0.00     0.124 C 
BRANCH   9  10
HETATM   10  N1  UNL     1      27.343   0.071  54.030  1.00  0.00    -0.408 N 
HETATM   11  C15 UNL     1      28.340   0.166  54.999  1.00  0.00     0.143 C 
HETATM   12  C16 UNL     1      29.418   1.158  54.523  1.00  0.00     0.187 C 
HETATM   13  O3  UNL     1      28.852   2.393  54.288  1.00  0.00    -0.388 OA
HETATM   14  C17 UNL     1      27.884   2.343  53.285  1.00  0.00     0.187 C 
HETATM   15  C18 UNL     1      27.572   0.910  52.906  1.00  0.00     0.143 C 
ENDBRANCH   9  10
ENDBRANCH   8   9
ENDBRANCH   6   8
ENDBRANCH   4   6
BRANCH   1  16
HETATM   16  O1  UNL     1      24.336   4.353  50.954  1.00  0.00    -0.314 OA
BRANCH  16  17
HETATM   17  C7  UNL     1      25.389   4.694  50.162  1.00  0.00     0.081 A 
HETATM   18  C2  UNL     1      25.388   6.066  49.927  1.00  0.00    -0.028 A 
HETATM   19  C1  UNL     1      24.399   7.058  50.449  1.00  0.00     0.051 C 
HETATM   20  C3  UNL     1      26.367   6.680  49.140  1.00  0.00     0.009 A 
HETATM   21  C4  UNL     1      27.366   5.908  48.575  1.00  0.00     0.001 A 
HETATM   22  C5  UNL     1      27.379   4.543  48.799  1.00  0.00     0.003 A 
HETATM   23  C6  UNL     1      26.397   3.958  49.584  1.00  0.00     0.038 A 
ENDBRANCH  16  17
ENDBRANCH   1  16
TORSDOF 6
ENDMDL
MODEL 2
REMARK VINA RESULT:      -7.7      3.660      6.338
REMARK  6 active torsions:
REMARK  status: ('A' for Active; 'I' for Inactive)
REMARK    1  A    between atoms: C7_7  and  O1_8 
REMARK    2  A    between atoms: O1_8  and  C8_9 
REMARK    3  A    between atoms: C11_12  and  C12_13 
REMARK    4  A    between atoms: C12_13  and  C13_15 
REMARK    5  A    between atoms: C13_15  and  C14_16 
REMARK    6  A    between atoms: C14_16  and  N1_17 
ROOT
HETATM    1  C8  UNL     1      24.920  -0.549  53.959  1.00  0.00     0.058 A 
HETATM    2  C9  UNL     1      24.806  -1.042  55.178  1.00  0.00     0.034 A 
HETATM    3  C10 UNL     1      23.348  -1.194  55.372  1.00  0.00     0.013 A 
HETATM    4  C11 UNL     1      22.645  -0.799  54.298  1.00  0.00    -0.006 A 
HETATM    5  C19 UNL     1      23.632  -0.337  53.263  1.00  0.00     0.107 A 
ENDROOT
BRANCH   4   6
HETATM    6  C12 UNL     1      21.159  -0.879  54.309  1.00  0.00     0.157 C 
HETATM    7  O2  UNL     1      20.724  -2.008  54.663  1.00  0.00    -0.293 OA
BRANCH   6   8
HETATM    8  C13 UNL     1      20.631   0.421  53.890  1.00  0.00     0.103 C 
BRANCH   8   9
HETATM    9  C14 UNL     1      19.854   0.500  52.634  1.00  0.00     0.124 C 
BRANCH   9  10
HETATM   10  N1  UNL     1      20.379   1.178  51.524  1.00  0.00    -0.408 N 
HETATM   11  C15 UNL     1      21.240   0.570  50.611  1.00  0.00     0.143 C 
HETATM   12  C16 UNL     1      22.187   1.633  50.022  1.00  0.00     0.187 C 
HETATM   13  O3  UNL     1      22.902   2.240  51.032  1.00  0.00    -0.388 OA
HETATM   14  C17 UNL     1      22.071   2.902  51.937  1.00  0.00     0.187 C 
HETATM   15  C18 UNL     1      20.616   2.570  51.677  1.00  0.00     0.143 C 
ENDBRANCH   9  10
ENDBRANCH   8   9
ENDBRANCH   6   8
ENDBRANCH   4   6
BRANCH   1  16
HETATM   16  O1  UNL     1      25.962  -0.177  53.162  1.00  0.00    -0.314 OA
BRANCH  16  17
HETATM   17  C7  UNL     1      27.281  -0.500  53.249  1.00  0.00     0.081 A 
HETATM   18  C2  UNL     1      28.040   0.644  53.481  1.00  0.00    -0.028 A 
HETATM   19  C1  UNL     1      27.526   2.040  53.624  1.00  0.00     0.051 C 
HETATM   20  C3  UNL     1      29.431   0.593  53.612  1.00  0.00     0.009 A 
HETATM   21  C4  UNL     1      30.077  -0.626  53.509  1.00  0.00     0.001 A 
HETATM   22  C5  UNL     1      29.336  -1.771  53.278  1.00  0.00     0.003 A 
HETATM   23  C6  UNL     1      27.958  -1.693  53.151  1.00  0.00     0.038 A 
ENDBRANCH  16  17
ENDBRANCH   1  16
TORSDOF 6
ENDMDL
MODEL 3
REMARK VINA RESULT:      -7.3      2.824      6.143
REMARK  6 active torsions:
REMARK  status: ('A' for Active; 'I' for Inactive)
REMARK    1  A    between atoms: C7_7  and  O1_8 
REMARK    2  A    between atoms: O1_8  and  C8_9 
REMARK    3  A    between atoms: C11_12  and  C12_13 
REMARK    4  A    between atoms: C12_13  and  C13_15 
REMARK    5  A    between atoms: C13_15  and  C14_16 
REMARK    6  A    between atoms: C14_16  and  N1_17 
ROOT
HETATM    1  C8  UNL     1      24.660  -0.087  53.142  1.00  0.00     0.058 A 
HETATM    2  C9  UNL     1      24.299  -0.749  54.226  1.00  0.00     0.034 A 
HETATM    3  C10 UNL     1      22.859  -0.444  54.372  1.00  0.00     0.013 A 
HETATM    4  C11 UNL     1      22.406   0.368  53.403  1.00  0.00    -0.006 A 
HETATM    5  C19 UNL     1      23.568   0.675  52.499  1.00  0.00     0.107 A 
ENDROOT
BRANCH   4   6
HETATM    6  C12 UNL     1      20.977   0.785  53.386  1.00  0.00     0.157 C 
HETATM    7  O2  UNL     1      20.337   0.408  54.403  1.00  0.00    -0.293 OA
BRANCH   6   8
HETATM    8  C13 UNL     1      20.738   1.532  52.149  1.00  0.00     0.103 C 
BRANCH   8   9
HETATM    9  C14 UNL     1      20.560   2.999  52.230  1.00  0.00     0.124 C 
BRANCH   9  10
HETATM   10  N1  UNL     1      21.433   3.852  51.540  1.00  0.00    -0.408 N 
HETATM   11  C15 UNL     1      22.128   3.452  50.399  1.00  0.00     0.143 C 
HETATM   12  C16 UNL     1      23.462   4.219  50.324  1.00  0.00     0.187 C 
HETATM   13  O3  UNL     1      24.210   3.978  51.456  1.00  0.00    -0.388 OA
HETATM   14  C17 UNL     1      23.563   4.414  52.613  1.00  0.00     0.187 C 
HETATM   15  C18 UNL     1      22.134   4.815  52.314  1.00  0.00     0.143 C 
ENDBRANCH   9  10
ENDBRANCH   8   9
ENDBRANCH   6   8
ENDBRANCH   4   6
BRANCH   1  16
HETATM   16  O1  UNL     1      25.825   0.070  52.452  1.00  0.00    -0.314 OA
BRANCH  16  17
HETATM   17  C7  UNL     1      27.100   0.191  52.913  1.00  0.00     0.081 A 
HETATM   18  C2  UNL     1      27.734  -1.048  52.900  1.00  0.00    -0.028 A 
HETATM   19  C1  UNL     1      27.143  -2.346  52.450  1.00  0.00     0.051 C 
HETATM   20  C3  UNL     1      29.056  -1.205  53.325  1.00  0.00     0.009 A 
HETATM   21  C4  UNL     1      29.759  -0.102  53.775  1.00  0.00     0.001 A 
HETATM   22  C5  UNL     1      29.142   1.136  53.795  1.00  0.00     0.003 A 
HETATM   23  C6  UNL     1      27.829   1.265  53.367  1.00  0.00     0.038 A 
ENDBRANCH  16  17
ENDBRANCH   1  16
TORSDOF 6
ENDMDL
MODEL 4
REMARK VINA RESULT:      -7.2      2.445      6.212
REMARK  6 active torsions:
REMARK  status: ('A' for Active; 'I' for Inactive)
REMARK    1  A    between atoms: C7_7  and  O1_8 
REMARK    2  A    between atoms: O1_8  and  C8_9 
REMARK    3  A    between atoms: C11_12  and  C12_13 
REMARK    4  A    between atoms: C12_13  and  C13_15 
REMARK    5  A    between atoms: C13_15  and  C14_16 
REMARK    6  A    between atoms: C14_16  and  N1_17 
ROOT
HETATM    1  C8  UNL     1      24.981   1.043  52.789  1.00  0.00     0.058 A 
HETATM    2  C9  UNL     1      23.979   0.260  53.143  1.00  0.00     0.034 A 
HETATM    3  C10 UNL     1      22.866   0.677  52.263  1.00  0.00     0.013 A 
HETATM    4  C11 UNL     1      23.216   1.670  51.429  1.00  0.00    -0.006 A 
HETATM    5  C19 UNL     1      24.657   1.999  51.707  1.00  0.00     0.107 A 
ENDROOT
BRANCH   4   6
HETATM    6  C12 UNL     1      22.224   2.222  50.467  1.00  0.00     0.157 C 
HETATM    7  O2  UNL     1      21.096   2.439  50.986  1.00  0.00    -0.293 OA
BRANCH   6   8
HETATM    8  C13 UNL     1      22.879   2.351  49.164  1.00  0.00     0.103 C 
BRANCH   8   9
HETATM    9  C14 UNL     1      22.713   3.612  48.408  1.00  0.00     0.124 C 
BRANCH   9  10
HETATM   10  N1  UNL     1      23.403   4.766  48.808  1.00  0.00    -0.408 N 
HETATM   11  C15 UNL     1      24.727   4.737  49.243  1.00  0.00     0.143 C 
HETATM   12  C16 UNL     1      24.952   5.872  50.261  1.00  0.00     0.187 C 
HETATM   13  O3  UNL     1      24.090   5.728  51.327  1.00  0.00    -0.388 OA
HETATM   14  C17 UNL     1      22.753   5.804  50.932  1.00  0.00     0.187 C 
HETATM   15  C18 UNL     1      22.634   5.792  49.422  1.00  0.00     0.143 C 
ENDBRANCH   9  10
ENDBRANCH   8   9
ENDBRANCH   6   8
ENDBRANCH   4   6
BRANCH   1  16
HETATM   16  O1  UNL     1      26.276   1.191  53.186  1.00  0.00    -0.314 OA
BRANCH  16  17
HETATM   17  C7  UNL     1      27.287   0.280  53.212  1.00  0.00     0.081 A 
HETATM   18  C2  UNL     1      28.495   0.912  53.495  1.00  0.00    -0.028 A 
HETATM   19  C1  UNL     1      28.699   2.372  53.745  1.00  0.00     0.051 C 
HETATM   20  C3  UNL     1      29.697   0.203  53.581  1.00  0.00     0.009 A 
HETATM   21  C4  UNL     1      29.692  -1.166  53.377  1.00  0.00     0.001 A 
HETATM   22  C5  UNL     1      28.500  -1.807  53.094  1.00  0.00     0.003 A 
HETATM   23  C6  UNL     1      27.321  -1.081  53.015  1.00  0.00     0.038 A 
ENDBRANCH  16  17
ENDBRANCH   1  16
TORSDOF 6
ENDMDL
MODEL 5
REMARK VINA RESULT:      -7.2      1.472      1.886
REMARK  6 active torsions:
REMARK  status: ('A' for Active; 'I' for Inactive)
REMARK    1  A    between atoms: C7_7  and  O1_8 
REMARK    2  A    between atoms: O1_8  and  C8_9 
REMARK    3  A    between atoms: C11_12  and  C12_13 
REMARK    4  A    between atoms: C12_13  and  C13_15 
REMARK    5  A    between atoms: C13_15  and  C14_16 
REMARK    6  A    between atoms: C14_16  and  N1_17 
ROOT
HETATM    1  C8  UNL     1      24.136   4.327  50.565  1.00  0.00     0.058 A 
HETATM    2  C9  UNL     1      23.737   4.880  51.696  1.00  0.00     0.034 A 
HETATM    3  C10 UNL     1      23.398   3.729  52.560  1.00  0.00     0.013 A 
HETATM    4  C11 UNL     1      23.595   2.551  51.946  1.00  0.00    -0.006 A 
HETATM    5  C19 UNL     1      24.105   2.848  50.564  1.00  0.00     0.107 A 
ENDROOT
BRANCH   4   6
HETATM    6  C12 UNL     1      23.306   1.279  52.663  1.00  0.00     0.157 C 
HETATM    7  O2  UNL     1      22.137   1.225  53.131  1.00  0.00    -0.293 OA
BRANCH   6   8
HETATM    8  C13 UNL     1      24.509   0.445  52.609  1.00  0.00     0.103 C 
BRANCH   8   9
HETATM    9  C14 UNL     1      25.669   0.818  53.448  1.00  0.00     0.124 C 
BRANCH   9  10
HETATM   10  N1  UNL     1      26.960   0.408  53.085  1.00  0.00    -0.408 N 
HETATM   11  C15 UNL     1      27.291  -0.929  52.868  1.00  0.00     0.143 C 
HETATM   12  C16 UNL     1      28.772  -1.151  53.231  1.00  0.00     0.187 C 
HETATM   13  O3  UNL     1      28.992  -0.804  54.546  1.00  0.00    -0.388 OA
HETATM   14  C17 UNL     1      28.720   0.543  54.786  1.00  0.00     0.187 C 
HETATM   15  C18 UNL     1      28.042   1.178  53.589  1.00  0.00     0.143 C 
ENDBRANCH   9  10
ENDBRANCH   8   9
ENDBRANCH   6   8
ENDBRANCH   4   6
BRANCH   1  16
HETATM   16  O1  UNL     1      24.582   4.798  49.366  1.00  0.00    -0.314 OA
BRANCH  16  17
HETATM   17  C7  UNL     1      25.840   5.149  48.984  1.00  0.00     0.081 A 
HETATM   18  C2  UNL     1      25.845   6.451  48.489  1.00  0.00    -0.028 A 
HETATM   19  C1  UNL     1      24.667   7.365  48.377  1.00  0.00     0.051 C 
HETATM   20  C3  UNL     1      27.015   7.060  48.026  1.00  0.00     0.009 A 
HETATM   21  C4  UNL     1      28.204   6.355  48.059  1.00  0.00     0.001 A 
HETATM   22  C5  UNL     1      28.215   5.061  48.547  1.00  0.00     0.003 A 
HETATM   23  C6  UNL     1      27.041   4.479  49.000  1.00  0.00     0.038 A 
ENDBRANCH  16  17
ENDBRANCH   1  16
TORSDOF 6
ENDMDL
MODEL 6
REMARK VINA RESULT:      -7.2      2.700      6.643
REMARK  6 active torsions:
REMARK  status: ('A' for Active; 'I' for Inactive)
REMARK    1  A    between atoms: C7_7  and  O1_8 
REMARK    2  A    between atoms: O1_8  and  C8_9 
REMARK    3  A    between atoms: C11_12  and  C12_13 
REMARK    4  A    between atoms: C12_13  and  C13_15 
REMARK    5  A    between atoms: C13_15  and  C14_16 
REMARK    6  A    between atoms: C14_16  and  N1_17 
ROOT
HETATM    1  C8  UNL     1      26.045   1.788  52.560  1.00  0.00     0.058 A 
HETATM    2  C9  UNL     1      26.237   2.093  51.290  1.00  0.00     0.034 A 
HETATM    3  C10 UNL     1      25.135   3.026  50.972  1.00  0.00     0.013 A 
HETATM    4  C11 UNL     1      24.332   3.250  52.025  1.00  0.00    -0.006 A 
HETATM    5  C19 UNL     1      24.870   2.444  53.175  1.00  0.00     0.107 A 
ENDROOT
BRANCH   4   6
HETATM    6  C12 UNL     1      23.165   4.164  51.893  1.00  0.00     0.157 C 
HETATM    7  O2  UNL     1      23.489   5.343  51.587  1.00  0.00    -0.293 OA
BRANCH   6   8
HETATM    8  C13 UNL     1      21.951   3.392  52.168  1.00  0.00     0.103 C 
BRANCH   8   9
HETATM    9  C14 UNL     1      21.523   2.371  51.187  1.00  0.00     0.124 C 
BRANCH   9  10
HETATM   10  N1  UNL     1      21.053   1.125  51.629  1.00  0.00    -0.408 N 
HETATM   11  C15 UNL     1      19.746   0.930  52.075  1.00  0.00     0.143 C 
HETATM   12  C16 UNL     1      19.732  -0.192  53.130  1.00  0.00     0.187 C 
HETATM   13  O3  UNL     1      20.558   0.139  54.183  1.00  0.00    -0.388 OA
HETATM   14  C17 UNL     1      21.885   0.291  53.779  1.00  0.00     0.187 C 
HETATM   15  C18 UNL     1      21.995   0.275  52.268  1.00  0.00     0.143 C 
ENDBRANCH   9  10
ENDBRANCH   8   9
ENDBRANCH   6   8
ENDBRANCH   4   6
BRANCH   1  16
HETATM   16  O1  UNL     1      26.679   0.994  53.468  1.00  0.00    -0.314 OA
BRANCH  16  17
HETATM   17  C7  UNL     1      27.312  -0.198  53.289  1.00  0.00     0.081 A 
HETATM   18  C2  UNL     1      28.642  -0.099  53.690  1.00  0.00    -0.028 A 
HETATM   19  C1  UNL     1      29.317   1.114  54.243  1.00  0.00     0.051 C 
HETATM   20  C3  UNL     1      29.519  -1.185  53.610  1.00  0.00     0.009 A 
HETATM   21  C4  UNL     1      29.058  -2.394  53.120  1.00  0.00     0.001 A 
HETATM   22  C5  UNL     1      27.739  -2.507  52.717  1.00  0.00     0.003 A 
HETATM   23  C6  UNL     1      26.890  -1.414  52.806  1.00  0.00     0.038 A 
ENDBRANCH  16  17
ENDBRANCH   1  16
TORSDOF 6
ENDMDL
MODEL 7
REMARK VINA RESULT:      -7.2      3.674      6.574
REMARK  6 active torsions:
REMARK  status: ('A' for Active; 'I' for Inactive)
REMARK    1  A    between atoms: C7_7  and  O1_8 
REMARK    2  A    between atoms: O1_8  and  C8_9 
REMARK    3  A    between atoms: C11_12  and  C12_13 
REMARK    4  A    between atoms: C12_13  and  C13_15 
REMARK    5  A    between atoms: C13_15  and  C14_16 
REMARK    6  A    between atoms: C14_16  and  N1_17 
ROOT
HETATM    1  C8  UNL     1      24.279   0.526  52.547  1.00  0.00     0.058 A 
HETATM    2  C9  UNL     1      23.734  -0.058  53.597  1.00  0.00     0.034 A 
HETATM    3  C10 UNL     1      22.307   0.322  53.521  1.00  0.00     0.013 A 
HETATM    4  C11 UNL     1      22.039   1.101  52.460  1.00  0.00    -0.006 A 
HETATM    5  C19 UNL     1      23.331   1.303  51.718  1.00  0.00     0.107 A 
ENDROOT
BRANCH   4   6
HETATM    6  C12 UNL     1      20.652   1.583  52.219  1.00  0.00     0.157 C 
HETATM    7  O2  UNL     1      20.314   2.527  52.982  1.00  0.00    -0.293 OA
BRANCH   6   8
HETATM    8  C13 UNL     1      20.078   0.786  51.133  1.00  0.00     0.103 C 
BRANCH   8   9
HETATM    9  C14 UNL     1      19.489   1.490  49.972  1.00  0.00     0.124 C 
BRANCH   9  10
HETATM   10  N1  UNL     1      20.279   1.777  48.849  1.00  0.00    -0.408 N 
HETATM   11  C15 UNL     1      21.500   1.149  48.610  1.00  0.00     0.143 C 
HETATM   12  C16 UNL     1      22.423   2.112  47.839  1.00  0.00     0.187 C 
HETATM   13  O3  UNL     1      22.608   3.270  48.563  1.00  0.00    -0.388 OA
HETATM   14  C17 UNL     1      21.409   3.951  48.776  1.00  0.00     0.187 C 
HETATM   15  C18 UNL     1      20.225   3.106  48.350  1.00  0.00     0.143 C 
ENDBRANCH   9  10
ENDBRANCH   8   9
ENDBRANCH   6   8
ENDBRANCH   4   6
BRANCH   1  16
HETATM   16  O1  UNL     1      25.536   0.591  52.023  1.00  0.00    -0.314 OA
BRANCH  16  17
HETATM   17  C7  UNL     1      26.718   0.880  52.633  1.00  0.00     0.081 A 
HETATM   18  C2  UNL     1      27.414  -0.294  52.911  1.00  0.00    -0.028 A 
HETATM   19  C1  UNL     1      26.970  -1.687  52.600  1.00  0.00     0.051 C 
HETATM   20  C3  UNL     1      28.664  -0.280  53.537  1.00  0.00     0.009 A 
HETATM   21  C4  UNL     1      29.229   0.931  53.896  1.00  0.00     0.001 A 
HETATM   22  C5  UNL     1      28.549   2.105  53.627  1.00  0.00     0.003 A 
HETATM   23  C6  UNL     1      27.311   2.064  53.004  1.00  0.00     0.038 A 
ENDBRANCH  16  17
ENDBRANCH   1  16
TORSDOF 6
ENDMDL
MODEL 8
REMARK VINA RESULT:      -6.9      2.480      6.311
REMARK  6 active torsions:
REMARK  status: ('A' for Active; 'I' for Inactive)
REMARK    1  A    between atoms: C7_7  and  O1_8 
REMARK    2  A    between atoms: O1_8  and  C8_9 
REMARK    3  A    between atoms: C11_12  and  C12_13 
REMARK    4  A    between atoms: C12_13  and  C13_15 
REMARK    5  A    between atoms: C13_15  and  C14_16 
REMARK    6  A    between atoms: C14_16  and  N1_17 
ROOT
HETATM    1  C8  UNL     1      25.152   1.304  52.689  1.00  0.00     0.058 A 
HETATM    2  C9  UNL     1      25.257   2.551  53.109  1.00  0.00     0.034 A 
HETATM    3  C10 UNL     1      23.887   3.091  52.983  1.00  0.00     0.013 A 
HETATM    4  C11 UNL     1      23.020   2.183  52.505  1.00  0.00    -0.006 A 
HETATM    5  C19 UNL     1      23.788   0.913  52.269  1.00  0.00     0.107 A 
ENDROOT
BRANCH   4   6
HETATM    6  C12 UNL     1      21.590   2.548  52.311  1.00  0.00     0.157 C 
HETATM    7  O2  UNL     1      20.792   1.630  52.643  1.00  0.00    -0.293 OA
BRANCH   6   8
HETATM    8  C13 UNL     1      21.538   3.909  51.773  1.00  0.00     0.103 C 
BRANCH   8   9
HETATM    9  C14 UNL     1      21.479   4.090  50.306  1.00  0.00     0.124 C 
BRANCH   9  10
HETATM   10  N1  UNL     1      22.593   4.589  49.614  1.00  0.00    -0.408 N 
HETATM   11  C15 UNL     1      23.696   3.798  49.295  1.00  0.00     0.143 C 
HETATM   12  C16 UNL     1      24.959   4.680  49.259  1.00  0.00     0.187 C 
HETATM   13  O3  UNL     1      25.141   5.294  50.479  1.00  0.00    -0.388 OA
HETATM   14  C17 UNL     1      24.075   6.135  50.805  1.00  0.00     0.187 C 
HETATM   15  C18 UNL     1      22.926   5.952  49.835  1.00  0.00     0.143 C 
ENDBRANCH   9  10
ENDBRANCH   8   9
ENDBRANCH   6   8
ENDBRANCH   4   6
BRANCH   1  16
HETATM   16  O1  UNL     1      26.015   0.259  52.544  1.00  0.00    -0.314 OA
BRANCH  16  17
HETATM   17  C7  UNL     1      27.312   0.140  52.942  1.00  0.00     0.081 A 
HETATM   18  C2  UNL     1      27.715  -1.190  52.871  1.00  0.00    -0.028 A 
HETATM   19  C1  UNL     1      26.883  -2.350  52.427  1.00  0.00     0.051 C 
HETATM   20  C3  UNL     1      29.007  -1.590  53.225  1.00  0.00     0.009 A 
HETATM   21  C4  UNL     1      29.915  -0.640  53.660  1.00  0.00     0.001 A 
HETATM   22  C5  UNL     1      29.528   0.686  53.737  1.00  0.00     0.003 A 
HETATM   23  C6  UNL     1      28.240   1.056  53.379  1.00  0.00     0.038 A 
ENDBRANCH  16  17
ENDBRANCH   1  16
TORSDOF 6
ENDMDL
MODEL 9
REMARK VINA RESULT:      -6.9      1.443      2.166
REMARK  6 active torsions:
REMARK  status: ('A' for Active; 'I' for Inactive)
REMARK    1  A    between atoms: C7_7  and  O1_8 
REMARK    2  A    between atoms: O1_8  and  C8_9 
REMARK    3  A    between atoms: C11_12  and  C12_13 
REMARK    4  A    between atoms: C12_13  and  C13_15 
REMARK    5  A    between atoms: C13_15  and  C14_16 
REMARK    6  A    between atoms: C14_16  and  N1_17 
ROOT
HETATM    1  C8  UNL     1      23.184   3.186  50.537  1.00  0.00     0.058 A 
HETATM    2  C9  UNL     1      22.324   3.856  51.281  1.00  0.00     0.034 A 
HETATM    3  C10 UNL     1      21.946   2.901  52.345  1.00  0.00     0.013 A 
HETATM    4  C11 UNL     1      22.568   1.718  52.216  1.00  0.00    -0.006 A 
HETATM    5  C19 UNL     1      23.448   1.806  51.000  1.00  0.00     0.107 A 
ENDROOT
BRANCH   4   6
HETATM    6  C12 UNL     1      22.311   0.630  53.198  1.00  0.00     0.157 C 
HETATM    7  O2  UNL     1      21.254   0.798  53.863  1.00  0.00    -0.293 OA
BRANCH   6   8
HETATM    8  C13 UNL     1      23.402  -0.343  53.093  1.00  0.00     0.103 C 
BRANCH   8   9
HETATM    9  C14 UNL     1      24.246  -0.592  54.282  1.00  0.00     0.124 C 
BRANCH   9  10
HETATM   10  N1  UNL     1      25.643  -0.622  54.158  1.00  0.00    -0.408 N 
HETATM   11  C15 UNL     1      26.478   0.254  54.850  1.00  0.00     0.143 C 
HETATM   12  C16 UNL     1      27.749   0.509  54.018  1.00  0.00     0.187 C 
HETATM   13  O3  UNL     1      27.411   1.033  52.788  1.00  0.00    -0.388 OA
HETATM   14  C17 UNL     1      26.616   0.157  52.047  1.00  0.00     0.187 C 
HETATM   15  C18 UNL     1      26.166  -1.014  52.896  1.00  0.00     0.143 C 
ENDBRANCH   9  10
ENDBRANCH   8   9
ENDBRANCH   6   8
ENDBRANCH   4   6
BRANCH   1  16
HETATM   16  O1  UNL     1      23.908   3.461  49.415  1.00  0.00    -0.314 OA
BRANCH  16  17
HETATM   17  C7  UNL     1      24.564   4.600  49.061  1.00  0.00     0.081 A 
HETATM   18  C2  UNL     1      25.939   4.415  49.172  1.00  0.00    -0.028 A 
HETATM   19  C1  UNL     1      26.637   3.166  49.607  1.00  0.00     0.051 C 
HETATM   20  C3  UNL     1      26.848   5.432  48.867  1.00  0.00     0.009 A 
HETATM   21  C4  UNL     1      26.372   6.661  48.443  1.00  0.00     0.001 A 
HETATM   22  C5  UNL     1      25.009   6.860  48.329  1.00  0.00     0.003 A 
HETATM   23  C6  UNL     1      24.128   5.834  48.638  1.00  0.00     0.038 A 
ENDBRANCH  16  17
ENDBRANCH   1  16
TORSDOF 6
ENDMDL
