MODEL 1
REMARK VINA RESULT:      -8.4      0.000      0.000
REMARK  8 active torsions:
REMARK  status: ('A' for Active; 'I' for Inactive)
REMARK    1  A    between atoms: C1_2  and  C2_3 
REMARK    2  A    between atoms: C4_5  and  N2_6 
REMARK    3  A    between atoms: C6_8  and  C7_9 
REMARK    4  A    between atoms: C14_19  and  O1_20 
REMARK    5  A    between atoms: C14_19  and  C15_21 
REMARK    6  A    between atoms: C15_21  and  C16_22 
REMARK    7  A    between atoms: C16_22  and  C17_23 
REMARK    8  A    between atoms: C17_23  and  N4_24 
ROOT
HETATM    1  C2  UNL     1      23.578   3.433  50.156  1.00  0.00    -0.002 C 
HETATM    2  C3  UNL     1      23.520   2.576  51.195  1.00  0.00     0.036 C 
HETATM    3  C4  UNL     1      24.641   3.026  52.023  1.00  0.00     0.237 A 
HETATM    4  C5  UNL     1      25.302   2.011  52.856  1.00  0.00     0.057 A 
HETATM    5  C6  UNL     1      26.550   1.905  52.365  1.00  0.00     0.066 A 
HETATM    6  N3  UNL     1      26.754   2.774  51.242  1.00  0.00    -0.250 NA
HETATM    7  C13 UNL     1      25.662   3.428  51.021  1.00  0.00     0.098 A 
HETATM    8  C14 UNL     1      24.733   4.375  50.320  1.00  0.00     0.130 C 
ENDROOT
BRANCH   8   9
HETATM    9  O1  UNL     1      24.467   5.423  51.159  1.00  0.00    -0.379 OA
HETATM   10  H10 UNL     1      25.058   5.327  51.950  1.00  0.00     0.211 HD
ENDBRANCH   8   9
BRANCH   8  11
HETATM   11  C15 UNL     1      25.297   4.817  49.005  1.00  0.00     0.051 C 
BRANCH  11  12
HETATM   12  C16 UNL     1      26.413   5.801  49.083  1.00  0.00     0.023 C 
BRANCH  12  13
HETATM   13  C17 UNL     1      27.729   5.208  48.561  1.00  0.00     0.117 C 
BRANCH  13  14
HETATM   14  N4  UNL     1      28.669   6.214  48.183  1.00  0.00    -0.408 N 
HETATM   15  C18 UNL     1      30.034   5.834  48.315  1.00  0.00     0.143 C 
HETATM   16  C19 UNL     1      31.029   6.939  48.225  1.00  0.00     0.187 C 
HETATM   17  O2  UNL     1      30.465   8.124  47.748  1.00  0.00    -0.388 OA
HETATM   18  C20 UNL     1      29.490   8.473  48.695  1.00  0.00     0.187 C 
HETATM   19  C21 UNL     1      28.325   7.534  48.582  1.00  0.00     0.143 C 
ENDBRANCH  13  14
ENDBRANCH  12  13
ENDBRANCH  11  12
ENDBRANCH   8  11
BRANCH   1  20
HETATM   20  C1  UNL     1      22.614   3.329  49.085  1.00  0.00     0.117 C 
HETATM   21  N1  UNL     1      22.341   2.220  48.501  1.00  0.00    -0.312 NA
HETATM   22  H1  UNL     1      22.805   1.305  48.769  1.00  0.00     0.186 HD
ENDBRANCH   1  20
BRANCH   3  23
HETATM   23  N2  UNL     1      24.199   4.159  52.845  1.00  0.00     0.101 N 
HETATM   24  H4  UNL     1      24.458   5.051  52.416  1.00  0.00     0.315 HD
HETATM   25  H5  UNL     1      24.534   4.022  53.813  1.00  0.00     0.315 HD
ENDBRANCH   3  23
BRANCH   5  26
HETATM   26  C7  UNL     1      27.612   1.031  52.842  1.00  0.00    -0.006 A 
HETATM   27  C8  UNL     1      28.769   1.469  53.450  1.00  0.00     0.017 A 
HETATM   28  C9  UNL     1      29.777   0.646  53.904  1.00  0.00     0.045 A 
HETATM   29  C10 UNL     1      29.536  -0.704  53.700  1.00  0.00     0.138 A 
HETATM   30  F1  UNL     1      30.482  -1.597  54.120  1.00  0.00    -0.204 F 
HETATM   31  C11 UNL     1      28.410  -1.228  53.103  1.00  0.00     0.073 A 
HETATM   32 CL1  UNL     1      28.225  -2.959  52.903  1.00  0.00    -0.081 Cl
HETATM   33  C12 UNL     1      27.457  -0.326  52.680  1.00  0.00     0.040 A 
ENDBRANCH   5  26
TORSDOF 8
ENDMDL
MODEL 2
REMARK VINA RESULT:      -8.3      4.066      6.944
REMARK  8 active torsions:
REMARK  status: ('A' for Active; 'I' for Inactive)
REMARK    1  A    between atoms: C1_2  and  C2_3 
REMARK    2  A    between atoms: C4_5  and  N2_6 
REMARK    3  A    between atoms: C6_8  and  C7_9 
REMARK    4  A    between atoms: C14_19  and  O1_20 
REMARK    5  A    between atoms: C14_19  and  C15_21 
REMARK    6  A    between atoms: C15_21  and  C16_22 
REMARK    7  A    between atoms: C16_22  and  C17_23 
REMARK    8  A    between atoms: C17_23  and  N4_24 
ROOT
HETATM    1  C2  UNL     1      22.072   3.386  51.359  1.00  0.00    -0.002 C 
HETATM    2  C3  UNL     1      22.165   4.350  50.422  1.00  0.00     0.036 C 
HETATM    3  C4  UNL     1      23.216   3.824  49.549  1.00  0.00     0.237 A 
HETATM    4  C5  UNL     1      24.041   4.808  48.833  1.00  0.00     0.057 A 
HETATM    5  C6  UNL     1      25.281   4.663  49.332  1.00  0.00     0.066 A 
HETATM    6  N3  UNL     1      25.329   3.655  50.352  1.00  0.00    -0.250 NA
HETATM    7  C13 UNL     1      24.145   3.160  50.500  1.00  0.00     0.098 A 
HETATM    8  C14 UNL     1      23.069   2.299  51.092  1.00  0.00     0.130 C 
ENDROOT
BRANCH   8   9
HETATM    9  O1  UNL     1      22.657   1.404  50.143  1.00  0.00    -0.379 OA
HETATM   10  H10 UNL     1      22.478   1.914  49.311  1.00  0.00     0.211 HD
ENDBRANCH   8   9
BRANCH   8  11
HETATM   11  C15 UNL     1      23.535   1.634  52.350  1.00  0.00     0.051 C 
BRANCH  11  12
HETATM   12  C16 UNL     1      24.918   1.079  52.309  1.00  0.00     0.023 C 
BRANCH  12  13
HETATM   13  C17 UNL     1      25.334   0.496  53.666  1.00  0.00     0.117 C 
BRANCH  13  14
HETATM   14  N4  UNL     1      26.580   1.023  54.127  1.00  0.00    -0.408 N 
HETATM   15  C18 UNL     1      27.152   2.017  53.286  1.00  0.00     0.143 C 
HETATM   16  C19 UNL     1      28.574   2.365  53.565  1.00  0.00     0.187 C 
HETATM   17  O2  UNL     1      29.017   1.851  54.786  1.00  0.00    -0.388 OA
HETATM   18  C20 UNL     1      28.912   0.458  54.657  1.00  0.00     0.187 C 
HETATM   19  C21 UNL     1      27.464   0.061  54.686  1.00  0.00     0.143 C 
ENDBRANCH  13  14
ENDBRANCH  12  13
ENDBRANCH  11  12
ENDBRANCH   8  11
BRANCH   1  20
HETATM   20  C1  UNL     1      21.118   3.522  52.436  1.00  0.00     0.117 C 
HETATM   21  N1  UNL     1      19.849   3.457  52.253  1.00  0.00    -0.312 NA
HETATM   22  H1  UNL     1      19.419   3.298  51.298  1.00  0.00     0.186 HD
ENDBRANCH   1  20
BRANCH   3  23
HETATM   23  N2  UNL     1      22.618   2.870  48.606  1.00  0.00     0.101 N 
HETATM   24  H4  UNL     1      22.616   1.922  48.991  1.00  0.00     0.315 HD
HETATM   25  H5  UNL     1      23.078   2.974  47.687  1.00  0.00     0.315 HD
ENDBRANCH   3  23
BRANCH   5  26
HETATM   26  C7  UNL     1      26.475   5.407  48.954  1.00  0.00    -0.006 A 
HETATM   27  C8  UNL     1      27.683   4.830  48.625  1.00  0.00     0.017 A 
HETATM   28  C9  UNL     1      28.814   5.530  48.266  1.00  0.00     0.045 A 
HETATM   29  C10 UNL     1      28.646   6.907  48.257  1.00  0.00     0.138 A 
HETATM   30  F1  UNL     1      29.717   7.683  47.912  1.00  0.00    -0.204 F 
HETATM   31  C11 UNL     1      27.477   7.565  48.571  1.00  0.00     0.073 A 
HETATM   32 CL1  UNL     1      27.393   9.315  48.521  1.00  0.00    -0.081 Cl
HETATM   33  C12 UNL     1      26.399   6.781  48.919  1.00  0.00     0.040 A 
ENDBRANCH   5  26
TORSDOF 8
ENDMDL
MODEL 3
REMARK VINA RESULT:      -8.2      2.950      3.847
REMARK  8 active torsions:
REMARK  status: ('A' for Active; 'I' for Inactive)
REMARK    1  A    between atoms: C1_2  and  C2_3 
REMARK    2  A    between atoms: C4_5  and  N2_6 
REMARK    3  A    between atoms: C6_8  and  C7_9 
REMARK    4  A    between atoms: C14_19  and  O1_20 
REMARK    5  A    between atoms: C14_19  and  C15_21 
REMARK    6  A    between atoms: C15_21  and  C16_22 
REMARK    7  A    between atoms: C16_22  and  C17_23 
REMARK    8  A    between atoms: C17_23  and  N4_24 
ROOT
HETATM    1  C2  UNL     1      24.290   6.400  49.115  1.00  0.00    -0.002 C 
HETATM    2  C3  UNL     1      23.265   6.161  49.955  1.00  0.00     0.036 C 
HETATM    3  C4  UNL     1      23.952   5.607  51.124  1.00  0.00     0.237 A 
HETATM    4  C5  UNL     1      23.198   4.653  51.949  1.00  0.00     0.057 A 
HETATM    5  C6  UNL     1      23.845   3.481  51.821  1.00  0.00     0.066 A 
HETATM    6  N3  UNL     1      24.974   3.592  50.944  1.00  0.00    -0.250 NA
HETATM    7  C13 UNL     1      25.053   4.810  50.522  1.00  0.00     0.098 A 
HETATM    8  C14 UNL     1      25.586   5.972  49.736  1.00  0.00     0.130 C 
ENDROOT
BRANCH   8   9
HETATM    9  O1  UNL     1      26.101   6.889  50.610  1.00  0.00    -0.379 OA
HETATM   10  H10 UNL     1      25.550   7.711  50.536  1.00  0.00     0.211 HD
ENDBRANCH   8   9
BRANCH   8  11
HETATM   11  C15 UNL     1      26.585   5.524  48.714  1.00  0.00     0.051 C 
BRANCH  11  12
HETATM   12  C16 UNL     1      27.606   6.538  48.325  1.00  0.00     0.023 C 
BRANCH  12  13
HETATM   13  C17 UNL     1      29.006   5.919  48.219  1.00  0.00     0.117 C 
BRANCH  13  14
HETATM   14  N4  UNL     1      30.043   6.897  48.315  1.00  0.00    -0.408 N 
HETATM   15  C18 UNL     1      31.229   6.446  48.959  1.00  0.00     0.143 C 
HETATM   16  C19 UNL     1      32.201   7.505  49.348  1.00  0.00     0.187 C 
HETATM   17  O2  UNL     1      31.907   8.738  48.763  1.00  0.00    -0.388 OA
HETATM   18  C20 UNL     1      30.641   9.086  49.260  1.00  0.00     0.187 C 
HETATM   19  C21 UNL     1      29.598   8.210  48.627  1.00  0.00     0.143 C 
ENDBRANCH  13  14
ENDBRANCH  12  13
ENDBRANCH  11  12
ENDBRANCH   8  11
BRANCH   1  20
HETATM   20  C1  UNL     1      24.033   6.968  47.811  1.00  0.00     0.117 C 
HETATM   21  N1  UNL     1      24.376   8.163  47.494  1.00  0.00    -0.312 NA
HETATM   22  H1  UNL     1      24.873   8.811  48.169  1.00  0.00     0.186 HD
ENDBRANCH   1  20
BRANCH   3  23
HETATM   23  N2  UNL     1      24.458   6.713  51.946  1.00  0.00     0.101 N 
HETATM   24  H4  UNL     1      23.963   6.766  52.840  1.00  0.00     0.315 HD
HETATM   25  H5  UNL     1      24.450   7.580  51.384  1.00  0.00     0.315 HD
ENDBRANCH   3  23
BRANCH   5  26
HETATM   26  C7  UNL     1      23.498   2.212  52.444  1.00  0.00    -0.006 A 
HETATM   27  C8  UNL     1      22.210   1.760  52.631  1.00  0.00     0.017 A 
HETATM   28  C9  UNL     1      21.877   0.559  53.219  1.00  0.00     0.045 A 
HETATM   29  C10 UNL     1      22.970  -0.192  53.624  1.00  0.00     0.138 A 
HETATM   30  F1  UNL     1      22.735  -1.401  54.218  1.00  0.00    -0.204 F 
HETATM   31  C11 UNL     1      24.288   0.182  53.477  1.00  0.00     0.073 A 
HETATM   32 CL1  UNL     1      25.582  -0.861  54.031  1.00  0.00    -0.081 Cl
HETATM   33  C12 UNL     1      24.522   1.401  52.878  1.00  0.00     0.040 A 
ENDBRANCH   5  26
TORSDOF 8
ENDMDL
MODEL 4
REMARK VINA RESULT:      -8.2      4.566      8.061
REMARK  8 active torsions:
REMARK  status: ('A' for Active; 'I' for Inactive)
REMARK    1  A    between atoms: C1_2  and  C2_3 
REMARK    2  A    between atoms: C4_5  and  N2_6 
REMARK    3  A    between atoms: C6_8  and  C7_9 
REMARK    4  A    between atoms: C14_19  and  O1_20 
REMARK    5  A    between atoms: C14_19  and  C15_21 
REMARK    6  A    between atoms: C15_21  and  C16_22 
REMARK    7  A    between atoms: C16_22  and  C17_23 
REMARK    8  A    between atoms: C17_23  and  N4_24 
ROOT
HETATM    1  C2  UNL     1      26.461  -0.837  52.682  1.00  0.00    -0.002 C 
HETATM    2  C3  UNL     1      27.299   0.096  52.189  1.00  0.00     0.036 C 
HETATM    3  C4  UNL     1      26.628   1.340  52.574  1.00  0.00     0.237 A 
HETATM    4  C5  UNL     1      26.842   2.507  51.706  1.00  0.00     0.057 A 
HETATM    5  C6  UNL     1      25.638   2.781  51.174  1.00  0.00     0.066 A 
HETATM    6  N3  UNL     1      24.638   1.855  51.619  1.00  0.00    -0.250 NA
HETATM    7  C13 UNL     1      25.187   1.007  52.424  1.00  0.00     0.098 A 
HETATM    8  C14 UNL     1      25.276  -0.186  53.330  1.00  0.00     0.130 C 
ENDROOT
BRANCH   8   9
HETATM    9  O1  UNL     1      25.523   0.252  54.602  1.00  0.00    -0.379 OA
HETATM   10  H10 UNL     1      24.737   0.008  55.158  1.00  0.00     0.211 HD
ENDBRANCH   8   9
BRANCH   8  11
HETATM   11  C15 UNL     1      24.043  -1.030  53.238  1.00  0.00     0.051 C 
BRANCH  11  12
HETATM   12  C16 UNL     1      22.893  -0.582  54.075  1.00  0.00     0.023 C 
BRANCH  12  13
HETATM   13  C17 UNL     1      21.581  -0.578  53.278  1.00  0.00     0.117 C 
BRANCH  13  14
HETATM   14  N4  UNL     1      21.437   0.592  52.472  1.00  0.00    -0.408 N 
HETATM   15  C18 UNL     1      20.592   1.595  53.024  1.00  0.00     0.143 C 
HETATM   16  C19 UNL     1      20.176   2.680  52.092  1.00  0.00     0.187 C 
HETATM   17  O2  UNL     1      20.915   2.676  50.907  1.00  0.00    -0.388 OA
HETATM   18  C20 UNL     1      20.637   1.438  50.308  1.00  0.00     0.187 C 
HETATM   19  C21 UNL     1      21.320   0.345  51.077  1.00  0.00     0.143 C 
ENDBRANCH  13  14
ENDBRANCH  12  13
ENDBRANCH  11  12
ENDBRANCH   8  11
BRANCH   1  20
HETATM   20  C1  UNL     1      26.769  -2.239  52.514  1.00  0.00     0.117 C 
HETATM   21  N1  UNL     1      27.797  -2.793  53.046  1.00  0.00    -0.312 NA
HETATM   22  H1  UNL     1      28.487  -2.257  53.646  1.00  0.00     0.186 HD
ENDBRANCH   1  20
BRANCH   3  23
HETATM   23  N2  UNL     1      26.979   1.660  53.963  1.00  0.00     0.101 N 
HETATM   24  H4  UNL     1      27.885   1.258  54.217  1.00  0.00     0.315 HD
HETATM   25  H5  UNL     1      26.191   1.398  54.577  1.00  0.00     0.315 HD
ENDBRANCH   3  23
BRANCH   5  26
HETATM   26  C7  UNL     1      25.310   3.851  50.242  1.00  0.00    -0.006 A 
HETATM   27  C8  UNL     1      24.032   4.168  49.836  1.00  0.00     0.017 A 
HETATM   28  C9  UNL     1      23.716   5.180  48.955  1.00  0.00     0.045 A 
HETATM   29  C10 UNL     1      24.816   5.885  48.490  1.00  0.00     0.138 A 
HETATM   30  F1  UNL     1      24.599   6.909  47.611  1.00  0.00    -0.204 F 
HETATM   31  C11 UNL     1      26.125   5.636  48.843  1.00  0.00     0.073 A 
HETATM   32 CL1  UNL     1      27.429   6.602  48.183  1.00  0.00    -0.081 Cl
HETATM   33  C12 UNL     1      26.342   4.603  49.729  1.00  0.00     0.040 A 
ENDBRANCH   5  26
TORSDOF 8
ENDMDL
MODEL 5
REMARK VINA RESULT:      -7.9      3.109      6.732
REMARK  8 active torsions:
REMARK  status: ('A' for Active; 'I' for Inactive)
REMARK    1  A    between atoms: C1_2  and  C2_3 
REMARK    2  A    between atoms: C4_5  and  N2_6 
REMARK    3  A    between atoms: C6_8  and  C7_9 
REMARK    4  A    between atoms: C14_19  and  O1_20 
REMARK    5  A    between atoms: C14_19  and  C15_21 
REMARK    6  A    between atoms: C15_21  and  C16_22 
REMARK    7  A    between atoms: C16_22  and  C17_23 
REMARK    8  A    between atoms: C17_23  and  N4_24 
ROOT
HETATM    1  C2  UNL     1      24.020   5.561  50.618  1.00  0.00    -0.002 C 
HETATM    2  C3  UNL     1      25.251   5.185  50.215  1.00  0.00     0.036 C 
HETATM    3  C4  UNL     1      25.162   3.725  50.287  1.00  0.00     0.237 A 
HETATM    4  C5  UNL     1      26.408   2.996  50.562  1.00  0.00     0.057 A 
HETATM    5  C6  UNL     1      26.226   2.420  51.763  1.00  0.00     0.066 A 
HETATM    6  N3  UNL     1      24.942   2.738  52.315  1.00  0.00    -0.250 NA
HETATM    7  C13 UNL     1      24.310   3.498  51.484  1.00  0.00     0.098 A 
HETATM    8  C14 UNL     1      23.196   4.358  50.966  1.00  0.00     0.130 C 
ENDROOT
BRANCH   8   9
HETATM    9  O1  UNL     1      22.641   3.744  49.877  1.00  0.00    -0.379 OA
HETATM   10  H10 UNL     1      22.229   4.450  49.315  1.00  0.00     0.211 HD
ENDBRANCH   8   9
BRANCH   8  11
HETATM   11  C15 UNL     1      22.191   4.650  52.038  1.00  0.00     0.051 C 
BRANCH  11  12
HETATM   12  C16 UNL     1      20.855   4.014  51.858  1.00  0.00     0.023 C 
BRANCH  12  13
HETATM   13  C17 UNL     1      20.712   2.746  52.712  1.00  0.00     0.117 C 
BRANCH  13  14
HETATM   14  N4  UNL     1      19.934   1.738  52.065  1.00  0.00    -0.408 N 
HETATM   15  C18 UNL     1      18.670   2.179  51.583  1.00  0.00     0.143 C 
HETATM   16  C19 UNL     1      17.716   1.107  51.183  1.00  0.00     0.187 C 
HETATM   17  O2  UNL     1      18.330  -0.144  51.089  1.00  0.00    -0.388 OA
HETATM   18  C20 UNL     1      18.800  -0.419  52.383  1.00  0.00     0.187 C 
HETATM   19  C21 UNL     1      19.979   0.460  52.684  1.00  0.00     0.143 C 
ENDBRANCH  13  14
ENDBRANCH  12  13
ENDBRANCH  11  12
ENDBRANCH   8  11
BRANCH   1  20
HETATM   20  C1  UNL     1      23.685   6.964  50.686  1.00  0.00     0.117 C 
HETATM   21  N1  UNL     1      24.154   7.749  51.587  1.00  0.00    -0.312 NA
HETATM   22  H1  UNL     1      24.822   7.416  52.339  1.00  0.00     0.186 HD
ENDBRANCH   1  20
BRANCH   3  23
HETATM   23  N2  UNL     1      24.532   3.226  49.059  1.00  0.00     0.101 N 
HETATM   24  H4  UNL     1      24.061   2.332  49.222  1.00  0.00     0.315 HD
HETATM   25  H5  UNL     1      25.232   3.225  48.300  1.00  0.00     0.315 HD
ENDBRANCH   3  23
BRANCH   5  26
HETATM   26  C7  UNL     1      27.170   1.582  52.489  1.00  0.00    -0.006 A 
HETATM   27  C8  UNL     1      28.151   2.059  53.332  1.00  0.00     0.017 A 
HETATM   28  C9  UNL     1      29.046   1.270  54.021  1.00  0.00     0.045 A 
HETATM   29  C10 UNL     1      28.884  -0.089  53.801  1.00  0.00     0.138 A 
HETATM   30  F1  UNL     1      29.728  -0.950  54.445  1.00  0.00    -0.204 F 
HETATM   31  C11 UNL     1      27.933  -0.652  52.978  1.00  0.00     0.073 A 
HETATM   32 CL1  UNL     1      27.832  -2.390  52.784  1.00  0.00    -0.081 Cl
HETATM   33  C12 UNL     1      27.083   0.218  52.329  1.00  0.00     0.040 A 
ENDBRANCH   5  26
TORSDOF 8
ENDMDL
MODEL 6
REMARK VINA RESULT:      -7.8      2.960      4.148
REMARK  8 active torsions:
REMARK  status: ('A' for Active; 'I' for Inactive)
REMARK    1  A    between atoms: C1_2  and  C2_3 
REMARK    2  A    between atoms: C4_5  and  N2_6 
REMARK    3  A    between atoms: C6_8  and  C7_9 
REMARK    4  A    between atoms: C14_19  and  O1_20 
REMARK    5  A    between atoms: C14_19  and  C15_21 
REMARK    6  A    between atoms: C15_21  and  C16_22 
REMARK    7  A    between atoms: C16_22  and  C17_23 
REMARK    8  A    between atoms: C17_23  and  N4_24 
ROOT
HETATM    1  C2  UNL     1      20.677   1.400  50.803  1.00  0.00    -0.002 C 
HETATM    2  C3  UNL     1      21.163   0.253  51.319  1.00  0.00     0.036 C 
HETATM    3  C4  UNL     1      21.943   0.740  52.459  1.00  0.00     0.237 A 
HETATM    4  C5  UNL     1      23.104  -0.066  52.862  1.00  0.00     0.057 A 
HETATM    5  C6  UNL     1      24.177   0.709  52.625  1.00  0.00     0.066 A 
HETATM    6  N3  UNL     1      23.802   1.976  52.068  1.00  0.00    -0.250 NA
HETATM    7  C13 UNL     1      22.516   2.016  51.955  1.00  0.00     0.098 A 
HETATM    8  C14 UNL     1      21.175   2.577  51.586  1.00  0.00     0.130 C 
ENDROOT
BRANCH   8   9
HETATM    9  O1  UNL     1      20.468   2.806  52.735  1.00  0.00    -0.379 OA
HETATM   10  H10 UNL     1      20.176   3.754  52.720  1.00  0.00     0.211 HD
ENDBRANCH   8   9
BRANCH   8  11
HETATM   11  C15 UNL     1      21.314   3.805  50.739  1.00  0.00     0.051 C 
BRANCH  11  12
HETATM   12  C16 UNL     1      21.433   5.090  51.485  1.00  0.00     0.023 C 
BRANCH  12  13
HETATM   13  C17 UNL     1      22.879   5.356  51.925  1.00  0.00     0.117 C 
BRANCH  13  14
HETATM   14  N4  UNL     1      23.690   5.857  50.860  1.00  0.00    -0.408 N 
HETATM   15  C18 UNL     1      24.721   4.975  50.433  1.00  0.00     0.143 C 
HETATM   16  C19 UNL     1      25.763   5.573  49.551  1.00  0.00     0.187 C 
HETATM   17  O2  UNL     1      25.394   6.831  49.069  1.00  0.00    -0.388 OA
HETATM   18  C20 UNL     1      25.258   7.634  50.211  1.00  0.00     0.187 C 
HETATM   19  C21 UNL     1      24.017   7.236  50.957  1.00  0.00     0.143 C 
ENDBRANCH  13  14
ENDBRANCH  12  13
ENDBRANCH  11  12
ENDBRANCH   8  11
BRANCH   1  20
HETATM   20  C1  UNL     1      19.828   1.357  49.635  1.00  0.00     0.117 C 
HETATM   21  N1  UNL     1      18.633   0.889  49.660  1.00  0.00    -0.312 NA
HETATM   22  H1  UNL     1      18.192   0.503  50.543  1.00  0.00     0.186 HD
ENDBRANCH   1  20
BRANCH   3  23
HETATM   23  N2  UNL     1      21.042   0.951  53.598  1.00  0.00     0.101 N 
HETATM   24  H4  UNL     1      21.281   0.335  54.378  1.00  0.00     0.315 HD
HETATM   25  H5  UNL     1      20.065   0.888  53.268  1.00  0.00     0.315 HD
ENDBRANCH   3  23
BRANCH   5  26
HETATM   26  C7  UNL     1      25.575   0.373  52.856  1.00  0.00    -0.006 A 
HETATM   27  C8  UNL     1      26.098  -0.898  52.760  1.00  0.00     0.017 A 
HETATM   28  C9  UNL     1      27.420  -1.220  52.978  1.00  0.00     0.045 A 
HETATM   29  C10 UNL     1      28.217  -0.135  53.311  1.00  0.00     0.138 A 
HETATM   30  F1  UNL     1      29.545  -0.360  53.545  1.00  0.00    -0.204 F 
HETATM   31  C11 UNL     1      27.778   1.165  53.429  1.00  0.00     0.073 A 
HETATM   32 CL1  UNL     1      28.889   2.450  53.858  1.00  0.00    -0.081 Cl
HETATM   33  C12 UNL     1      26.439   1.390  53.194  1.00  0.00     0.040 A 
ENDBRANCH   5  26
TORSDOF 8
ENDMDL
MODEL 7
REMARK VINA RESULT:      -7.7      4.849      8.238
REMARK  8 active torsions:
REMARK  status: ('A' for Active; 'I' for Inactive)
REMARK    1  A    between atoms: C1_2  and  C2_3 
REMARK    2  A    between atoms: C4_5  and  N2_6 
REMARK    3  A    between atoms: C6_8  and  C7_9 
REMARK    4  A    between atoms: C14_19  and  O1_20 
REMARK    5  A    between atoms: C14_19  and  C15_21 
REMARK    6  A    between atoms: C15_21  and  C16_22 
REMARK    7  A    between atoms: C16_22  and  C17_23 
REMARK    8  A    between atoms: C17_23  and  N4_24 
ROOT
HETATM    1  C2  UNL     1      26.755  -0.238  52.782  1.00  0.00    -0.002 C 
HETATM    2  C3  UNL     1      27.307   0.640  51.921  1.00  0.00     0.036 C 
HETATM    3  C4  UNL     1      26.552   1.862  52.208  1.00  0.00     0.237 A 
HETATM    4  C5  UNL     1      26.385   2.814  51.101  1.00  0.00     0.057 A 
HETATM    5  C6  UNL     1      25.066   2.832  50.843  1.00  0.00     0.066 A 
HETATM    6  N3  UNL     1      24.345   1.934  51.697  1.00  0.00    -0.250 NA
HETATM    7  C13 UNL     1      25.184   1.355  52.491  1.00  0.00     0.098 A 
HETATM    8  C14 UNL     1      25.656   0.417  53.563  1.00  0.00     0.130 C 
ENDROOT
BRANCH   8   9
HETATM    9  O1  UNL     1      26.105   1.158  54.621  1.00  0.00    -0.379 OA
HETATM   10  H10 UNL     1      25.728   0.756  55.446  1.00  0.00     0.211 HD
ENDBRANCH   8   9
BRANCH   8  11
HETATM   11  C15 UNL     1      24.579  -0.550  53.950  1.00  0.00     0.051 C 
BRANCH  11  12
HETATM   12  C16 UNL     1      23.196   0.003  53.973  1.00  0.00     0.023 C 
BRANCH  12  13
HETATM   13  C17 UNL     1      22.241  -0.822  53.099  1.00  0.00     0.117 C 
BRANCH  13  14
HETATM   14  N4  UNL     1      21.194  -0.030  52.537  1.00  0.00    -0.408 N 
HETATM   15  C18 UNL     1      21.298   0.185  51.135  1.00  0.00     0.143 C 
HETATM   16  C19 UNL     1      20.412   1.242  50.571  1.00  0.00     0.187 C 
HETATM   17  O2  UNL     1      19.428   1.649  51.476  1.00  0.00    -0.388 OA
HETATM   18  C20 UNL     1      20.132   2.186  52.565  1.00  0.00     0.187 C 
HETATM   19  C21 UNL     1      20.788   1.075  53.332  1.00  0.00     0.143 C 
ENDBRANCH  13  14
ENDBRANCH  12  13
ENDBRANCH  11  12
ENDBRANCH   8  11
BRANCH   1  20
HETATM   20  C1  UNL     1      27.233  -1.601  52.823  1.00  0.00     0.117 C 
HETATM   21  N1  UNL     1      26.857  -2.496  51.983  1.00  0.00    -0.312 NA
HETATM   22  H1  UNL     1      26.170  -2.291  51.202  1.00  0.00     0.186 HD
ENDBRANCH   1  20
BRANCH   3  23
HETATM   23  N2  UNL     1      27.147   2.526  53.374  1.00  0.00     0.101 N 
HETATM   24  H4  UNL     1      26.945   2.011  54.235  1.00  0.00     0.315 HD
HETATM   25  H5  UNL     1      26.863   3.519  53.375  1.00  0.00     0.315 HD
ENDBRANCH   3  23
BRANCH   5  26
HETATM   26  C7  UNL     1      24.378   3.620  49.830  1.00  0.00    -0.006 A 
HETATM   27  C8  UNL     1      24.708   4.915  49.490  1.00  0.00     0.017 A 
HETATM   28  C9  UNL     1      24.061   5.664  48.532  1.00  0.00     0.045 A 
HETATM   29  C10 UNL     1      23.015   4.999  47.908  1.00  0.00     0.138 A 
HETATM   30  F1  UNL     1      22.315   5.666  46.942  1.00  0.00    -0.204 F 
HETATM   31  C11 UNL     1      22.618   3.710  48.185  1.00  0.00     0.073 A 
HETATM   32 CL1  UNL     1      21.278   2.981  47.323  1.00  0.00    -0.081 Cl
HETATM   33  C12 UNL     1      23.325   3.040  49.159  1.00  0.00     0.040 A 
ENDBRANCH   5  26
TORSDOF 8
ENDMDL
MODEL 8
REMARK VINA RESULT:      -7.6      1.923      2.552
REMARK  8 active torsions:
REMARK  status: ('A' for Active; 'I' for Inactive)
REMARK    1  A    between atoms: C1_2  and  C2_3 
REMARK    2  A    between atoms: C4_5  and  N2_6 
REMARK    3  A    between atoms: C6_8  and  C7_9 
REMARK    4  A    between atoms: C14_19  and  O1_20 
REMARK    5  A    between atoms: C14_19  and  C15_21 
REMARK    6  A    between atoms: C15_21  and  C16_22 
REMARK    7  A    between atoms: C16_22  and  C17_23 
REMARK    8  A    between atoms: C17_23  and  N4_24 
ROOT
HETATM    1  C2  UNL     1      22.342   2.365  49.463  1.00  0.00    -0.002 C 
HETATM    2  C3  UNL     1      22.388   1.376  50.376  1.00  0.00     0.036 C 
HETATM    3  C4  UNL     1      23.204   1.976  51.434  1.00  0.00     0.237 A 
HETATM    4  C5  UNL     1      24.006   1.060  52.257  1.00  0.00     0.057 A 
HETATM    5  C6  UNL     1      25.287   1.366  51.987  1.00  0.00     0.066 A 
HETATM    6  N3  UNL     1      25.388   2.419  51.018  1.00  0.00    -0.250 NA
HETATM    7  C13 UNL     1      24.196   2.784  50.677  1.00  0.00     0.098 A 
HETATM    8  C14 UNL     1      23.142   3.544  49.928  1.00  0.00     0.130 C 
ENDROOT
BRANCH   8   9
HETATM    9  O1  UNL     1      22.471   4.343  50.814  1.00  0.00    -0.379 OA
HETATM   10  H10 UNL     1      22.990   5.183  50.908  1.00  0.00     0.211 HD
ENDBRANCH   8   9
BRANCH   8  11
HETATM   11  C15 UNL     1      23.734   4.315  48.789  1.00  0.00     0.051 C 
BRANCH  11  12
HETATM   12  C16 UNL     1      24.073   5.737  49.082  1.00  0.00     0.023 C 
BRANCH  12  13
HETATM   13  C17 UNL     1      25.532   5.889  49.532  1.00  0.00     0.117 C 
BRANCH  13  14
HETATM   14  N4  UNL     1      26.226   6.901  48.801  1.00  0.00    -0.408 N 
HETATM   15  C18 UNL     1      25.463   7.520  47.772  1.00  0.00     0.143 C 
HETATM   16  C19 UNL     1      26.232   8.349  46.801  1.00  0.00     0.187 C 
HETATM   17  O2  UNL     1      27.536   8.600  47.233  1.00  0.00    -0.388 OA
HETATM   18  C20 UNL     1      28.141   7.337  47.324  1.00  0.00     0.187 C 
HETATM   19  C21 UNL     1      27.584   6.600  48.507  1.00  0.00     0.143 C 
ENDBRANCH  13  14
ENDBRANCH  12  13
ENDBRANCH  11  12
ENDBRANCH   8  11
BRANCH   1  20
HETATM   20  C1  UNL     1      21.609   2.172  48.232  1.00  0.00     0.117 C 
HETATM   21  N1  UNL     1      20.349   1.930  48.204  1.00  0.00    -0.312 NA
HETATM   22  H1  UNL     1      19.763   1.856  49.085  1.00  0.00     0.186 HD
ENDBRANCH   1  20
BRANCH   3  23
HETATM   23  N2  UNL     1      22.344   2.812  52.281  1.00  0.00     0.101 N 
HETATM   24  H4  UNL     1      21.743   2.238  52.878  1.00  0.00     0.315 HD
HETATM   25  H5  UNL     1      21.852   3.498  51.686  1.00  0.00     0.315 HD
ENDBRANCH   3  23
BRANCH   5  26
HETATM   26  C7  UNL     1      26.478   0.745  52.548  1.00  0.00    -0.006 A 
HETATM   27  C8  UNL     1      26.784  -0.595  52.440  1.00  0.00     0.017 A 
HETATM   28  C9  UNL     1      27.910  -1.187  52.969  1.00  0.00     0.045 A 
HETATM   29  C10 UNL     1      28.746  -0.308  53.641  1.00  0.00     0.138 A 
HETATM   30  F1  UNL     1      29.890  -0.808  54.199  1.00  0.00    -0.204 F 
HETATM   31  C11 UNL     1      28.518   1.041  53.797  1.00  0.00     0.073 A 
HETATM   32 CL1  UNL     1      29.656   2.047  54.670  1.00  0.00    -0.081 Cl
HETATM   33  C12 UNL     1      27.365   1.543  53.234  1.00  0.00     0.040 A 
ENDBRANCH   5  26
TORSDOF 8
ENDMDL
MODEL 9
REMARK VINA RESULT:      -6.9      5.146      8.666
REMARK  8 active torsions:
REMARK  status: ('A' for Active; 'I' for Inactive)
REMARK    1  A    between atoms: C1_2  and  C2_3 
REMARK    2  A    between atoms: C4_5  and  N2_6 
REMARK    3  A    between atoms: C6_8  and  C7_9 
REMARK    4  A    between atoms: C14_19  and  O1_20 
REMARK    5  A    between atoms: C14_19  and  C15_21 
REMARK    6  A    between atoms: C15_21  and  C16_22 
REMARK    7  A    between atoms: C16_22  and  C17_23 
REMARK    8  A    between atoms: C17_23  and  N4_24 
ROOT
HETATM    1  C2  UNL     1      24.459   4.520  50.111  1.00  0.00    -0.002 C 
HETATM    2  C3  UNL     1      23.440   5.252  49.618  1.00  0.00     0.036 C 
HETATM    3  C4  UNL     1      22.446   5.149  50.689  1.00  0.00     0.237 A 
HETATM    4  C5  UNL     1      21.033   5.234  50.295  1.00  0.00     0.057 A 
HETATM    5  C6  UNL     1      20.512   4.027  50.577  1.00  0.00     0.066 A 
HETATM    6  N3  UNL     1      21.497   3.136  51.116  1.00  0.00    -0.250 NA
HETATM    7  C13 UNL     1      22.627   3.760  51.185  1.00  0.00     0.098 A 
HETATM    8  C14 UNL     1      24.092   3.947  51.446  1.00  0.00     0.130 C 
ENDROOT
BRANCH   8   9
HETATM    9  O1  UNL     1      24.240   4.831  52.479  1.00  0.00    -0.379 OA
HETATM   10  H10 UNL     1      23.656   4.523  53.220  1.00  0.00     0.211 HD
ENDBRANCH   8   9
BRANCH   8  11
HETATM   11  C15 UNL     1      24.769   2.636  51.707  1.00  0.00     0.051 C 
BRANCH  11  12
HETATM   12  C16 UNL     1      24.539   2.051  53.058  1.00  0.00     0.023 C 
BRANCH  12  13
HETATM   13  C17 UNL     1      24.556   0.517  53.022  1.00  0.00     0.117 C 
BRANCH  13  14
HETATM   14  N4  UNL     1      25.755  -0.028  53.576  1.00  0.00    -0.408 N 
HETATM   15  C18 UNL     1      26.550   0.902  54.303  1.00  0.00     0.143 C 
HETATM   16  C19 UNL     1      27.934   0.457  54.630  1.00  0.00     0.187 C 
HETATM   17  O2  UNL     1      28.121  -0.909  54.407  1.00  0.00    -0.388 OA
HETATM   18  C20 UNL     1      27.904  -1.088  53.032  1.00  0.00     0.187 C 
HETATM   19  C21 UNL     1      26.439  -0.944  52.734  1.00  0.00     0.143 C 
ENDBRANCH  13  14
ENDBRANCH  12  13
ENDBRANCH  11  12
ENDBRANCH   8  11
BRANCH   1  20
HETATM   20  C1  UNL     1      25.672   4.368  49.340  1.00  0.00     0.117 C 
HETATM   21  N1  UNL     1      26.719   5.081  49.544  1.00  0.00    -0.312 NA
HETATM   22  H1  UNL     1      26.762   5.828  50.295  1.00  0.00     0.186 HD
ENDBRANCH   1  20
BRANCH   3  23
HETATM   23  N2  UNL     1      22.754   6.147  51.721  1.00  0.00     0.101 N 
HETATM   24  H4  UNL     1      23.250   6.949  51.324  1.00  0.00     0.315 HD
HETATM   25  H5  UNL     1      23.231   5.679  52.508  1.00  0.00     0.315 HD
ENDBRANCH   3  23
BRANCH   5  26
HETATM   26  C7  UNL     1      19.137   3.592  50.373  1.00  0.00    -0.006 A 
HETATM   27  C8  UNL     1      18.687   2.925  49.254  1.00  0.00     0.017 A 
HETATM   28  C9  UNL     1      17.387   2.511  49.057  1.00  0.00     0.045 A 
HETATM   29  C10 UNL     1      16.532   2.823  50.103  1.00  0.00     0.138 A 
HETATM   30  F1  UNL     1      15.221   2.450  49.996  1.00  0.00    -0.204 F 
HETATM   31  C11 UNL     1      16.896   3.485  51.255  1.00  0.00     0.073 A 
HETATM   32 CL1  UNL     1      15.717   3.820  52.507  1.00  0.00    -0.081 Cl
HETATM   33  C12 UNL     1      18.218   3.861  51.362  1.00  0.00     0.040 A 
ENDBRANCH   5  26
TORSDOF 8
ENDMDL
