MODEL 1
REMARK VINA RESULT:      -8.5      0.000      0.000
REMARK  1 active torsions:
REMARK  status: ('A' for Active; 'I' for Inactive)
REMARK    1  A    between atoms: O1_2  and  C2_3 
ROOT
HETATM    1  C2  UNL     1      25.751   4.677  49.322  1.00  0.00     0.074 C 
HETATM    2  C3  UNL     1      26.496   3.620  49.738  1.00  0.00     0.037 C 
HETATM    3  C4  UNL     1      26.393   2.642  50.824  1.00  0.00    -0.001 C 
HETATM    4  C5  UNL     1      25.787   2.167  51.931  1.00  0.00    -0.025 C 
HETATM    5  C6  UNL     1      24.660   2.567  52.755  1.00  0.00     0.052 C 
HETATM    6  C7  UNL     1      23.395   1.927  52.895  1.00  0.00     0.087 C 
HETATM    7  C8  UNL     1      23.300   0.409  52.814  1.00  0.00     0.043 C 
HETATM    8  C9  UNL     1      21.754   0.316  52.560  1.00  0.00     0.027 A 
HETATM    9  C10 UNL     1      20.710   0.308  51.668  1.00  0.00     0.036 A 
HETATM   10  C11 UNL     1      20.379   1.572  51.027  1.00  0.00     0.044 A 
HETATM   11  O2  UNL     1      20.697   0.527  51.618  1.00  0.00     0.000 OA
HETATM   12  C12 UNL     1      20.540   1.295  53.011  1.00  0.00     0.101 A 
HETATM   13  C13 UNL     1      20.894   0.347  53.817  1.00  0.00     0.000 A 
HETATM   14  O3  UNL     1      20.114   2.690  52.904  1.00  0.00    -0.349 OA
HETATM   15  C14 UNL     1      20.927   2.897  51.616  1.00  0.00     0.233 C 
HETATM   16  N1  UNL     1      22.269   2.569  52.080  1.00  0.00    -0.369 N 
HETATM   17  C15 UNL     1      22.985   3.432  51.131  1.00  0.00     0.062 A 
HETATM   18  C16 UNL     1      23.212   2.339  50.351  1.00  0.00     0.037 A 
HETATM   19  C17 UNL     1      24.062   3.369  50.069  1.00  0.00     0.061 A 
HETATM   20  C18 UNL     1      24.574   4.662  50.243  1.00  0.00    -0.018 A 
HETATM   21  C19 UNL     1      24.091   5.570  51.156  1.00  0.00     0.009 A 
HETATM   22  C20 UNL     1      23.120   4.680  51.636  1.00  0.00     0.006 A 
ENDROOT
BRANCH   1  23
HETATM   23  O1  UNL     1      25.292   5.769  48.628  1.00  0.00    -0.355 OA
HETATM   24  C1  UNL     1      26.161   6.858  48.289  1.00  0.00     0.210 C 
ENDBRANCH   1  23
TORSDOF 1
ENDMDL
MODEL 2
REMARK VINA RESULT:      -8.4      2.638      4.552
REMARK  1 active torsions:
REMARK  status: ('A' for Active; 'I' for Inactive)
REMARK    1  A    between atoms: O1_2  and  C2_3 
ROOT
HETATM    1  C2  UNL     1      22.019   5.271  51.555  1.00  0.00     0.074 C 
HETATM    2  C3  UNL     1      21.136   4.400  52.109  1.00  0.00     0.037 C 
HETATM    3  C4  UNL     1      21.108   2.953  52.331  1.00  0.00    -0.001 C 
HETATM    4  C5  UNL     1      21.649   1.725  52.188  1.00  0.00    -0.025 C 
HETATM    5  C6  UNL     1      22.828   1.175  51.540  1.00  0.00     0.052 C 
HETATM    6  C7  UNL     1      23.991   0.618  52.146  1.00  0.00     0.087 C 
HETATM    7  C8  UNL     1      23.871  -0.149  53.455  1.00  0.00     0.043 C 
HETATM    8  C9  UNL     1      25.387  -0.099  53.859  1.00  0.00     0.027 A 
HETATM    9  C10 UNL     1      26.413   0.567  54.483  1.00  0.00     0.036 A 
HETATM   10  C11 UNL     1      26.913   1.769  53.832  1.00  0.00     0.044 A 
HETATM   11  O2  UNL     1      26.456   0.728  54.332  1.00  0.00     0.000 OA
HETATM   12  C12 UNL     1      26.729  -0.027  52.950  1.00  0.00     0.101 A 
HETATM   13  C13 UNL     1      26.251  -1.192  53.246  1.00  0.00     0.000 A 
HETATM   14  O3  UNL     1      27.346   0.793  51.908  1.00  0.00    -0.349 OA
HETATM   15  C14 UNL     1      26.561   2.039  52.347  1.00  0.00     0.233 C 
HETATM   16  N1  UNL     1      25.190   1.568  52.200  1.00  0.00    -0.369 N 
HETATM   17  C15 UNL     1      24.596   2.883  51.923  1.00  0.00     0.062 A 
HETATM   18  C16 UNL     1      24.212   2.954  53.228  1.00  0.00     0.037 A 
HETATM   19  C17 UNL     1      23.513   3.812  52.429  1.00  0.00     0.061 A 
HETATM   20  C18 UNL     1      23.189   4.410  51.202  1.00  0.00    -0.018 A 
HETATM   21  C19 UNL     1      23.801   4.108  50.008  1.00  0.00     0.009 A 
HETATM   22  C20 UNL     1      24.641   3.153  50.598  1.00  0.00     0.006 A 
ENDROOT
BRANCH   1  23
HETATM   23  O1  UNL     1      22.623   6.413  51.090  1.00  0.00    -0.355 OA
HETATM   24  C1  UNL     1      21.907   7.362  50.288  1.00  0.00     0.210 C 
ENDBRANCH   1  23
TORSDOF 1
ENDMDL
MODEL 3
REMARK VINA RESULT:      -8.1      2.794      5.275
REMARK  1 active torsions:
REMARK  status: ('A' for Active; 'I' for Inactive)
REMARK    1  A    between atoms: O1_2  and  C2_3 
ROOT
HETATM    1  C2  UNL     1      21.464   2.301  50.547  1.00  0.00     0.074 C 
HETATM    2  C3  UNL     1      22.257   3.396  50.420  1.00  0.00     0.037 C 
HETATM    3  C4  UNL     1      23.395   3.944  51.161  1.00  0.00    -0.001 C 
HETATM    4  C5  UNL     1      24.250   3.913  52.205  1.00  0.00    -0.025 C 
HETATM    5  C6  UNL     1      24.425   3.083  53.384  1.00  0.00     0.052 C 
HETATM    6  C7  UNL     1      25.477   2.165  53.671  1.00  0.00     0.087 C 
HETATM    7  C8  UNL     1      26.890   2.455  53.184  1.00  0.00     0.043 C 
HETATM    8  C9  UNL     1      27.461   1.002  53.345  1.00  0.00     0.027 A 
HETATM    9  C10 UNL     1      27.661  -0.247  52.808  1.00  0.00     0.036 A 
HETATM   10  C11 UNL     1      26.492  -1.103  52.676  1.00  0.00     0.044 A 
HETATM   11  O2  UNL     1      27.455  -0.334  52.829  1.00  0.00     0.000 OA
HETATM   12  C12 UNL     1      27.064  -0.190  54.372  1.00  0.00     0.101 A 
HETATM   13  C13 UNL     1      27.965   0.662  54.741  1.00  0.00     0.000 A 
HETATM   14  O3  UNL     1      25.908  -0.981  54.794  1.00  0.00    -0.349 OA
HETATM   15  C14 UNL     1      25.195  -0.756  53.450  1.00  0.00     0.233 C 
HETATM   16  N1  UNL     1      25.122   0.698  53.416  1.00  0.00    -0.369 N 
HETATM   17  C15 UNL     1      23.903   0.780  52.600  1.00  0.00     0.062 A 
HETATM   18  C16 UNL     1      24.683   1.001  51.506  1.00  0.00     0.037 A 
HETATM   19  C17 UNL     1      23.390   1.392  51.314  1.00  0.00     0.061 A 
HETATM   20  C18 UNL     1      22.056   1.570  51.709  1.00  0.00    -0.018 A 
HETATM   21  C19 UNL     1      21.559   1.215  52.941  1.00  0.00     0.009 A 
HETATM   22  C20 UNL     1      22.803   0.747  53.388  1.00  0.00     0.006 A 
ENDROOT
BRANCH   1  23
HETATM   23  O1  UNL     1      20.487   1.355  50.352  1.00  0.00    -0.355 OA
HETATM   24  C1  UNL     1      19.205   1.707  49.815  1.00  0.00     0.210 C 
ENDBRANCH   1  23
TORSDOF 1
ENDMDL
MODEL 4
REMARK VINA RESULT:      -7.8      2.120      2.903
REMARK  1 active torsions:
REMARK  status: ('A' for Active; 'I' for Inactive)
REMARK    1  A    between atoms: O1_2  and  C2_3 
ROOT
HETATM    1  C2  UNL     1      22.158   3.913  49.044  1.00  0.00     0.074 C 
HETATM    2  C3  UNL     1      23.431   3.443  48.988  1.00  0.00     0.037 C 
HETATM    3  C4  UNL     1      24.349   2.820  49.944  1.00  0.00    -0.001 C 
HETATM    4  C5  UNL     1      24.652   2.405  51.192  1.00  0.00    -0.025 C 
HETATM    5  C6  UNL     1      23.998   2.438  52.489  1.00  0.00     0.052 C 
HETATM    6  C7  UNL     1      23.467   1.350  53.239  1.00  0.00     0.087 C 
HETATM    7  C8  UNL     1      24.138  -0.015  53.176  1.00  0.00     0.043 C 
HETATM    8  C9  UNL     1      22.943  -0.855  53.748  1.00  0.00     0.027 A 
HETATM    9  C10 UNL     1      21.781  -1.551  53.518  1.00  0.00     0.036 A 
HETATM   10  C11 UNL     1      20.602  -0.770  53.174  1.00  0.00     0.044 A 
HETATM   11  O2  UNL     1      21.636  -1.381  53.488  1.00  0.00     0.000 OA
HETATM   12  C12 UNL     1      21.761  -0.456  54.785  1.00  0.00     0.101 A 
HETATM   13  C13 UNL     1      22.870  -0.914  55.268  1.00  0.00     0.000 A 
HETATM   14  O3  UNL     1      20.687   0.523  54.952  1.00  0.00    -0.349 OA
HETATM   15  C14 UNL     1      20.590   0.758  53.435  1.00  0.00     0.233 C 
HETATM   16  N1  UNL     1      21.947   1.195  53.136  1.00  0.00    -0.369 N 
HETATM   17  C15 UNL     1      21.598   2.030  51.979  1.00  0.00     0.062 A 
HETATM   18  C16 UNL     1      21.969   1.006  51.162  1.00  0.00     0.037 A 
HETATM   19  C17 UNL     1      21.934   2.206  50.514  1.00  0.00     0.061 A 
HETATM   20  C18 UNL     1      21.724   3.591  50.437  1.00  0.00    -0.018 A 
HETATM   21  C19 UNL     1      21.321   4.372  51.495  1.00  0.00     0.009 A 
HETATM   22  C20 UNL     1      21.285   3.285  52.379  1.00  0.00     0.006 A 
ENDROOT
BRANCH   1  23
HETATM   23  O1  UNL     1      20.949   4.475  48.716  1.00  0.00    -0.355 OA
HETATM   24  C1  UNL     1      20.190   4.009  47.592  1.00  0.00     0.210 C 
ENDBRANCH   1  23
TORSDOF 1
ENDMDL
MODEL 5
REMARK VINA RESULT:      -7.6      1.912      3.655
REMARK  1 active torsions:
REMARK  status: ('A' for Active; 'I' for Inactive)
REMARK    1  A    between atoms: O1_2  and  C2_3 
ROOT
HETATM    1  C2  UNL     1      25.746   7.302  48.841  1.00  0.00     0.074 C 
HETATM    2  C3  UNL     1      24.459   7.287  48.406  1.00  0.00     0.037 C 
HETATM    3  C4  UNL     1      23.435   6.254  48.234  1.00  0.00    -0.001 C 
HETATM    4  C5  UNL     1      23.042   4.963  48.265  1.00  0.00    -0.025 C 
HETATM    5  C6  UNL     1      23.677   3.688  48.550  1.00  0.00     0.052 C 
HETATM    6  C7  UNL     1      23.471   2.827  49.667  1.00  0.00     0.087 C 
HETATM    7  C8  UNL     1      22.092   2.728  50.303  1.00  0.00     0.043 C 
HETATM    8  C9  UNL     1      22.541   2.081  51.661  1.00  0.00     0.027 A 
HETATM    9  C10 UNL     1      22.990   2.248  52.948  1.00  0.00     0.036 A 
HETATM   10  C11 UNL     1      24.366   2.694  53.115  1.00  0.00     0.044 A 
HETATM   11  O2  UNL     1      23.206   2.299  52.910  1.00  0.00     0.000 OA
HETATM   12  C12 UNL     1      23.794   1.113  52.015  1.00  0.00     0.101 A 
HETATM   13  C13 UNL     1      22.686   0.565  51.633  1.00  0.00     0.000 A 
HETATM   14  O3  UNL     1      25.253   1.072  51.922  1.00  0.00    -0.349 OA
HETATM   15  C14 UNL     1      25.351   2.606  51.921  1.00  0.00     0.233 C 
HETATM   16  N1  UNL     1      24.545   2.933  50.752  1.00  0.00    -0.369 N 
HETATM   17  C15 UNL     1      25.244   4.182  50.418  1.00  0.00     0.062 A 
HETATM   18  C16 UNL     1      24.249   4.873  51.039  1.00  0.00     0.037 A 
HETATM   19  C17 UNL     1      24.973   5.653  50.185  1.00  0.00     0.061 A 
HETATM   20  C18 UNL     1      25.995   5.888  49.253  1.00  0.00    -0.018 A 
HETATM   21  C19 UNL     1      26.883   4.931  48.821  1.00  0.00     0.009 A 
HETATM   22  C20 UNL     1      26.303   3.931  49.614  1.00  0.00     0.006 A 
ENDROOT
BRANCH   1  23
HETATM   23  O1  UNL     1      27.009   7.709  49.194  1.00  0.00    -0.355 OA
HETATM   24  C1  UNL     1      27.217   8.847  50.041  1.00  0.00     0.210 C 
ENDBRANCH   1  23
TORSDOF 1
ENDMDL
MODEL 6
REMARK VINA RESULT:      -7.4      1.923      5.557
REMARK  1 active torsions:
REMARK  status: ('A' for Active; 'I' for Inactive)
REMARK    1  A    between atoms: O1_2  and  C2_3 
ROOT
HETATM    1  C2  UNL     1      24.006   0.965  52.984  1.00  0.00     0.074 C 
HETATM    2  C3  UNL     1      25.321   1.269  52.833  1.00  0.00     0.037 C 
HETATM    3  C4  UNL     1      26.099   2.061  51.877  1.00  0.00    -0.001 C 
HETATM    4  C5  UNL     1      26.186   2.804  50.754  1.00  0.00    -0.025 C 
HETATM    5  C6  UNL     1      25.267   3.232  49.713  1.00  0.00     0.052 C 
HETATM    6  C7  UNL     1      24.776   4.543  49.451  1.00  0.00     0.087 C 
HETATM    7  C8  UNL     1      25.667   5.751  49.706  1.00  0.00     0.043 C 
HETATM    8  C9  UNL     1      24.536   6.839  49.714  1.00  0.00     0.027 A 
HETATM    9  C10 UNL     1      23.588   7.541  50.418  1.00  0.00     0.036 A 
HETATM   10  C11 UNL     1      22.398   6.811  50.832  1.00  0.00     0.044 A 
HETATM   11  O2  UNL     1      23.427   7.385  50.438  1.00  0.00     0.000 OA
HETATM   12  C12 UNL     1      23.104   6.891  48.952  1.00  0.00     0.101 A 
HETATM   13  C13 UNL     1      24.141   7.364  48.340  1.00  0.00     0.000 A 
HETATM   14  O3  UNL     1      21.869   6.120  48.811  1.00  0.00    -0.349 OA
HETATM   15  C14 UNL     1      22.070   5.445  50.178  1.00  0.00     0.233 C 
HETATM   16  N1  UNL     1      23.365   4.807  49.984  1.00  0.00    -0.369 N 
HETATM   17  C15 UNL     1      23.142   3.698  50.921  1.00  0.00     0.062 A 
HETATM   18  C16 UNL     1      23.853   4.383  51.858  1.00  0.00     0.037 A 
HETATM   19  C17 UNL     1      23.758   3.052  52.143  1.00  0.00     0.061 A 
HETATM   20  C18 UNL     1      23.338   1.737  51.893  1.00  0.00    -0.018 A 
HETATM   21  C19 UNL     1      22.585   1.358  50.806  1.00  0.00     0.009 A 
HETATM   22  C20 UNL     1      22.542   2.661  50.291  1.00  0.00     0.006 A 
ENDROOT
BRANCH   1  23
HETATM   23  O1  UNL     1      22.821   0.450  53.451  1.00  0.00    -0.355 OA
HETATM   24  C1  UNL     1      22.735  -0.892  53.948  1.00  0.00     0.210 C 
ENDBRANCH   1  23
TORSDOF 1
ENDMDL
MODEL 7
REMARK VINA RESULT:      -7.4      1.796      5.874
REMARK  1 active torsions:
REMARK  status: ('A' for Active; 'I' for Inactive)
REMARK    1  A    between atoms: O1_2  and  C2_3 
ROOT
HETATM    1  C2  UNL     1      19.670  -0.189  53.094  1.00  0.00     0.074 C 
HETATM    2  C3  UNL     1      20.766  -0.219  53.895  1.00  0.00     0.037 C 
HETATM    3  C4  UNL     1      22.148   0.255  53.781  1.00  0.00    -0.001 C 
HETATM    4  C5  UNL     1      23.146   0.824  53.073  1.00  0.00    -0.025 C 
HETATM    5  C6  UNL     1      23.308   1.331  51.722  1.00  0.00     0.052 C 
HETATM    6  C7  UNL     1      23.466   2.682  51.297  1.00  0.00     0.087 C 
HETATM    7  C8  UNL     1      24.217   3.671  52.177  1.00  0.00     0.043 C 
HETATM    8  C9  UNL     1      23.691   4.985  51.501  1.00  0.00     0.027 A 
HETATM    9  C10 UNL     1      22.730   5.965  51.429  1.00  0.00     0.036 A 
HETATM   10  C11 UNL     1      21.440   5.584  50.873  1.00  0.00     0.044 A 
HETATM   11  O2  UNL     1      22.566   5.854  51.323  1.00  0.00     0.000 OA
HETATM   12  C12 UNL     1      23.214   5.282  49.979  1.00  0.00     0.101 A 
HETATM   13  C13 UNL     1      24.467   5.427  50.267  1.00  0.00     0.000 A 
HETATM   14  O3  UNL     1      22.255   4.807  48.982  1.00  0.00    -0.349 OA
HETATM   15  C14 UNL     1      21.310   4.266  50.068  1.00  0.00     0.233 C 
HETATM   16  N1  UNL     1      22.188   3.326  50.753  1.00  0.00    -0.369 N 
HETATM   17  C15 UNL     1      21.128   2.414  51.205  1.00  0.00     0.062 A 
HETATM   18  C16 UNL     1      21.166   3.018  52.425  1.00  0.00     0.037 A 
HETATM   19  C17 UNL     1      20.578   1.787  52.468  1.00  0.00     0.061 A 
HETATM   20  C18 UNL     1      20.127   0.587  51.901  1.00  0.00    -0.018 A 
HETATM   21  C19 UNL     1      20.235   0.271  50.567  1.00  0.00     0.009 A 
HETATM   22  C20 UNL     1      20.873   1.480  50.259  1.00  0.00     0.006 A 
ENDROOT
BRANCH   1  23
HETATM   23  O1  UNL     1      18.402  -0.357  52.596  1.00  0.00    -0.355 OA
HETATM   24  C1  UNL     1      17.528  -1.374  53.105  1.00  0.00     0.210 C 
ENDBRANCH   1  23
TORSDOF 1
ENDMDL
MODEL 8
REMARK VINA RESULT:      -7.4      2.638      4.793
REMARK  1 active torsions:
REMARK  status: ('A' for Active; 'I' for Inactive)
REMARK    1  A    between atoms: O1_2  and  C2_3 
ROOT
HETATM    1  C2  UNL     1      24.144   0.058  53.417  1.00  0.00     0.074 C 
HETATM    2  C3  UNL     1      22.956  -0.520  53.730  1.00  0.00     0.037 C 
HETATM    3  C4  UNL     1      21.549  -0.129  53.612  1.00  0.00    -0.001 C 
HETATM    4  C5  UNL     1      20.597   0.774  53.298  1.00  0.00    -0.025 C 
HETATM    5  C6  UNL     1      20.579   2.148  52.825  1.00  0.00     0.052 C 
HETATM    6  C7  UNL     1      20.178   2.639  51.550  1.00  0.00     0.087 C 
HETATM    7  C8  UNL     1      19.051   1.952  50.792  1.00  0.00     0.043 C 
HETATM    8  C9  UNL     1      19.358   2.558  49.378  1.00  0.00     0.027 A 
HETATM    9  C10 UNL     1      20.042   2.479  48.190  1.00  0.00     0.036 A 
HETATM   10  C11 UNL     1      21.469   2.766  48.229  1.00  0.00     0.044 A 
HETATM   11  O2  UNL     1      20.246   2.548  48.255  1.00  0.00     0.000 OA
HETATM   12  C12 UNL     1      20.031   3.971  48.949  1.00  0.00     0.101 A 
HETATM   13  C13 UNL     1      18.750   3.932  49.123  1.00  0.00     0.000 A 
HETATM   14  O3  UNL     1      21.252   4.750  49.155  1.00  0.00    -0.349 OA
HETATM   15  C14 UNL     1      22.072   3.487  49.461  1.00  0.00     0.233 C 
HETATM   16  N1  UNL     1      21.338   2.951  50.600  1.00  0.00    -0.369 N 
HETATM   17  C15 UNL     1      22.482   2.275  51.228  1.00  0.00     0.062 A 
HETATM   18  C16 UNL     1      22.062   1.106  50.671  1.00  0.00     0.037 A 
HETATM   19  C17 UNL     1      22.915   0.911  51.718  1.00  0.00     0.061 A 
HETATM   20  C18 UNL     1      23.750   1.341  52.760  1.00  0.00    -0.018 A 
HETATM   21  C19 UNL     1      23.982   2.660  53.072  1.00  0.00     0.009 A 
HETATM   22  C20 UNL     1      23.137   3.124  52.054  1.00  0.00     0.006 A 
ENDROOT
BRANCH   1  23
HETATM   23  O1  UNL     1      25.487   0.299  53.257  1.00  0.00    -0.355 OA
HETATM   24  C1  UNL     1      26.474  -0.610  53.762  1.00  0.00     0.210 C 
ENDBRANCH   1  23
TORSDOF 1
ENDMDL
MODEL 9
REMARK VINA RESULT:      -7.2      2.170      4.318
REMARK  1 active torsions:
REMARK  status: ('A' for Active; 'I' for Inactive)
REMARK    1  A    between atoms: O1_2  and  C2_3 
ROOT
HETATM    1  C2  UNL     1      26.718   1.745  53.476  1.00  0.00     0.074 C 
HETATM    2  C3  UNL     1      27.240   2.473  52.455  1.00  0.00     0.037 C 
HETATM    3  C4  UNL     1      26.760   2.909  51.141  1.00  0.00    -0.001 C 
HETATM    4  C5  UNL     1      25.824   2.917  50.169  1.00  0.00    -0.025 C 
HETATM    5  C6  UNL     1      24.530   2.291  49.963  1.00  0.00     0.052 C 
HETATM    6  C7  UNL     1      23.244   2.903  49.945  1.00  0.00     0.087 C 
HETATM    7  C8  UNL     1      23.084   4.316  49.402  1.00  0.00     0.043 C 
HETATM    8  C9  UNL     1      21.681   4.619  50.035  1.00  0.00     0.027 A 
HETATM    9  C10 UNL     1      20.949   5.076  51.104  1.00  0.00     0.036 A 
HETATM   10  C11 UNL     1      20.902   4.226  52.284  1.00  0.00     0.044 A 
HETATM   11  O2  UNL     1      20.965   4.901  51.243  1.00  0.00     0.000 OA
HETATM   12  C12 UNL     1      20.450   3.633  50.418  1.00  0.00     0.101 A 
HETATM   13  C13 UNL     1      20.490   4.125  49.223  1.00  0.00     0.000 A 
HETATM   14  O3  UNL     1      20.162   2.446  51.223  1.00  0.00    -0.349 OA
HETATM   15  C14 UNL     1      21.331   2.741  52.177  1.00  0.00     0.233 C 
HETATM   16  N1  UNL     1      22.452   2.746  51.245  1.00  0.00    -0.369 N 
HETATM   17  C15 UNL     1      23.469   2.312  52.213  1.00  0.00     0.062 A 
HETATM   18  C16 UNL     1      23.849   3.612  52.354  1.00  0.00     0.037 A 
HETATM   19  C17 UNL     1      24.806   2.737  52.780  1.00  0.00     0.061 A 
HETATM   20  C18 UNL     1      25.323   1.456  53.026  1.00  0.00    -0.018 A 
HETATM   21  C19 UNL     1      24.647   0.286  52.768  1.00  0.00     0.009 A 
HETATM   22  C20 UNL     1      23.525   0.961  52.267  1.00  0.00     0.006 A 
ENDROOT
BRANCH   1  23
HETATM   23  O1  UNL     1      26.553   1.081  54.667  1.00  0.00    -0.355 OA
HETATM   24  C1  UNL     1      27.523   0.135  55.134  1.00  0.00     0.210 C 
ENDBRANCH   1  23
TORSDOF 1
ENDMDL
