MODEL 1
REMARK VINA RESULT:      -7.6      0.000      0.000
REMARK  3 active torsions:
REMARK  status: ('A' for Active; 'I' for Inactive)
REMARK    1  A    between atoms: O1_2  and  C2_3 
REMARK    2  A    between atoms: C7_10  and  N3_11 
REMARK    3  A    between atoms: N3_11  and  C9_13 
ROOT
HETATM    1  C2  UNL     1      22.777   1.825  51.199  1.00  0.00     0.069 A 
HETATM    2  C3  UNL     1      21.408   1.753  51.479  1.00  0.00     0.039 A 
HETATM    3  C4  UNL     1      21.010   0.954  52.556  1.00  0.00     0.035 A 
HETATM    4  C5  UNL     1      21.873   0.250  53.339  1.00  0.00     0.072 A 
HETATM    5  N1  UNL     1      21.469  -0.510  54.367  1.00  0.00    -0.241 NA
HETATM    6  C6  UNL     1      22.374  -1.199  55.126  1.00  0.00     0.236 A 
HETATM    7  N2  UNL     1      23.711  -1.129  54.854  1.00  0.00    -0.224 NA
HETATM    8  C7  UNL     1      24.178  -0.374  53.824  1.00  0.00     0.141 A 
HETATM    9  C14 UNL     1      23.247   0.311  53.074  1.00  0.00     0.041 A 
HETATM   10  C15 UNL     1      23.633   1.105  52.004  1.00  0.00     0.054 A 
ENDROOT
BRANCH   8  11
HETATM   11  N3  UNL     1      25.567  -0.299  53.538  1.00  0.00    -0.345 N 
HETATM   12  C8  UNL     1      26.316  -1.005  52.498  1.00  0.00     0.154 C 
BRANCH  11  13
HETATM   13  C9  UNL     1      26.367   0.596  54.385  1.00  0.00     0.208 A 
HETATM   14  C10 UNL     1      26.808   1.800  53.638  1.00  0.00     0.019 A 
HETATM   15  C11 UNL     1      28.066   2.188  53.505  1.00  0.00     0.001 A 
HETATM   16  C12 UNL     1      29.123   1.401  54.125  1.00  0.00     0.017 A 
HETATM   17  C13 UNL     1      28.893   0.301  54.826  1.00  0.00     0.085 A 
HETATM   18  N4  UNL     1      27.518  -0.056  54.927  1.00  0.00    -0.375 N 
HETATM   19  H15 UNL     1      27.206  -0.900  55.450  1.00  0.00     0.161 HD
ENDBRANCH  11  13
ENDBRANCH   8  11
BRANCH   1  20
HETATM   20  O1  UNL     1      23.272   2.591  50.151  1.00  0.00    -0.356 OA
HETATM   21  C1  UNL     1      24.570   3.159  50.275  1.00  0.00     0.210 C 
ENDBRANCH   1  20
TORSDOF 3
ENDMDL
MODEL 2
REMARK VINA RESULT:      -7.3      2.111      3.345
REMARK  3 active torsions:
REMARK  status: ('A' for Active; 'I' for Inactive)
REMARK    1  A    between atoms: O1_2  and  C2_3 
REMARK    2  A    between atoms: C7_10  and  N3_11 
REMARK    3  A    between atoms: N3_11  and  C9_13 
ROOT
HETATM    1  C2  UNL     1      22.129  -0.224  54.216  1.00  0.00     0.069 A 
HETATM    2  C3  UNL     1      20.956   0.395  53.769  1.00  0.00     0.039 A 
HETATM    3  C4  UNL     1      21.075   1.337  52.742  1.00  0.00     0.035 A 
HETATM    4  C5  UNL     1      22.255   1.681  52.158  1.00  0.00     0.072 A 
HETATM    5  N1  UNL     1      22.346   2.587  51.174  1.00  0.00    -0.241 NA
HETATM    6  C6  UNL     1      23.556   2.899  50.619  1.00  0.00     0.236 A 
HETATM    7  N2  UNL     1      24.700   2.295  51.054  1.00  0.00    -0.224 NA
HETATM    8  C7  UNL     1      24.670   1.369  52.048  1.00  0.00     0.141 A 
HETATM    9  C14 UNL     1      23.439   1.070  52.593  1.00  0.00     0.041 A 
HETATM   10  C15 UNL     1      23.314   0.137  53.612  1.00  0.00     0.054 A 
ENDROOT
BRANCH   8  11
HETATM   11  N3  UNL     1      25.859   0.738  52.504  1.00  0.00    -0.345 N 
HETATM   12  C8  UNL     1      26.534  -0.433  51.943  1.00  0.00     0.154 C 
BRANCH  11  13
HETATM   13  C9  UNL     1      26.504   1.325  53.686  1.00  0.00     0.208 A 
HETATM   14  C10 UNL     1      27.502   2.355  53.305  1.00  0.00     0.019 A 
HETATM   15  C11 UNL     1      28.775   2.343  53.666  1.00  0.00     0.001 A 
HETATM   16  C12 UNL     1      29.269   1.256  54.498  1.00  0.00     0.017 A 
HETATM   17  C13 UNL     1      28.505   0.260  54.923  1.00  0.00     0.085 A 
HETATM   18  N4  UNL     1      27.148   0.338  54.497  1.00  0.00    -0.375 N 
HETATM   19  H15 UNL     1      26.446  -0.383  54.762  1.00  0.00     0.161 HD
ENDBRANCH  11  13
ENDBRANCH   8  11
BRANCH   1  20
HETATM   20  O1  UNL     1      22.117  -1.173  55.231  1.00  0.00    -0.356 OA
HETATM   21  C1  UNL     1      23.359  -1.654  55.731  1.00  0.00     0.210 C 
ENDBRANCH   1  20
TORSDOF 3
ENDMDL
MODEL 3
REMARK VINA RESULT:      -7.1      2.725      5.013
REMARK  3 active torsions:
REMARK  status: ('A' for Active; 'I' for Inactive)
REMARK    1  A    between atoms: O1_2  and  C2_3 
REMARK    2  A    between atoms: C7_10  and  N3_11 
REMARK    3  A    between atoms: N3_11  and  C9_13 
ROOT
HETATM    1  C2  UNL     1      26.373   1.115  54.183  1.00  0.00     0.069 A 
HETATM    2  C3  UNL     1      26.037  -0.155  54.668  1.00  0.00     0.039 A 
HETATM    3  C4  UNL     1      24.817  -0.700  54.258  1.00  0.00     0.035 A 
HETATM    4  C5  UNL     1      23.946  -0.071  53.421  1.00  0.00     0.072 A 
HETATM    5  N1  UNL     1      22.780  -0.613  53.041  1.00  0.00    -0.241 NA
HETATM    6  C6  UNL     1      21.939   0.058  52.198  1.00  0.00     0.236 A 
HETATM    7  N2  UNL     1      22.266   1.296  51.724  1.00  0.00    -0.224 NA
HETATM    8  C7  UNL     1      23.434   1.895  52.076  1.00  0.00     0.141 A 
HETATM    9  C14 UNL     1      24.267   1.200  52.926  1.00  0.00     0.041 A 
HETATM   10  C15 UNL     1      25.479   1.734  53.338  1.00  0.00     0.054 A 
ENDROOT
BRANCH   8  11
HETATM   11  N3  UNL     1      23.778   3.183  51.585  1.00  0.00    -0.345 N 
HETATM   12  C8  UNL     1      23.686   4.470  52.277  1.00  0.00     0.154 C 
BRANCH  11  13
HETATM   13  C9  UNL     1      24.292   3.249  50.210  1.00  0.00     0.208 A 
HETATM   14  C10 UNL     1      25.766   3.080  50.173  1.00  0.00     0.019 A 
HETATM   15  C11 UNL     1      26.612   3.939  49.627  1.00  0.00     0.001 A 
HETATM   16  C12 UNL     1      26.094   5.151  49.007  1.00  0.00     0.017 A 
HETATM   17  C13 UNL     1      24.804   5.448  48.957  1.00  0.00     0.085 A 
HETATM   18  N4  UNL     1      23.954   4.479  49.564  1.00  0.00    -0.375 N 
HETATM   19  H15 UNL     1      22.920   4.595  49.591  1.00  0.00     0.161 HD
ENDBRANCH  11  13
ENDBRANCH   8  11
BRANCH   1  20
HETATM   20  O1  UNL     1      27.563   1.742  54.532  1.00  0.00    -0.356 OA
HETATM   21  C1  UNL     1      28.349   2.335  53.505  1.00  0.00     0.210 C 
ENDBRANCH   1  20
TORSDOF 3
ENDMDL
MODEL 4
REMARK VINA RESULT:      -6.9      2.569      3.939
REMARK  3 active torsions:
REMARK  status: ('A' for Active; 'I' for Inactive)
REMARK    1  A    between atoms: O1_2  and  C2_3 
REMARK    2  A    between atoms: C7_10  and  N3_11 
REMARK    3  A    between atoms: N3_11  and  C9_13 
ROOT
HETATM    1  C2  UNL     1      21.713   0.119  52.303  1.00  0.00     0.069 A 
HETATM    2  C3  UNL     1      20.805   0.193  51.240  1.00  0.00     0.039 A 
HETATM    3  C4  UNL     1      21.140   1.018  50.162  1.00  0.00     0.035 A 
HETATM    4  C5  UNL     1      22.289   1.744  50.088  1.00  0.00     0.072 A 
HETATM    5  N1  UNL     1      22.590   2.528  49.043  1.00  0.00    -0.241 NA
HETATM    6  C6  UNL     1      23.757   3.239  49.015  1.00  0.00     0.236 A 
HETATM    7  N2  UNL     1      24.645   3.166  50.050  1.00  0.00    -0.224 NA
HETATM    8  C7  UNL     1      24.393   2.388  51.136  1.00  0.00     0.141 A 
HETATM    9  C14 UNL     1      23.210   1.680  51.142  1.00  0.00     0.041 A 
HETATM   10  C15 UNL     1      22.870   0.861  52.209  1.00  0.00     0.054 A 
ENDROOT
BRANCH   8  11
HETATM   11  N3  UNL     1      25.313   2.310  52.215  1.00  0.00    -0.345 N 
HETATM   12  C8  UNL     1      25.103   2.690  53.613  1.00  0.00     0.154 C 
BRANCH  11  13
HETATM   13  C9  UNL     1      26.649   1.782  51.905  1.00  0.00     0.208 A 
HETATM   14  C10 UNL     1      26.721   0.318  52.132  1.00  0.00     0.019 A 
HETATM   15  C11 UNL     1      27.597  -0.282  52.923  1.00  0.00     0.001 A 
HETATM   16  C12 UNL     1      28.578   0.522  53.638  1.00  0.00     0.017 A 
HETATM   17  C13 UNL     1      28.646   1.842  53.541  1.00  0.00     0.085 A 
HETATM   18  N4  UNL     1      27.673   2.418  52.675  1.00  0.00    -0.375 N 
HETATM   19  H15 UNL     1      27.621   3.445  52.514  1.00  0.00     0.161 HD
ENDBRANCH  11  13
ENDBRANCH   8  11
BRANCH   1  20
HETATM   20  O1  UNL     1      21.472  -0.672  53.420  1.00  0.00    -0.356 OA
HETATM   21  C1  UNL     1      22.545  -0.930  54.317  1.00  0.00     0.210 C 
ENDBRANCH   1  20
TORSDOF 3
ENDMDL
MODEL 5
REMARK VINA RESULT:      -6.8      2.955      5.350
REMARK  3 active torsions:
REMARK  status: ('A' for Active; 'I' for Inactive)
REMARK    1  A    between atoms: O1_2  and  C2_3 
REMARK    2  A    between atoms: C7_10  and  N3_11 
REMARK    3  A    between atoms: N3_11  and  C9_13 
ROOT
HETATM    1  C2  UNL     1      26.278   0.983  54.089  1.00  0.00     0.069 A 
HETATM    2  C3  UNL     1      25.843  -0.214  54.670  1.00  0.00     0.039 A 
HETATM    3  C4  UNL     1      24.591  -0.702  54.280  1.00  0.00     0.035 A 
HETATM    4  C5  UNL     1      23.782  -0.085  53.377  1.00  0.00     0.072 A 
HETATM    5  N1  UNL     1      22.585  -0.572  53.018  1.00  0.00    -0.241 NA
HETATM    6  C6  UNL     1      21.808   0.085  52.105  1.00  0.00     0.236 A 
HETATM    7  N2  UNL     1      22.231   1.252  51.537  1.00  0.00    -0.224 NA
HETATM    8  C7  UNL     1      23.436   1.793  51.863  1.00  0.00     0.141 A 
HETATM    9  C14 UNL     1      24.202   1.114  52.785  1.00  0.00     0.041 A 
HETATM   10  C15 UNL     1      25.444   1.592  53.176  1.00  0.00     0.054 A 
ENDROOT
BRANCH   8  11
HETATM   11  N3  UNL     1      23.880   3.008  51.275  1.00  0.00    -0.345 N 
HETATM   12  C8  UNL     1      24.633   3.190  50.034  1.00  0.00     0.154 C 
BRANCH  11  13
HETATM   13  C9  UNL     1      23.548   4.246  51.992  1.00  0.00     0.208 A 
HETATM   14  C10 UNL     1      22.152   4.672  51.723  1.00  0.00     0.019 A 
HETATM   15  C11 UNL     1      21.801   5.856  51.247  1.00  0.00     0.001 A 
HETATM   16  C12 UNL     1      22.834   6.839  50.953  1.00  0.00     0.017 A 
HETATM   17  C13 UNL     1      24.126   6.614  51.139  1.00  0.00     0.085 A 
HETATM   18  N4  UNL     1      24.429   5.320  51.653  1.00  0.00    -0.375 N 
HETATM   19  H15 UNL     1      25.407   5.020  51.842  1.00  0.00     0.161 HD
ENDBRANCH  11  13
ENDBRANCH   8  11
BRANCH   1  20
HETATM   20  O1  UNL     1      27.505   1.551  54.410  1.00  0.00    -0.356 OA
HETATM   21  C1  UNL     1      28.629   0.695  54.581  1.00  0.00     0.210 C 
ENDBRANCH   1  20
TORSDOF 3
ENDMDL
MODEL 6
REMARK VINA RESULT:      -6.8      3.350      6.018
REMARK  3 active torsions:
REMARK  status: ('A' for Active; 'I' for Inactive)
REMARK    1  A    between atoms: O1_2  and  C2_3 
REMARK    2  A    between atoms: C7_10  and  N3_11 
REMARK    3  A    between atoms: N3_11  and  C9_13 
ROOT
HETATM    1  C2  UNL     1      22.909   0.226  53.386  1.00  0.00     0.069 A 
HETATM    2  C3  UNL     1      24.044  -0.557  53.628  1.00  0.00     0.039 A 
HETATM    3  C4  UNL     1      25.248  -0.143  53.049  1.00  0.00     0.035 A 
HETATM    4  C5  UNL     1      25.376   0.967  52.272  1.00  0.00     0.072 A 
HETATM    5  N1  UNL     1      26.541   1.345  51.727  1.00  0.00    -0.241 NA
HETATM    6  C6  UNL     1      26.620   2.469  50.953  1.00  0.00     0.236 A 
HETATM    7  N2  UNL     1      25.513   3.234  50.717  1.00  0.00    -0.224 NA
HETATM    8  C7  UNL     1      24.305   2.900  51.244  1.00  0.00     0.141 A 
HETATM    9  C14 UNL     1      24.250   1.762  52.021  1.00  0.00     0.041 A 
HETATM   10  C15 UNL     1      23.060   1.346  52.598  1.00  0.00     0.054 A 
ENDROOT
BRANCH   8  11
HETATM   11  N3  UNL     1      23.152   3.692  51.001  1.00  0.00    -0.345 N 
HETATM   12  C8  UNL     1      22.024   3.401  50.115  1.00  0.00     0.154 C 
BRANCH  11  13
HETATM   13  C9  UNL     1      23.067   4.970  51.722  1.00  0.00     0.208 A 
HETATM   14  C10 UNL     1      21.862   5.739  51.323  1.00  0.00     0.019 A 
HETATM   15  C11 UNL     1      21.876   6.976  50.854  1.00  0.00     0.001 A 
HETATM   16  C12 UNL     1      23.149   7.666  50.705  1.00  0.00     0.017 A 
HETATM   17  C13 UNL     1      24.314   7.118  51.017  1.00  0.00     0.085 A 
HETATM   18  N4  UNL     1      24.222   5.786  51.515  1.00  0.00    -0.375 N 
HETATM   19  H15 UNL     1      25.066   5.245  51.795  1.00  0.00     0.161 HD
ENDBRANCH  11  13
ENDBRANCH   8  11
BRANCH   1  20
HETATM   20  O1  UNL     1      21.666  -0.100  53.916  1.00  0.00    -0.356 OA
HETATM   21  C1  UNL     1      21.521  -1.339  54.601  1.00  0.00     0.210 C 
ENDBRANCH   1  20
TORSDOF 3
ENDMDL
MODEL 7
REMARK VINA RESULT:      -6.7      2.604      4.961
REMARK  3 active torsions:
REMARK  status: ('A' for Active; 'I' for Inactive)
REMARK    1  A    between atoms: O1_2  and  C2_3 
REMARK    2  A    between atoms: C7_10  and  N3_11 
REMARK    3  A    between atoms: N3_11  and  C9_13 
ROOT
HETATM    1  C2  UNL     1      20.790  -0.251  53.582  1.00  0.00     0.069 A 
HETATM    2  C3  UNL     1      21.205  -1.259  54.460  1.00  0.00     0.039 A 
HETATM    3  C4  UNL     1      22.576  -1.373  54.710  1.00  0.00     0.035 A 
HETATM    4  C5  UNL     1      23.520  -0.566  54.154  1.00  0.00     0.072 A 
HETATM    5  N1  UNL     1      24.830  -0.694  54.408  1.00  0.00    -0.241 NA
HETATM    6  C6  UNL     1      25.741   0.141  53.823  1.00  0.00     0.236 A 
HETATM    7  N2  UNL     1      25.338   1.126  52.967  1.00  0.00    -0.224 NA
HETATM    8  C7  UNL     1      24.023   1.302  52.672  1.00  0.00     0.141 A 
HETATM    9  C14 UNL     1      23.123   0.448  53.272  1.00  0.00     0.041 A 
HETATM   10  C15 UNL     1      21.762   0.555  53.029  1.00  0.00     0.054 A 
ENDROOT
BRANCH   8  11
HETATM   11  N3  UNL     1      23.600   2.324  51.780  1.00  0.00    -0.345 N 
HETATM   12  C8  UNL     1      23.251   2.203  50.364  1.00  0.00     0.154 C 
BRANCH  11  13
HETATM   13  C9  UNL     1      23.493   3.680  52.336  1.00  0.00     0.208 A 
HETATM   14  C10 UNL     1      22.118   4.219  52.194  1.00  0.00     0.019 A 
HETATM   15  C11 UNL     1      21.811   5.357  51.593  1.00  0.00     0.001 A 
HETATM   16  C12 UNL     1      22.874   6.167  51.016  1.00  0.00     0.017 A 
HETATM   17  C13 UNL     1      24.154   5.825  51.060  1.00  0.00     0.085 A 
HETATM   18  N4  UNL     1      24.410   4.590  51.722  1.00  0.00    -0.375 N 
HETATM   19  H15 UNL     1      25.373   4.210  51.822  1.00  0.00     0.161 HD
ENDBRANCH  11  13
ENDBRANCH   8  11
BRANCH   1  20
HETATM   20  O1  UNL     1      19.451  -0.056  53.268  1.00  0.00    -0.356 OA
HETATM   21  C1  UNL     1      19.071  -0.008  51.898  1.00  0.00     0.210 C 
ENDBRANCH   1  20
TORSDOF 3
ENDMDL
MODEL 8
REMARK VINA RESULT:      -6.7      9.100     11.610
REMARK  3 active torsions:
REMARK  status: ('A' for Active; 'I' for Inactive)
REMARK    1  A    between atoms: O1_2  and  C2_3 
REMARK    2  A    between atoms: C7_10  and  N3_11 
REMARK    3  A    between atoms: N3_11  and  C9_13 
ROOT
HETATM    1  C2  UNL     1      32.432   2.869  46.863  1.00  0.00     0.069 A 
HETATM    2  C3  UNL     1      33.739   2.459  47.149  1.00  0.00     0.039 A 
HETATM    3  C4  UNL     1      34.619   3.419  47.657  1.00  0.00     0.035 A 
HETATM    4  C5  UNL     1      34.279   4.716  47.888  1.00  0.00     0.072 A 
HETATM    5  N1  UNL     1      35.140   5.621  48.376  1.00  0.00    -0.241 NA
HETATM    6  C6  UNL     1      34.750   6.914  48.590  1.00  0.00     0.236 A 
HETATM    7  N2  UNL     1      33.475   7.314  48.312  1.00  0.00    -0.224 NA
HETATM    8  C7  UNL     1      32.559   6.441  47.815  1.00  0.00     0.141 A 
HETATM    9  C14 UNL     1      32.974   5.144  47.607  1.00  0.00     0.041 A 
HETATM   10  C15 UNL     1      32.107   4.186  47.103  1.00  0.00     0.054 A 
ENDROOT
BRANCH   8  11
HETATM   11  N3  UNL     1      31.231   6.855  47.524  1.00  0.00    -0.345 N 
HETATM   12  C8  UNL     1      30.709   7.405  46.273  1.00  0.00     0.154 C 
BRANCH  11  13
HETATM   13  C9  UNL     1      30.247   6.718  48.606  1.00  0.00     0.208 A 
HETATM   14  C10 UNL     1      29.160   5.777  48.236  1.00  0.00     0.019 A 
HETATM   15  C11 UNL     1      27.870   6.071  48.246  1.00  0.00     0.001 A 
HETATM   16  C12 UNL     1      27.447   7.406  48.645  1.00  0.00     0.017 A 
HETATM   17  C13 UNL     1      28.294   8.360  49.004  1.00  0.00     0.085 A 
HETATM   18  N4  UNL     1      29.665   7.973  48.969  1.00  0.00    -0.375 N 
HETATM   19  H15 UNL     1      30.428   8.631  49.228  1.00  0.00     0.161 HD
ENDBRANCH  11  13
ENDBRANCH   8  11
BRANCH   1  20
HETATM   20  O1  UNL     1      31.482   1.990  46.355  1.00  0.00    -0.356 OA
HETATM   21  C1  UNL     1      31.740   0.593  46.423  1.00  0.00     0.210 C 
ENDBRANCH   1  20
TORSDOF 3
ENDMDL
MODEL 9
REMARK VINA RESULT:      -6.6      2.701      5.495
REMARK  3 active torsions:
REMARK  status: ('A' for Active; 'I' for Inactive)
REMARK    1  A    between atoms: O1_2  and  C2_3 
REMARK    2  A    between atoms: C7_10  and  N3_11 
REMARK    3  A    between atoms: N3_11  and  C9_13 
ROOT
HETATM    1  C2  UNL     1      26.171   0.950  54.115  1.00  0.00     0.069 A 
HETATM    2  C3  UNL     1      25.801  -0.312  54.591  1.00  0.00     0.039 A 
HETATM    3  C4  UNL     1      24.550  -0.805  54.207  1.00  0.00     0.035 A 
HETATM    4  C5  UNL     1      23.682  -0.133  53.403  1.00  0.00     0.072 A 
HETATM    5  N1  UNL     1      22.487  -0.626  53.047  1.00  0.00    -0.241 NA
HETATM    6  C6  UNL     1      21.649   0.089  52.237  1.00  0.00     0.236 A 
HETATM    7  N2  UNL     1      22.009   1.321  51.770  1.00  0.00    -0.224 NA
HETATM    8  C7  UNL     1      23.209   1.870  52.099  1.00  0.00     0.141 A 
HETATM    9  C14 UNL     1      24.037   1.132  52.917  1.00  0.00     0.041 A 
HETATM   10  C15 UNL     1      25.279   1.615  53.302  1.00  0.00     0.054 A 
ENDROOT
BRANCH   8  11
HETATM   11  N3  UNL     1      23.587   3.152  51.616  1.00  0.00    -0.345 N 
HETATM   12  C8  UNL     1      23.587   4.426  52.336  1.00  0.00     0.154 C 
BRANCH  11  13
HETATM   13  C9  UNL     1      24.039   3.223  50.220  1.00  0.00     0.208 A 
HETATM   14  C10 UNL     1      24.253   4.627  49.789  1.00  0.00     0.019 A 
HETATM   15  C11 UNL     1      23.675   5.193  48.742  1.00  0.00     0.001 A 
HETATM   16  C12 UNL     1      22.755   4.411  47.928  1.00  0.00     0.017 A 
HETATM   17  C13 UNL     1      22.458   3.144  48.180  1.00  0.00     0.085 A 
HETATM   18  N4  UNL     1      23.116   2.602  49.321  1.00  0.00    -0.375 N 
HETATM   19  H15 UNL     1      22.967   1.618  49.625  1.00  0.00     0.161 HD
ENDBRANCH  11  13
ENDBRANCH   8  11
BRANCH   1  20
HETATM   20  O1  UNL     1      27.393   1.528  54.440  1.00  0.00    -0.356 OA
HETATM   21  C1  UNL     1      28.562   0.719  54.400  1.00  0.00     0.210 C 
ENDBRANCH   1  20
TORSDOF 3
ENDMDL
