MODEL 1
REMARK VINA RESULT:      -8.4      0.000      0.000
REMARK  7 active torsions:
REMARK  status: ('A' for Active; 'I' for Inactive)
REMARK    1  A    between atoms: N1_2  and  C3_4 
REMARK    2  A    between atoms: C3_4  and  C4_5 
REMARK    3  A    between atoms: C4_5  and  C5_6 
REMARK    4  A    between atoms: C5_6  and  C6_7 
REMARK       I    between atoms: C6_7  and  N2_9 
REMARK    5  A    between atoms: N2_9  and  C7_10 
REMARK    6  A    between atoms: C14_18  and  N4_19 
REMARK    7  A    between atoms: N4_19  and  C15_20 
ROOT
HETATM    1  C7  UNL     1      21.325   1.845  51.542  1.00  0.00     0.036 C 
HETATM    2  C8  UNL     1      21.935   1.016  52.013  1.00  0.00     0.042 C 
HETATM    3  C9  UNL     1      22.322  -0.239  52.895  1.00  0.00     0.009 C 
HETATM    4  C10 UNL     1      21.475  -1.279  52.972  1.00  0.00     0.001 C 
HETATM    5  C11 UNL     1      21.262  -1.483  54.289  1.00  0.00     0.006 C 
HETATM    6  C12 UNL     1      22.419  -1.491  54.977  1.00  0.00     0.130 C 
HETATM    7  N3  UNL     1      23.612  -0.692  54.672  1.00  0.00    -0.257 NA
HETATM    8  C13 UNL     1      23.666  -0.033  53.617  1.00  0.00     0.094 C 
HETATM    9  C14 UNL     1      24.088   0.887  52.712  1.00  0.00     0.060 C 
HETATM   10  C21 UNL     1      24.677   1.713  51.848  1.00  0.00     0.031 C 
HETATM   11  C22 UNL     1      24.424   2.897  50.942  1.00  0.00     0.197 C 
HETATM   12  O2  UNL     1      23.171   3.243  51.055  1.00  0.00    -0.382 OA
HETATM   13  C23 UNL     1      21.914   3.135  50.969  1.00  0.00     0.225 C 
ENDROOT
BRANCH   1  14
HETATM   14  N2  UNL     1      20.037   1.615  52.132  1.00  0.00    -0.325 N 
HETATM   15  C6  UNL     1      19.240   1.101  51.123  1.00  0.00     0.245 C 
HETATM   16  O1  UNL     1      19.403   0.815  49.907  1.00  0.00    -0.268 OA
HETATM   17  H11 UNL     1      19.722   1.675  53.189  1.00  0.00     0.169 HD
BRANCH  15  18
HETATM   18  C5  UNL     1      17.877   0.770  51.601  1.00  0.00     0.072 C 
BRANCH  18  19
HETATM   19  C4  UNL     1      17.914  -0.295  52.393  1.00  0.00     0.008 C 
BRANCH  19  20
HETATM   20  C3  UNL     1      17.775  -1.480  53.153  1.00  0.00     0.299 C 
BRANCH  20  21
HETATM   21  N1  UNL     1      16.980  -2.573  52.745  1.00  0.00     0.083 N 
HETATM   22  C1  UNL     1      15.640  -2.272  52.367  1.00  0.00     0.309 C 
HETATM   23  C2  UNL     1      17.142  -3.670  53.725  1.00  0.00     0.309 C 
ENDBRANCH  20  21
ENDBRANCH  19  20
ENDBRANCH  18  19
ENDBRANCH  15  18
ENDBRANCH   1  14
BRANCH   9  24
HETATM   24  N4  UNL     1      25.411   0.987  53.331  1.00  0.00    -0.354 N 
HETATM   25  H14 UNL     1      25.596   1.617  54.243  1.00  0.00     0.166 HD
BRANCH  24  26
HETATM   26  C15 UNL     1      26.767   0.635  53.410  1.00  0.00     0.034 A 
HETATM   27  C16 UNL     1      27.813   1.663  53.645  1.00  0.00     0.032 A 
HETATM   28  C17 UNL     1      29.150   1.363  53.708  1.00  0.00     0.046 A 
HETATM   29  C18 UNL     1      29.515   0.031  53.544  1.00  0.00     0.138 A 
HETATM   30  F1  UNL     1      30.796  -0.331  53.647  1.00  0.00    -0.204 F 
HETATM   31  C19 UNL     1      28.577  -0.996  53.320  1.00  0.00     0.074 A 
HETATM   32 CL1  UNL     1      28.994  -2.701  53.161  1.00  0.00    -0.081 Cl
HETATM   33  C20 UNL     1      27.170  -0.727  53.241  1.00  0.00     0.056 A 
ENDBRANCH  24  26
ENDBRANCH   9  24
TORSDOF 7
ENDMDL
MODEL 2
REMARK VINA RESULT:      -8.3      3.903      5.566
REMARK  7 active torsions:
REMARK  status: ('A' for Active; 'I' for Inactive)
REMARK    1  A    between atoms: N1_2  and  C3_4 
REMARK    2  A    between atoms: C3_4  and  C4_5 
REMARK    3  A    between atoms: C4_5  and  C5_6 
REMARK    4  A    between atoms: C5_6  and  C6_7 
REMARK       I    between atoms: C6_7  and  N2_9 
REMARK    5  A    between atoms: N2_9  and  C7_10 
REMARK    6  A    between atoms: C14_18  and  N4_19 
REMARK    7  A    between atoms: N4_19  and  C15_20 
ROOT
HETATM    1  C7  UNL     1      24.012   0.041  53.044  1.00  0.00     0.036 C 
HETATM    2  C8  UNL     1      23.676   1.026  52.601  1.00  0.00     0.042 C 
HETATM    3  C9  UNL     1      22.751   2.141  51.965  1.00  0.00     0.009 C 
HETATM    4  C10 UNL     1      21.509   2.321  52.444  1.00  0.00     0.001 C 
HETATM    5  C11 UNL     1      20.687   2.229  51.377  1.00  0.00     0.006 C 
HETATM    6  C12 UNL     1      21.137   2.971  50.348  1.00  0.00     0.130 C 
HETATM    7  N3  UNL     1      22.544   3.220  50.011  1.00  0.00    -0.257 NA
HETATM    8  C13 UNL     1      23.444   2.852  50.788  1.00  0.00     0.094 C 
HETATM    9  C14 UNL     1      24.684   2.531  51.238  1.00  0.00     0.060 C 
HETATM   10  C21 UNL     1      25.955   2.391  51.613  1.00  0.00     0.031 C 
HETATM   11  C22 UNL     1      26.931   1.420  52.239  1.00  0.00     0.197 C 
HETATM   12  O2  UNL     1      26.299   0.308  52.497  1.00  0.00    -0.382 OA
HETATM   13  C23 UNL     1      25.458  -0.460  53.046  1.00  0.00     0.225 C 
ENDROOT
BRANCH   1  14
HETATM   14  N2  UNL     1      22.788  -0.709  53.020  1.00  0.00    -0.325 N 
HETATM   15  C6  UNL     1      22.560  -1.109  54.326  1.00  0.00     0.245 C 
HETATM   16  O1  UNL     1      23.149  -0.958  55.429  1.00  0.00    -0.268 OA
HETATM   17  H11 UNL     1      22.061  -0.851  52.201  1.00  0.00     0.169 HD
BRANCH  15  18
HETATM   18  C5  UNL     1      21.293  -1.865  54.465  1.00  0.00     0.072 C 
BRANCH  18  19
HETATM   19  C4  UNL     1      20.316  -1.247  53.813  1.00  0.00     0.008 C 
BRANCH  19  20
HETATM   20  C3  UNL     1      19.149  -0.670  53.256  1.00  0.00     0.299 C 
BRANCH  20  21
HETATM   21  N1  UNL     1      17.858  -1.212  53.430  1.00  0.00     0.083 N 
HETATM   22  C1  UNL     1      17.785  -2.625  53.604  1.00  0.00     0.309 C 
HETATM   23  C2  UNL     1      16.961  -0.642  52.401  1.00  0.00     0.309 C 
ENDBRANCH  20  21
ENDBRANCH  19  20
ENDBRANCH  18  19
ENDBRANCH  15  18
ENDBRANCH   1  14
BRANCH   9  24
HETATM   24  N4  UNL     1      25.339   3.312  50.186  1.00  0.00    -0.354 N 
HETATM   25  H14 UNL     1      25.496   2.904  49.151  1.00  0.00     0.166 HD
BRANCH  24  26
HETATM   26  C15 UNL     1      25.940   4.489  49.715  1.00  0.00     0.034 A 
HETATM   27  C16 UNL     1      27.192   4.444  48.918  1.00  0.00     0.032 A 
HETATM   28  C17 UNL     1      27.822   5.573  48.457  1.00  0.00     0.046 A 
HETATM   29  C18 UNL     1      27.239   6.799  48.760  1.00  0.00     0.138 A 
HETATM   30  F1  UNL     1      27.775   7.930  48.295  1.00  0.00    -0.204 F 
HETATM   31  C19 UNL     1      26.051   6.916  49.508  1.00  0.00     0.074 A 
HETATM   32 CL1  UNL     1      25.253   8.446  49.866  1.00  0.00    -0.081 Cl
HETATM   33  C20 UNL     1      25.363   5.763  50.015  1.00  0.00     0.056 A 
ENDBRANCH  24  26
ENDBRANCH   9  24
TORSDOF 7
ENDMDL
MODEL 3
REMARK VINA RESULT:      -8.0      2.559      3.264
REMARK  7 active torsions:
REMARK  status: ('A' for Active; 'I' for Inactive)
REMARK    1  A    between atoms: N1_2  and  C3_4 
REMARK    2  A    between atoms: C3_4  and  C4_5 
REMARK    3  A    between atoms: C4_5  and  C5_6 
REMARK    4  A    between atoms: C5_6  and  C6_7 
REMARK       I    between atoms: C6_7  and  N2_9 
REMARK    5  A    between atoms: N2_9  and  C7_10 
REMARK    6  A    between atoms: C14_18  and  N4_19 
REMARK    7  A    between atoms: N4_19  and  C15_20 
ROOT
HETATM    1  C7  UNL     1      23.096   3.753  49.675  1.00  0.00     0.036 C 
HETATM    2  C8  UNL     1      23.273   2.818  50.288  1.00  0.00     0.042 C 
HETATM    3  C9  UNL     1      23.015   1.592  51.254  1.00  0.00     0.009 C 
HETATM    4  C10 UNL     1      21.872   0.895  51.145  1.00  0.00     0.001 C 
HETATM    5  C11 UNL     1      21.322   0.892  52.378  1.00  0.00     0.006 C 
HETATM    6  C12 UNL     1      22.232   0.573  53.318  1.00  0.00     0.130 C 
HETATM    7  N3  UNL     1      23.660   0.910  53.290  1.00  0.00    -0.257 NA
HETATM    8  C13 UNL     1      24.160   1.416  52.268  1.00  0.00     0.094 C 
HETATM    9  C14 UNL     1      25.052   2.063  51.475  1.00  0.00     0.060 C 
HETATM   10  C21 UNL     1      26.057   2.570  50.762  1.00  0.00     0.031 C 
HETATM   11  C22 UNL     1      26.420   3.684  49.805  1.00  0.00     0.197 C 
HETATM   12  O2  UNL     1      25.364   4.426  49.616  1.00  0.00    -0.382 OA
HETATM   13  C23 UNL     1      24.194   4.724  49.239  1.00  0.00     0.225 C 
ENDROOT
BRANCH   1  14
HETATM   14  N2  UNL     1      21.711   4.008  49.951  1.00  0.00    -0.325 N 
HETATM   15  C6  UNL     1      21.026   3.694  48.788  1.00  0.00     0.245 C 
HETATM   16  O1  UNL     1      21.342   3.265  47.647  1.00  0.00    -0.268 OA
HETATM   17  H11 UNL     1      21.213   4.262  50.904  1.00  0.00     0.169 HD
BRANCH  15  18
HETATM   18  C5  UNL     1      19.562   3.869  48.938  1.00  0.00     0.072 C 
BRANCH  18  19
HETATM   19  C4  UNL     1      19.204   3.689  50.203  1.00  0.00     0.008 C 
BRANCH  19  20
HETATM   20  C3  UNL     1      18.645   3.433  51.477  1.00  0.00     0.299 C 
BRANCH  20  21
HETATM   21  N1  UNL     1      17.318   2.994  51.667  1.00  0.00     0.083 N 
HETATM   22  C1  UNL     1      16.840   2.017  50.745  1.00  0.00     0.309 C 
HETATM   23  C2  UNL     1      16.449   4.176  51.861  1.00  0.00     0.309 C 
ENDBRANCH  20  21
ENDBRANCH  19  20
ENDBRANCH  18  19
ENDBRANCH  15  18
ENDBRANCH   1  14
BRANCH   9  24
HETATM   24  N4  UNL     1      26.164   1.785  52.386  1.00  0.00    -0.354 N 
HETATM   25  H14 UNL     1      26.390   2.442  53.268  1.00  0.00     0.166 HD
BRANCH  24  26
HETATM   26  C15 UNL     1      27.241   0.994  52.813  1.00  0.00     0.034 A 
HETATM   27  C16 UNL     1      28.439   1.607  53.442  1.00  0.00     0.032 A 
HETATM   28  C17 UNL     1      29.521   0.870  53.854  1.00  0.00     0.046 A 
HETATM   29  C18 UNL     1      29.467  -0.507  53.668  1.00  0.00     0.138 A 
HETATM   30  F1  UNL     1      30.466  -1.282  54.097  1.00  0.00    -0.204 F 
HETATM   31  C19 UNL     1      28.361  -1.155  53.083  1.00  0.00     0.074 A 
HETATM   32 CL1  UNL     1      28.232  -2.901  52.878  1.00  0.00    -0.081 Cl
HETATM   33  C20 UNL     1      27.212  -0.424  52.631  1.00  0.00     0.056 A 
ENDBRANCH  24  26
ENDBRANCH   9  24
TORSDOF 7
ENDMDL
MODEL 4
REMARK VINA RESULT:      -8.0      1.552      2.223
REMARK  7 active torsions:
REMARK  status: ('A' for Active; 'I' for Inactive)
REMARK    1  A    between atoms: N1_2  and  C3_4 
REMARK    2  A    between atoms: C3_4  and  C4_5 
REMARK    3  A    between atoms: C4_5  and  C5_6 
REMARK    4  A    between atoms: C5_6  and  C6_7 
REMARK       I    between atoms: C6_7  and  N2_9 
REMARK    5  A    between atoms: N2_9  and  C7_10 
REMARK    6  A    between atoms: C14_18  and  N4_19 
REMARK    7  A    between atoms: N4_19  and  C15_20 
ROOT
HETATM    1  C7  UNL     1      21.168   1.795  51.461  1.00  0.00     0.036 C 
HETATM    2  C8  UNL     1      21.804   0.994  51.946  1.00  0.00     0.042 C 
HETATM    3  C9  UNL     1      22.234  -0.223  52.861  1.00  0.00     0.009 C 
HETATM    4  C10 UNL     1      21.410  -1.276  52.989  1.00  0.00     0.001 C 
HETATM    5  C11 UNL     1      21.227  -1.442  54.316  1.00  0.00     0.006 C 
HETATM    6  C12 UNL     1      22.398  -1.403  54.979  1.00  0.00     0.130 C 
HETATM    7  N3  UNL     1      23.568  -0.592  54.624  1.00  0.00    -0.257 NA
HETATM    8  C13 UNL     1      23.588   0.033  53.547  1.00  0.00     0.094 C 
HETATM    9  C14 UNL     1      23.972   0.931  52.605  1.00  0.00     0.060 C 
HETATM   10  C21 UNL     1      24.528   1.739  51.703  1.00  0.00     0.031 C 
HETATM   11  C22 UNL     1      24.232   2.888  50.764  1.00  0.00     0.197 C 
HETATM   12  O2  UNL     1      22.975   3.213  50.892  1.00  0.00    -0.382 OA
HETATM   13  C23 UNL     1      21.719   3.077  50.834  1.00  0.00     0.225 C 
ENDROOT
BRANCH   1  14
HETATM   14  N2  UNL     1      19.897   1.559  52.085  1.00  0.00    -0.325 N 
HETATM   15  C6  UNL     1      19.059   1.101  51.083  1.00  0.00     0.245 C 
HETATM   16  O1  UNL     1      19.175   0.865  49.851  1.00  0.00    -0.268 OA
HETATM   17  H11 UNL     1      19.619   1.579  53.154  1.00  0.00     0.169 HD
BRANCH  15  18
HETATM   18  C5  UNL     1      17.707   0.771  51.594  1.00  0.00     0.072 C 
BRANCH  18  19
HETATM   19  C4  UNL     1      16.886   1.799  51.419  1.00  0.00     0.008 C 
BRANCH  19  20
HETATM   20  C3  UNL     1      15.877   2.758  51.165  1.00  0.00     0.299 C 
BRANCH  20  21
HETATM   21  N1  UNL     1      14.942   3.174  52.137  1.00  0.00     0.083 N 
HETATM   22  C1  UNL     1      15.372   4.202  53.026  1.00  0.00     0.309 C 
HETATM   23  C2  UNL     1      14.354   1.975  52.775  1.00  0.00     0.309 C 
ENDBRANCH  20  21
ENDBRANCH  19  20
ENDBRANCH  18  19
ENDBRANCH  15  18
ENDBRANCH   1  14
BRANCH   9  24
HETATM   24  N4  UNL     1      25.305   1.077  53.193  1.00  0.00    -0.354 N 
HETATM   25  H14 UNL     1      25.520   1.824  54.005  1.00  0.00     0.166 HD
BRANCH  24  26
HETATM   26  C15 UNL     1      26.651   0.698  53.310  1.00  0.00     0.034 A 
HETATM   27  C16 UNL     1      27.707   1.703  53.598  1.00  0.00     0.032 A 
HETATM   28  C17 UNL     1      29.036   1.376  53.699  1.00  0.00     0.046 A 
HETATM   29  C18 UNL     1      29.382   0.040  53.524  1.00  0.00     0.138 A 
HETATM   30  F1  UNL     1      30.652  -0.347  53.663  1.00  0.00    -0.204 F 
HETATM   31  C19 UNL     1      28.433  -0.965  53.252  1.00  0.00     0.074 A 
HETATM   32 CL1  UNL     1      28.825  -2.674  53.077  1.00  0.00    -0.081 Cl
HETATM   33  C20 UNL     1      27.035  -0.668  53.131  1.00  0.00     0.056 A 
ENDBRANCH  24  26
ENDBRANCH   9  24
TORSDOF 7
ENDMDL
MODEL 5
REMARK VINA RESULT:      -7.9      1.809      2.286
REMARK  7 active torsions:
REMARK  status: ('A' for Active; 'I' for Inactive)
REMARK    1  A    between atoms: N1_2  and  C3_4 
REMARK    2  A    between atoms: C3_4  and  C4_5 
REMARK    3  A    between atoms: C4_5  and  C5_6 
REMARK    4  A    between atoms: C5_6  and  C6_7 
REMARK       I    between atoms: C6_7  and  N2_9 
REMARK    5  A    between atoms: N2_9  and  C7_10 
REMARK    6  A    between atoms: C14_18  and  N4_19 
REMARK    7  A    between atoms: N4_19  and  C15_20 
ROOT
HETATM    1  C7  UNL     1      21.811   3.042  51.789  1.00  0.00     0.036 C 
HETATM    2  C8  UNL     1      22.002   1.958  52.055  1.00  0.00     0.042 C 
HETATM    3  C9  UNL     1      21.781   0.495  52.613  1.00  0.00     0.009 C 
HETATM    4  C10 UNL     1      20.599  -0.114  52.421  1.00  0.00     0.001 C 
HETATM    5  C11 UNL     1      20.178  -0.497  53.645  1.00  0.00     0.006 C 
HETATM    6  C12 UNL     1      21.161  -1.111  54.330  1.00  0.00     0.130 C 
HETATM    7  N3  UNL     1      22.594  -0.805  54.249  1.00  0.00    -0.257 NA
HETATM    8  C13 UNL     1      23.013  -0.011  53.386  1.00  0.00     0.094 C 
HETATM    9  C14 UNL     1      23.851   0.839  52.739  1.00  0.00     0.060 C 
HETATM   10  C21 UNL     1      24.803   1.529  52.112  1.00  0.00     0.031 C 
HETATM   11  C22 UNL     1      25.123   2.882  51.516  1.00  0.00     0.197 C 
HETATM   12  O2  UNL     1      24.092   3.663  51.689  1.00  0.00    -0.382 OA
HETATM   13  C23 UNL     1      22.907   4.083  51.557  1.00  0.00     0.225 C 
ENDROOT
BRANCH   1  14
HETATM   14  N2  UNL     1      20.475   3.219  52.284  1.00  0.00    -0.325 N 
HETATM   15  C6  UNL     1      19.681   3.435  51.171  1.00  0.00     0.245 C 
HETATM   16  O1  UNL     1      19.873   3.496  49.927  1.00  0.00    -0.268 OA
HETATM   17  H11 UNL     1      20.074   3.082  53.304  1.00  0.00     0.169 HD
BRANCH  15  18
HETATM   18  C5  UNL     1      18.251   3.594  51.527  1.00  0.00     0.072 C 
BRANCH  18  19
HETATM   19  C4  UNL     1      17.650   2.411  51.556  1.00  0.00     0.008 C 
BRANCH  19  20
HETATM   20  C3  UNL     1      17.048   1.141  51.388  1.00  0.00     0.299 C 
BRANCH  20  21
HETATM   21  N1  UNL     1      15.691   0.884  51.673  1.00  0.00     0.083 N 
HETATM   22  C1  UNL     1      14.862   2.026  51.876  1.00  0.00     0.309 C 
HETATM   23  C2  UNL     1      15.614  -0.162  52.716  1.00  0.00     0.309 C 
ENDBRANCH  20  21
ENDBRANCH  19  20
ENDBRANCH  18  19
ENDBRANCH  15  18
ENDBRANCH   1  14
BRANCH   9  24
HETATM   24  N4  UNL     1      25.034   0.270  53.387  1.00  0.00    -0.354 N 
HETATM   25  H14 UNL     1      24.960  -0.379  54.302  1.00  0.00     0.166 HD
BRANCH  24  26
HETATM   26  C15 UNL     1      26.419   0.056  53.459  1.00  0.00     0.034 A 
HETATM   27  C16 UNL     1      27.029  -1.197  52.945  1.00  0.00     0.032 A 
HETATM   28  C17 UNL     1      28.375  -1.453  53.016  1.00  0.00     0.046 A 
HETATM   29  C18 UNL     1      29.182  -0.479  53.596  1.00  0.00     0.138 A 
HETATM   30  F1  UNL     1      30.505  -0.647  53.646  1.00  0.00    -0.204 F 
HETATM   31  C19 UNL     1      28.672   0.733  54.101  1.00  0.00     0.074 A 
HETATM   32 CL1  UNL     1      29.666   2.013  54.794  1.00  0.00    -0.081 Cl
HETATM   33  C20 UNL     1      27.271   1.039  54.054  1.00  0.00     0.056 A 
ENDBRANCH  24  26
ENDBRANCH   9  24
TORSDOF 7
ENDMDL
MODEL 6
REMARK VINA RESULT:      -7.9      3.097      5.909
REMARK  7 active torsions:
REMARK  status: ('A' for Active; 'I' for Inactive)
REMARK    1  A    between atoms: N1_2  and  C3_4 
REMARK    2  A    between atoms: C3_4  and  C4_5 
REMARK    3  A    between atoms: C4_5  and  C5_6 
REMARK    4  A    between atoms: C5_6  and  C6_7 
REMARK       I    between atoms: C6_7  and  N2_9 
REMARK    5  A    between atoms: N2_9  and  C7_10 
REMARK    6  A    between atoms: C14_18  and  N4_19 
REMARK    7  A    between atoms: N4_19  and  C15_20 
ROOT
HETATM    1  C7  UNL     1      22.317   1.765  50.216  1.00  0.00     0.036 C 
HETATM    2  C8  UNL     1      23.237   2.312  50.584  1.00  0.00     0.042 C 
HETATM    3  C9  UNL     1      24.550   3.194  50.588  1.00  0.00     0.009 C 
HETATM    4  C10 UNL     1      24.594   4.315  49.850  1.00  0.00     0.001 C 
HETATM    5  C11 UNL     1      25.692   4.201  49.072  1.00  0.00     0.006 C 
HETATM    6  C12 UNL     1      26.762   3.811  49.790  1.00  0.00     0.130 C 
HETATM    7  N3  UNL     1      26.745   2.914  50.951  1.00  0.00    -0.257 NA
HETATM    8  C13 UNL     1      25.659   2.559  51.447  1.00  0.00     0.094 C 
HETATM    9  C14 UNL     1      24.771   1.849  52.188  1.00  0.00     0.060 C 
HETATM   10  C21 UNL     1      24.018   1.186  53.065  1.00  0.00     0.031 C 
HETATM   11  C22 UNL     1      22.763   0.351  53.194  1.00  0.00     0.197 C 
HETATM   12  O2  UNL     1      22.227   0.226  52.011  1.00  0.00    -0.382 OA
HETATM   13  C23 UNL     1      21.664   0.585  50.938  1.00  0.00     0.225 C 
ENDROOT
BRANCH   1  14
HETATM   14  N2  UNL     1      22.357   2.066  48.813  1.00  0.00    -0.325 N 
HETATM   15  C6  UNL     1      21.358   3.000  48.594  1.00  0.00     0.245 C 
HETATM   16  O1  UNL     1      20.506   3.589  49.311  1.00  0.00    -0.268 OA
HETATM   17  H11 UNL     1      23.090   1.764  48.044  1.00  0.00     0.169 HD
BRANCH  15  18
HETATM   18  C5  UNL     1      21.307   3.443  47.181  1.00  0.00     0.072 C 
BRANCH  18  19
HETATM   19  C4  UNL     1      21.835   4.654  47.060  1.00  0.00     0.008 C 
BRANCH  19  20
HETATM   20  C3  UNL     1      22.576   5.857  46.975  1.00  0.00     0.299 C 
BRANCH  20  21
HETATM   21  N1  UNL     1      22.683   6.778  48.038  1.00  0.00     0.083 N 
HETATM   22  C1  UNL     1      21.539   7.591  48.286  1.00  0.00     0.309 C 
HETATM   23  C2  UNL     1      23.970   7.498  47.915  1.00  0.00     0.309 C 
ENDBRANCH  20  21
ENDBRANCH  19  20
ENDBRANCH  18  19
ENDBRANCH  15  18
ENDBRANCH   1  14
BRANCH   9  24
HETATM   24  N4  UNL     1      25.818   1.345  53.079  1.00  0.00    -0.354 N 
HETATM   25  H14 UNL     1      25.725   1.398  54.198  1.00  0.00     0.166 HD
BRANCH  24  26
HETATM   26  C15 UNL     1      27.050   0.711  53.302  1.00  0.00     0.034 A 
HETATM   27  C16 UNL     1      28.225   1.473  53.798  1.00  0.00     0.032 A 
HETATM   28  C17 UNL     1      29.451   0.895  54.008  1.00  0.00     0.046 A 
HETATM   29  C18 UNL     1      29.572  -0.465  53.741  1.00  0.00     0.138 A 
HETATM   30  F1  UNL     1      30.725  -1.095  53.977  1.00  0.00    -0.204 F 
HETATM   31  C19 UNL     1      28.499  -1.249  53.273  1.00  0.00     0.074 A 
HETATM   32 CL1  UNL     1      28.597  -2.984  52.975  1.00  0.00    -0.081 Cl
HETATM   33  C20 UNL     1      27.202  -0.685  53.033  1.00  0.00     0.056 A 
ENDBRANCH  24  26
ENDBRANCH   9  24
TORSDOF 7
ENDMDL
MODEL 7
REMARK VINA RESULT:      -7.9      2.655      4.980
REMARK  7 active torsions:
REMARK  status: ('A' for Active; 'I' for Inactive)
REMARK    1  A    between atoms: N1_2  and  C3_4 
REMARK    2  A    between atoms: C3_4  and  C4_5 
REMARK    3  A    between atoms: C4_5  and  C5_6 
REMARK    4  A    between atoms: C5_6  and  C6_7 
REMARK       I    between atoms: C6_7  and  N2_9 
REMARK    5  A    between atoms: N2_9  and  C7_10 
REMARK    6  A    between atoms: C14_18  and  N4_19 
REMARK    7  A    between atoms: N4_19  and  C15_20 
ROOT
HETATM    1  C7  UNL     1      21.229   1.534  51.876  1.00  0.00     0.036 C 
HETATM    2  C8  UNL     1      22.307   1.874  51.948  1.00  0.00     0.042 C 
HETATM    3  C9  UNL     1      23.664   2.620  51.626  1.00  0.00     0.009 C 
HETATM    4  C10 UNL     1      23.636   3.913  51.262  1.00  0.00     0.001 C 
HETATM    5  C11 UNL     1      24.306   3.980  50.092  1.00  0.00     0.006 C 
HETATM    6  C12 UNL     1      25.473   3.312  50.158  1.00  0.00     0.130 C 
HETATM    7  N3  UNL     1      25.731   2.095  50.936  1.00  0.00    -0.257 NA
HETATM    8  C13 UNL     1      24.873   1.673  51.733  1.00  0.00     0.094 C 
HETATM    9  C14 UNL     1      24.219   0.824  52.566  1.00  0.00     0.060 C 
HETATM   10  C21 UNL     1      23.748  -0.033  53.471  1.00  0.00     0.031 C 
HETATM   11  C22 UNL     1      22.504  -0.781  53.897  1.00  0.00     0.197 C 
HETATM   12  O2  UNL     1      21.541  -0.487  53.067  1.00  0.00    -0.382 OA
HETATM   13  C23 UNL     1      20.689   0.232  52.470  1.00  0.00     0.225 C 
ENDROOT
BRANCH   1  14
HETATM   14  N2  UNL     1      20.784   2.264  50.723  1.00  0.00    -0.325 N 
HETATM   15  C6  UNL     1      19.907   3.226  51.194  1.00  0.00     0.245 C 
HETATM   16  O1  UNL     1      19.466   3.564  52.325  1.00  0.00    -0.268 OA
HETATM   17  H11 UNL     1      21.134   2.216  49.676  1.00  0.00     0.169 HD
BRANCH  15  18
HETATM   18  C5  UNL     1      19.393   4.094  50.108  1.00  0.00     0.072 C 
BRANCH  18  19
HETATM   19  C4  UNL     1      20.215   4.061  49.067  1.00  0.00     0.008 C 
BRANCH  19  20
HETATM   20  C3  UNL     1      21.145   4.215  48.011  1.00  0.00     0.299 C 
BRANCH  20  21
HETATM   21  N1  UNL     1      21.486   3.174  47.122  1.00  0.00     0.083 N 
HETATM   22  C1  UNL     1      22.399   2.198  47.615  1.00  0.00     0.309 C 
HETATM   23  C2  UNL     1      21.821   3.764  45.807  1.00  0.00     0.309 C 
ENDBRANCH  20  21
ENDBRANCH  19  20
ENDBRANCH  18  19
ENDBRANCH  15  18
ENDBRANCH   1  14
BRANCH   9  24
HETATM   24  N4  UNL     1      25.409  -0.006  52.762  1.00  0.00    -0.354 N 
HETATM   25  H14 UNL     1      25.403  -1.113  52.569  1.00  0.00     0.166 HD
BRANCH  24  26
HETATM   26  C15 UNL     1      26.765  -0.162  53.087  1.00  0.00     0.034 A 
HETATM   27  C16 UNL     1      27.476  -1.438  52.817  1.00  0.00     0.032 A 
HETATM   28  C17 UNL     1      28.795  -1.637  53.139  1.00  0.00     0.046 A 
HETATM   29  C18 UNL     1      29.473  -0.583  53.741  1.00  0.00     0.138 A 
HETATM   30  F1  UNL     1      30.772  -0.698  54.030  1.00  0.00    -0.204 F 
HETATM   31  C19 UNL     1      28.863   0.655  54.023  1.00  0.00     0.074 A 
HETATM   32 CL1  UNL     1      29.701   2.033  54.735  1.00  0.00    -0.081 Cl
HETATM   33  C20 UNL     1      27.485   0.905  53.710  1.00  0.00     0.056 A 
ENDBRANCH  24  26
ENDBRANCH   9  24
TORSDOF 7
ENDMDL
MODEL 8
REMARK VINA RESULT:      -7.7      4.827      9.412
REMARK  7 active torsions:
REMARK  status: ('A' for Active; 'I' for Inactive)
REMARK    1  A    between atoms: N1_2  and  C3_4 
REMARK    2  A    between atoms: C3_4  and  C4_5 
REMARK    3  A    between atoms: C4_5  and  C5_6 
REMARK    4  A    between atoms: C5_6  and  C6_7 
REMARK       I    between atoms: C6_7  and  N2_9 
REMARK    5  A    between atoms: N2_9  and  C7_10 
REMARK    6  A    between atoms: C14_18  and  N4_19 
REMARK    7  A    between atoms: N4_19  and  C15_20 
ROOT
HETATM    1  C7  UNL     1      25.899   3.665  50.422  1.00  0.00     0.036 C 
HETATM    2  C8  UNL     1      24.778   3.537  50.338  1.00  0.00     0.042 C 
HETATM    3  C9  UNL     1      23.251   3.861  50.082  1.00  0.00     0.009 C 
HETATM    4  C10 UNL     1      22.904   4.608  49.020  1.00  0.00     0.001 C 
HETATM    5  C11 UNL     1      22.163   5.624  49.511  1.00  0.00     0.006 C 
HETATM    6  C12 UNL     1      21.227   5.176  50.368  1.00  0.00     0.130 C 
HETATM    7  N3  UNL     1      21.360   4.029  51.274  1.00  0.00    -0.257 NA
HETATM    8  C13 UNL     1      22.353   3.282  51.190  1.00  0.00     0.094 C 
HETATM    9  C14 UNL     1      23.267   2.338  51.530  1.00  0.00     0.060 C 
HETATM   10  C21 UNL     1      24.012   1.296  51.895  1.00  0.00     0.031 C 
HETATM   11  C22 UNL     1      25.438   0.856  52.144  1.00  0.00     0.197 C 
HETATM   12  O2  UNL     1      26.227   1.874  51.933  1.00  0.00    -0.382 OA
HETATM   13  C23 UNL     1      26.810   2.787  51.282  1.00  0.00     0.225 C 
ENDROOT
BRANCH   1  14
HETATM   14  N2  UNL     1      26.052   5.041  50.044  1.00  0.00    -0.325 N 
HETATM   15  C6  UNL     1      27.039   5.064  49.074  1.00  0.00     0.245 C 
HETATM   16  O1  UNL     1      27.759   4.202  48.503  1.00  0.00    -0.268 OA
HETATM   17  H11 UNL     1      25.447   5.923  50.322  1.00  0.00     0.169 HD
BRANCH  15  18
HETATM   18  C5  UNL     1      27.278   6.431  48.551  1.00  0.00     0.072 C 
BRANCH  18  19
HETATM   19  C4  UNL     1      28.564   6.598  48.273  1.00  0.00     0.008 C 
BRANCH  19  20
HETATM   20  C3  UNL     1      29.970   6.734  48.173  1.00  0.00     0.299 C 
BRANCH  20  21
HETATM   21  N1  UNL     1      30.878   5.794  48.705  1.00  0.00     0.083 N 
HETATM   22  C1  UNL     1      31.869   6.308  49.592  1.00  0.00     0.309 C 
HETATM   23  C2  UNL     1      31.380   4.943  47.603  1.00  0.00     0.309 C 
ENDBRANCH  20  21
ENDBRANCH  19  20
ENDBRANCH  18  19
ENDBRANCH  15  18
ENDBRANCH   1  14
BRANCH   9  24
HETATM   24  N4  UNL     1      22.361   1.715  52.496  1.00  0.00    -0.354 N 
HETATM   25  H14 UNL     1      22.193   2.146  53.520  1.00  0.00     0.166 HD
BRANCH  24  26
HETATM   26  C15 UNL     1      21.432   0.727  52.859  1.00  0.00     0.034 A 
HETATM   27  C16 UNL     1      21.728  -0.239  53.949  1.00  0.00     0.032 A 
HETATM   28  C17 UNL     1      20.856  -1.232  54.319  1.00  0.00     0.046 A 
HETATM   29  C18 UNL     1      19.650  -1.313  53.631  1.00  0.00     0.138 A 
HETATM   30  F1  UNL     1      18.739  -2.225  53.981  1.00  0.00    -0.204 F 
HETATM   31  C19 UNL     1      19.303  -0.430  52.591  1.00  0.00     0.074 A 
HETATM   32 CL1  UNL     1      17.764  -0.467  51.732  1.00  0.00    -0.081 Cl
HETATM   33  C20 UNL     1      20.186   0.618  52.166  1.00  0.00     0.056 A 
ENDBRANCH  24  26
ENDBRANCH   9  24
TORSDOF 7
ENDMDL
MODEL 9
REMARK VINA RESULT:      -7.6      3.626      5.852
REMARK  7 active torsions:
REMARK  status: ('A' for Active; 'I' for Inactive)
REMARK    1  A    between atoms: N1_2  and  C3_4 
REMARK    2  A    between atoms: C3_4  and  C4_5 
REMARK    3  A    between atoms: C4_5  and  C5_6 
REMARK    4  A    between atoms: C5_6  and  C6_7 
REMARK       I    between atoms: C6_7  and  N2_9 
REMARK    5  A    between atoms: N2_9  and  C7_10 
REMARK    6  A    between atoms: C14_18  and  N4_19 
REMARK    7  A    between atoms: N4_19  and  C15_20 
ROOT
HETATM    1  C7  UNL     1      22.342   3.982  50.559  1.00  0.00     0.036 C 
HETATM    2  C8  UNL     1      23.465   3.995  50.696  1.00  0.00     0.042 C 
HETATM    3  C9  UNL     1      24.998   4.295  50.447  1.00  0.00     0.009 C 
HETATM    4  C10 UNL     1      25.374   5.521  50.044  1.00  0.00     0.001 C 
HETATM    5  C11 UNL     1      26.100   5.333  48.922  1.00  0.00     0.006 C 
HETATM    6  C12 UNL     1      27.013   4.357  49.088  1.00  0.00     0.130 C 
HETATM    7  N3  UNL     1      26.856   3.157  49.917  1.00  0.00    -0.257 NA
HETATM    8  C13 UNL     1      25.866   3.043  50.665  1.00  0.00     0.094 C 
HETATM    9  C14 UNL     1      24.944   2.463  51.475  1.00  0.00     0.060 C 
HETATM   10  C21 UNL     1      24.191   1.826  52.371  1.00  0.00     0.031 C 
HETATM   11  C22 UNL     1      22.760   1.495  52.731  1.00  0.00     0.197 C 
HETATM   12  O2  UNL     1      21.976   2.018  51.828  1.00  0.00    -0.382 OA
HETATM   13  C23 UNL     1      21.409   2.924  51.153  1.00  0.00     0.225 C 
ENDROOT
BRANCH   1  14
HETATM   14  N2  UNL     1      22.198   4.752  49.357  1.00  0.00    -0.325 N 
HETATM   15  C6  UNL     1      21.639   5.959  49.742  1.00  0.00     0.245 C 
HETATM   16  O1  UNL     1      21.271   6.473  50.831  1.00  0.00    -0.268 OA
HETATM   17  H11 UNL     1      22.566   4.547  48.336  1.00  0.00     0.169 HD
BRANCH  15  18
HETATM   18  C5  UNL     1      21.470   6.887  48.598  1.00  0.00     0.072 C 
BRANCH  18  19
HETATM   19  C4  UNL     1      20.822   6.283  47.610  1.00  0.00     0.008 C 
BRANCH  19  20
HETATM   20  C3  UNL     1      20.279   5.708  46.435  1.00  0.00     0.299 C 
BRANCH  20  21
HETATM   21  N1  UNL     1      20.427   4.345  46.101  1.00  0.00     0.083 N 
HETATM   22  C1  UNL     1      19.823   3.409  46.990  1.00  0.00     0.309 C 
HETATM   23  C2  UNL     1      21.845   4.090  45.762  1.00  0.00     0.309 C 
ENDBRANCH  20  21
ENDBRANCH  19  20
ENDBRANCH  18  19
ENDBRANCH  15  18
ENDBRANCH   1  14
BRANCH   9  24
HETATM   24  N4  UNL     1      25.824   1.332  51.777  1.00  0.00    -0.354 N 
HETATM   25  H14 UNL     1      25.690   0.327  51.294  1.00  0.00     0.166 HD
BRANCH  24  26
HETATM   26  C15 UNL     1      26.930   0.769  52.433  1.00  0.00     0.034 A 
HETATM   27  C16 UNL     1      27.910   1.623  53.153  1.00  0.00     0.032 A 
HETATM   28  C17 UNL     1      29.014   1.113  53.788  1.00  0.00     0.046 A 
HETATM   29  C18 UNL     1      29.199  -0.264  53.743  1.00  0.00     0.138 A 
HETATM   30  F1  UNL     1      30.226  -0.825  54.387  1.00  0.00    -0.204 F 
HETATM   31  C19 UNL     1      28.310  -1.133  53.082  1.00  0.00     0.074 A 
HETATM   32 CL1  UNL     1      28.480  -2.887  53.048  1.00  0.00    -0.081 Cl
HETATM   33  C20 UNL     1      27.146  -0.644  52.399  1.00  0.00     0.056 A 
ENDBRANCH  24  26
ENDBRANCH   9  24
TORSDOF 7
ENDMDL
