MODEL 1
REMARK VINA RESULT:      -8.1      0.000      0.000
REMARK  7 active torsions:
REMARK  status: ('A' for Active; 'I' for Inactive)
REMARK    1  A    between atoms: C5_5  and  N1_6 
REMARK    2  A    between atoms: N1_6  and  C7_8 
REMARK    3  A    between atoms: C7_8  and  O1_9 
REMARK    4  A    between atoms: O1_9  and  C8_10 
REMARK    5  A    between atoms: C10_13  and  N2_14 
REMARK    6  A    between atoms: N2_14  and  C11_15 
REMARK    7  A    between atoms: C14_19  and  C15_20 
ROOT
HETATM    1  N2  UNL     1      22.108   0.728  52.202  1.00  0.00    -0.188 N 
HETATM    2  H13 UNL     1      21.092   0.866  52.337  1.00  0.00     0.184 HD
ENDROOT
BRANCH   1   3
HETATM    3  C10 UNL     1      22.934   0.114  53.165  1.00  0.00     0.057 A 
HETATM    4  C2  UNL     1      22.356  -0.524  54.261  1.00  0.00    -0.035 A 
HETATM    5  C1  UNL     1      20.889  -0.574  54.480  1.00  0.00     0.050 C 
HETATM    6  C3  UNL     1      23.181  -1.132  55.176  1.00  0.00     0.011 A 
HETATM    7  C4  UNL     1      24.574  -1.130  55.042  1.00  0.00     0.030 A 
HETATM    8  C5  UNL     1      25.198  -0.500  53.955  1.00  0.00     0.033 A 
HETATM    9  C9  UNL     1      24.301   0.081  53.092  1.00  0.00     0.060 A 
BRANCH   8  10
HETATM   10  N1  UNL     1      26.607  -0.486  53.788  1.00  0.00    -0.363 N 
HETATM   11  C6  UNL     1      27.020  -1.338  52.688  1.00  0.00     0.152 C 
BRANCH  10  12
HETATM   12  C7  UNL     1      27.295   0.374  54.740  1.00  0.00     0.303 C 
BRANCH  12  13
HETATM   13  O1  UNL     1      27.256   1.733  54.413  1.00  0.00    -0.308 OA
BRANCH  13  14
HETATM   14  C8  UNL     1      28.152   2.232  53.472  1.00  0.00     0.399 C 
HETATM   15  O2  UNL     1      27.815   2.398  52.251  1.00  0.00    -0.276 OA
ENDBRANCH  13  14
ENDBRANCH  12  13
ENDBRANCH  10  12
ENDBRANCH   8  10
ENDBRANCH   1   3
BRANCH   1  16
HETATM   16  C11 UNL     1      22.307   1.288  50.920  1.00  0.00     0.727 A 
HETATM   17  N3  UNL     1      21.460   0.886  49.947  1.00  0.00    -0.075 NA
HETATM   18  C12 UNL     1      21.527   1.346  48.696  1.00  0.00     0.139 A 
HETATM   19  C13 UNL     1      22.494   2.269  48.368  1.00  0.00     0.053 A 
HETATM   20  C14 UNL     1      23.356   2.689  49.321  1.00  0.00     0.089 A 
HETATM   21  N5  UNL     1      23.256   2.195  50.593  1.00  0.00    -0.062 NA
BRANCH  20  22
HETATM   22  C15 UNL     1      24.437   3.651  49.230  1.00  0.00     0.011 A 
HETATM   23  C16 UNL     1      25.758   3.382  49.471  1.00  0.00     0.017 A 
HETATM   24  C17 UNL     1      26.698   4.401  49.356  1.00  0.00     0.020 A 
HETATM   25  C18 UNL     1      26.329   5.685  49.003  1.00  0.00     0.116 A 
HETATM   26  N4  UNL     1      25.014   5.974  48.756  1.00  0.00    -0.272 NA
HETATM   27  C19 UNL     1      24.123   4.944  48.881  1.00  0.00     0.130 A 
ENDBRANCH  20  22
ENDBRANCH   1  16
TORSDOF 7
ENDMDL
MODEL 2
REMARK VINA RESULT:      -8.1      2.149      2.976
REMARK  7 active torsions:
REMARK  status: ('A' for Active; 'I' for Inactive)
REMARK    1  A    between atoms: C5_5  and  N1_6 
REMARK    2  A    between atoms: N1_6  and  C7_8 
REMARK    3  A    between atoms: C7_8  and  O1_9 
REMARK    4  A    between atoms: O1_9  and  C8_10 
REMARK    5  A    between atoms: C10_13  and  N2_14 
REMARK    6  A    between atoms: N2_14  and  C11_15 
REMARK    7  A    between atoms: C14_19  and  C15_20 
ROOT
HETATM    1  N2  UNL     1      23.686   3.150  52.384  1.00  0.00    -0.188 N 
HETATM    2  H13 UNL     1      22.957   3.667  52.903  1.00  0.00     0.184 HD
ENDROOT
BRANCH   1   3
HETATM    3  C10 UNL     1      24.373   2.042  52.922  1.00  0.00     0.057 A 
HETATM    4  C2  UNL     1      23.686   0.850  53.144  1.00  0.00    -0.035 A 
HETATM    5  C1  UNL     1      22.239   0.691  52.858  1.00  0.00     0.050 C 
HETATM    6  C3  UNL     1      24.381  -0.221  53.652  1.00  0.00     0.011 A 
HETATM    7  C4  UNL     1      25.747  -0.153  53.948  1.00  0.00     0.030 A 
HETATM    8  C5  UNL     1      26.476   1.028  53.740  1.00  0.00     0.033 A 
HETATM    9  C9  UNL     1      25.706   2.045  53.233  1.00  0.00     0.060 A 
BRANCH   8  10
HETATM   10  N1  UNL     1      27.863   1.126  54.025  1.00  0.00    -0.363 N 
HETATM   11  C6  UNL     1      28.415   2.381  53.548  1.00  0.00     0.152 C 
BRANCH  10  12
HETATM   12  C7  UNL     1      28.395  -0.033  54.727  1.00  0.00     0.303 C 
BRANCH  12  13
HETATM   13  O1  UNL     1      29.570  -0.546  54.171  1.00  0.00    -0.308 OA
BRANCH  13  14
HETATM   14  C8  UNL     1      29.516  -1.727  53.435  1.00  0.00     0.399 C 
HETATM   15  O2  UNL     1      28.411  -2.332  53.225  1.00  0.00    -0.276 OA
ENDBRANCH  13  14
ENDBRANCH  12  13
ENDBRANCH  10  12
ENDBRANCH   8  10
ENDBRANCH   1   3
BRANCH   1  16
HETATM   16  C11 UNL     1      23.720   3.852  51.158  1.00  0.00     0.727 A 
HETATM   17  N3  UNL     1      22.531   4.073  50.556  1.00  0.00    -0.075 NA
HETATM   18  C12 UNL     1      22.418   4.736  49.403  1.00  0.00     0.139 A 
HETATM   19  C13 UNL     1      23.551   5.220  48.789  1.00  0.00     0.053 A 
HETATM   20  C14 UNL     1      24.755   5.012  49.368  1.00  0.00     0.089 A 
HETATM   21  N5  UNL     1      24.831   4.329  50.551  1.00  0.00    -0.062 NA
BRANCH  20  22
HETATM   22  C15 UNL     1      26.074   5.428  48.932  1.00  0.00     0.011 A 
HETATM   23  C16 UNL     1      26.393   6.671  48.453  1.00  0.00     0.017 A 
HETATM   24  C17 UNL     1      27.700   6.940  48.059  1.00  0.00     0.020 A 
HETATM   25  C18 UNL     1      28.689   5.978  48.141  1.00  0.00     0.116 A 
HETATM   26  N4  UNL     1      28.391   4.730  48.619  1.00  0.00    -0.272 NA
HETATM   27  C19 UNL     1      27.094   4.508  48.993  1.00  0.00     0.130 A 
ENDBRANCH  20  22
ENDBRANCH   1  16
TORSDOF 7
ENDMDL
MODEL 3
REMARK VINA RESULT:      -7.9      1.861      2.534
REMARK  7 active torsions:
REMARK  status: ('A' for Active; 'I' for Inactive)
REMARK    1  A    between atoms: C5_5  and  N1_6 
REMARK    2  A    between atoms: N1_6  and  C7_8 
REMARK    3  A    between atoms: C7_8  and  O1_9 
REMARK    4  A    between atoms: O1_9  and  C8_10 
REMARK    5  A    between atoms: C10_13  and  N2_14 
REMARK    6  A    between atoms: N2_14  and  C11_15 
REMARK    7  A    between atoms: C14_19  and  C15_20 
ROOT
HETATM    1  N2  UNL     1      23.589   3.402  52.300  1.00  0.00    -0.188 N 
HETATM    2  H13 UNL     1      23.363   4.186  52.934  1.00  0.00     0.184 HD
ENDROOT
BRANCH   1   3
HETATM    3  C10 UNL     1      23.730   2.071  52.744  1.00  0.00     0.057 A 
HETATM    4  C2  UNL     1      22.594   1.282  52.921  1.00  0.00    -0.035 A 
HETATM    5  C1  UNL     1      21.220   1.787  52.681  1.00  0.00     0.050 C 
HETATM    6  C3  UNL     1      22.757  -0.017  53.337  1.00  0.00     0.011 A 
HETATM    7  C4  UNL     1      24.020  -0.569  53.585  1.00  0.00     0.030 A 
HETATM    8  C5  UNL     1      25.188   0.189  53.419  1.00  0.00     0.033 A 
HETATM    9  C9  UNL     1      24.934   1.473  53.004  1.00  0.00     0.060 A 
BRANCH   8  10
HETATM   10  N1  UNL     1      26.482  -0.343  53.657  1.00  0.00    -0.363 N 
HETATM   11  C6  UNL     1      26.806  -1.393  52.709  1.00  0.00     0.152 C 
BRANCH  10  12
HETATM   12  C7  UNL     1      27.172   0.286  54.774  1.00  0.00     0.303 C 
BRANCH  12  13
HETATM   13  O1  UNL     1      28.554   0.400  54.598  1.00  0.00    -0.308 OA
BRANCH  13  14
HETATM   14  C8  UNL     1      29.080   1.586  54.091  1.00  0.00     0.399 C 
HETATM   15  O2  UNL     1      28.677   2.074  52.982  1.00  0.00    -0.276 OA
ENDBRANCH  13  14
ENDBRANCH  12  13
ENDBRANCH  10  12
ENDBRANCH   8  10
ENDBRANCH   1   3
BRANCH   1  16
HETATM   16  C11 UNL     1      23.684   4.057  51.052  1.00  0.00     0.727 A 
HETATM   17  N3  UNL     1      22.523   4.275  50.395  1.00  0.00    -0.075 NA
HETATM   18  C12 UNL     1      22.468   4.897  49.215  1.00  0.00     0.139 A 
HETATM   19  C13 UNL     1      23.632   5.340  48.631  1.00  0.00     0.053 A 
HETATM   20  C14 UNL     1      24.808   5.136  49.265  1.00  0.00     0.089 A 
HETATM   21  N5  UNL     1      24.825   4.495  50.474  1.00  0.00    -0.062 NA
BRANCH  20  22
HETATM   22  C15 UNL     1      26.150   5.516  48.868  1.00  0.00     0.011 A 
HETATM   23  C16 UNL     1      26.523   6.757  48.425  1.00  0.00     0.017 A 
HETATM   24  C17 UNL     1      27.847   6.989  48.066  1.00  0.00     0.020 A 
HETATM   25  C18 UNL     1      28.800   5.992  48.148  1.00  0.00     0.116 A 
HETATM   26  N4  UNL     1      28.448   4.745  48.590  1.00  0.00    -0.272 NA
HETATM   27  C19 UNL     1      27.137   4.559  48.930  1.00  0.00     0.130 A 
ENDBRANCH  20  22
ENDBRANCH   1  16
TORSDOF 7
ENDMDL
MODEL 4
REMARK VINA RESULT:      -7.8      3.551      7.841
REMARK  7 active torsions:
REMARK  status: ('A' for Active; 'I' for Inactive)
REMARK    1  A    between atoms: C5_5  and  N1_6 
REMARK    2  A    between atoms: N1_6  and  C7_8 
REMARK    3  A    between atoms: C7_8  and  O1_9 
REMARK    4  A    between atoms: O1_9  and  C8_10 
REMARK    5  A    between atoms: C10_13  and  N2_14 
REMARK    6  A    between atoms: N2_14  and  C11_15 
REMARK    7  A    between atoms: C14_19  and  C15_20 
ROOT
HETATM    1  N2  UNL     1      26.204   3.555  49.431  1.00  0.00    -0.188 N 
HETATM    2  H13 UNL     1      25.838   2.801  48.825  1.00  0.00     0.184 HD
ENDROOT
BRANCH   1   3
HETATM    3  C10 UNL     1      26.691   4.778  48.926  1.00  0.00     0.057 A 
HETATM    4  C2  UNL     1      25.805   5.832  48.708  1.00  0.00    -0.035 A 
HETATM    5  C1  UNL     1      24.348   5.724  48.965  1.00  0.00     0.050 C 
HETATM    6  C3  UNL     1      26.306   7.020  48.233  1.00  0.00     0.011 A 
HETATM    7  C4  UNL     1      27.668   7.203  47.966  1.00  0.00     0.030 A 
HETATM    8  C5  UNL     1      28.593   6.169  48.172  1.00  0.00     0.033 A 
HETATM    9  C9  UNL     1      28.008   5.020  48.645  1.00  0.00     0.060 A 
BRANCH   8  10
HETATM   10  N1  UNL     1      29.980   6.326  47.915  1.00  0.00    -0.363 N 
HETATM   11  C6  UNL     1      30.358   7.726  47.880  1.00  0.00     0.152 C 
BRANCH  10  12
HETATM   12  C7  UNL     1      30.687   5.063  47.760  1.00  0.00     0.303 C 
BRANCH  12  13
HETATM   13  O1  UNL     1      31.727   4.875  48.675  1.00  0.00    -0.308 OA
BRANCH  13  14
HETATM   14  C8  UNL     1      33.043   5.050  48.255  1.00  0.00     0.399 C 
HETATM   15  O2  UNL     1      33.867   5.764  48.920  1.00  0.00    -0.276 OA
ENDBRANCH  13  14
ENDBRANCH  12  13
ENDBRANCH  10  12
ENDBRANCH   8  10
ENDBRANCH   1   3
BRANCH   1  16
HETATM   16  C11 UNL     1      26.053   2.990  50.717  1.00  0.00     0.727 A 
HETATM   17  N3  UNL     1      24.953   3.357  51.412  1.00  0.00    -0.075 NA
HETATM   18  C12 UNL     1      24.681   2.887  52.632  1.00  0.00     0.139 A 
HETATM   19  C13 UNL     1      25.545   1.991  53.219  1.00  0.00     0.053 A 
HETATM   20  C14 UNL     1      26.654   1.607  52.547  1.00  0.00     0.089 A 
HETATM   21  N5  UNL     1      26.899   2.110  51.298  1.00  0.00    -0.062 NA
BRANCH  20  22
HETATM   22  C15 UNL     1      27.696   0.678  52.938  1.00  0.00     0.011 A 
HETATM   23  C16 UNL     1      28.970   1.025  53.301  1.00  0.00     0.017 A 
HETATM   24  C17 UNL     1      29.880   0.032  53.648  1.00  0.00     0.020 A 
HETATM   25  C18 UNL     1      29.527  -1.304  53.636  1.00  0.00     0.116 A 
HETATM   26  N4  UNL     1      28.258  -1.672  53.278  1.00  0.00    -0.272 NA
HETATM   27  C19 UNL     1      27.396  -0.665  52.942  1.00  0.00     0.130 A 
ENDBRANCH  20  22
ENDBRANCH   1  16
TORSDOF 7
ENDMDL
MODEL 5
REMARK VINA RESULT:      -7.7      2.647      6.215
REMARK  7 active torsions:
REMARK  status: ('A' for Active; 'I' for Inactive)
REMARK    1  A    between atoms: C5_5  and  N1_6 
REMARK    2  A    between atoms: N1_6  and  C7_8 
REMARK    3  A    between atoms: C7_8  and  O1_9 
REMARK    4  A    between atoms: O1_9  and  C8_10 
REMARK    5  A    between atoms: C10_13  and  N2_14 
REMARK    6  A    between atoms: N2_14  and  C11_15 
REMARK    7  A    between atoms: C14_19  and  C15_20 
ROOT
HETATM    1  N2  UNL     1      22.988   1.681  53.076  1.00  0.00    -0.188 N 
HETATM    2  H13 UNL     1      22.366   2.484  53.267  1.00  0.00     0.184 HD
ENDROOT
BRANCH   1   3
HETATM    3  C10 UNL     1      24.303   1.826  52.586  1.00  0.00     0.057 A 
HETATM    4  C2  UNL     1      24.504   2.261  51.278  1.00  0.00    -0.035 A 
HETATM    5  C1  UNL     1      23.386   2.565  50.350  1.00  0.00     0.050 C 
HETATM    6  C3  UNL     1      25.794   2.412  50.829  1.00  0.00     0.011 A 
HETATM    7  C4  UNL     1      26.903   2.147  51.641  1.00  0.00     0.030 A 
HETATM    8  C5  UNL     1      26.745   1.707  52.964  1.00  0.00     0.033 A 
HETATM    9  C9  UNL     1      25.427   1.583  53.328  1.00  0.00     0.060 A 
BRANCH   8  10
HETATM   10  N1  UNL     1      27.849   1.435  53.813  1.00  0.00    -0.363 N 
HETATM   11  C6  UNL     1      28.848   2.485  53.738  1.00  0.00     0.152 C 
BRANCH  10  12
HETATM   12  C7  UNL     1      27.717   0.189  54.555  1.00  0.00     0.303 C 
BRANCH  12  13
HETATM   13  O1  UNL     1      27.716  -0.955  53.751  1.00  0.00    -0.308 OA
BRANCH  13  14
HETATM   14  C8  UNL     1      28.930  -1.489  53.326  1.00  0.00     0.399 C 
HETATM   15  O2  UNL     1      29.211  -2.724  53.493  1.00  0.00    -0.276 OA
ENDBRANCH  13  14
ENDBRANCH  12  13
ENDBRANCH  10  12
ENDBRANCH   8  10
ENDBRANCH   1   3
BRANCH   1  16
HETATM   16  C11 UNL     1      22.166   0.588  53.430  1.00  0.00     0.727 A 
HETATM   17  N3  UNL     1      22.686  -0.302  54.304  1.00  0.00    -0.075 NA
HETATM   18  C12 UNL     1      22.011  -1.370  54.734  1.00  0.00     0.139 A 
HETATM   19  C13 UNL     1      20.732  -1.589  54.277  1.00  0.00     0.053 A 
HETATM   20  C14 UNL     1      20.185  -0.716  53.401  1.00  0.00     0.089 A 
HETATM   21  N5  UNL     1      20.908   0.368  52.983  1.00  0.00    -0.062 NA
BRANCH  20  22
HETATM   22  C15 UNL     1      18.869  -0.719  52.793  1.00  0.00     0.011 A 
HETATM   23  C16 UNL     1      17.772  -1.374  53.285  1.00  0.00     0.017 A 
HETATM   24  C17 UNL     1      16.564  -1.303  52.598  1.00  0.00     0.020 A 
HETATM   25  C18 UNL     1      16.444  -0.582  51.425  1.00  0.00     0.116 A 
HETATM   26  N4  UNL     1      17.529   0.082  50.918  1.00  0.00    -0.272 NA
HETATM   27  C19 UNL     1      18.696  -0.016  51.623  1.00  0.00     0.130 A 
ENDBRANCH  20  22
ENDBRANCH   1  16
TORSDOF 7
ENDMDL
MODEL 6
REMARK VINA RESULT:      -7.7      3.263      5.348
REMARK  7 active torsions:
REMARK  status: ('A' for Active; 'I' for Inactive)
REMARK    1  A    between atoms: C5_5  and  N1_6 
REMARK    2  A    between atoms: N1_6  and  C7_8 
REMARK    3  A    between atoms: C7_8  and  O1_9 
REMARK    4  A    between atoms: O1_9  and  C8_10 
REMARK    5  A    between atoms: C10_13  and  N2_14 
REMARK    6  A    between atoms: N2_14  and  C11_15 
REMARK    7  A    between atoms: C14_19  and  C15_20 
ROOT
HETATM    1  N2  UNL     1      26.479   3.290  49.493  1.00  0.00    -0.188 N 
HETATM    2  H13 UNL     1      26.481   2.764  48.603  1.00  0.00     0.184 HD
ENDROOT
BRANCH   1   3
HETATM    3  C10 UNL     1      26.093   2.718  50.723  1.00  0.00     0.057 A 
HETATM    4  C2  UNL     1      24.743   2.488  50.980  1.00  0.00    -0.035 A 
HETATM    5  C1  UNL     1      23.670   2.839  50.017  1.00  0.00     0.050 C 
HETATM    6  C3  UNL     1      24.393   1.912  52.178  1.00  0.00     0.011 A 
HETATM    7  C4  UNL     1      25.345   1.552  53.140  1.00  0.00     0.030 A 
HETATM    8  C5  UNL     1      26.713   1.766  52.921  1.00  0.00     0.033 A 
HETATM    9  C9  UNL     1      26.973   2.344  51.703  1.00  0.00     0.060 A 
BRANCH   8  10
HETATM   10  N1  UNL     1      27.702   1.406  53.874  1.00  0.00    -0.363 N 
HETATM   11  C6  UNL     1      28.838   2.307  53.826  1.00  0.00     0.152 C 
BRANCH  10  12
HETATM   12  C7  UNL     1      27.344   0.241  54.670  1.00  0.00     0.303 C 
BRANCH  12  13
HETATM   13  O1  UNL     1      27.545  -0.979  54.016  1.00  0.00    -0.308 OA
BRANCH  13  14
HETATM   14  C8  UNL     1      28.811  -1.286  53.524  1.00  0.00     0.399 C 
HETATM   15  O2  UNL     1      29.206  -2.495  53.404  1.00  0.00    -0.276 OA
ENDBRANCH  13  14
ENDBRANCH  12  13
ENDBRANCH  10  12
ENDBRANCH   8  10
ENDBRANCH   1   3
BRANCH   1  16
HETATM   16  C11 UNL     1      26.930   4.563  49.078  1.00  0.00     0.727 A 
HETATM   17  N3  UNL     1      26.067   5.591  49.237  1.00  0.00    -0.075 NA
HETATM   18  C12 UNL     1      26.371   6.846  48.900  1.00  0.00     0.139 A 
HETATM   19  C13 UNL     1      27.610   7.122  48.368  1.00  0.00     0.053 A 
HETATM   20  C14 UNL     1      28.493   6.112  48.196  1.00  0.00     0.089 A 
HETATM   21  N5  UNL     1      28.146   4.838  48.554  1.00  0.00    -0.062 NA
BRANCH  20  22
HETATM   22  C15 UNL     1      29.847   6.147  47.676  1.00  0.00     0.011 A 
HETATM   23  C16 UNL     1      30.774   5.150  47.817  1.00  0.00     0.017 A 
HETATM   24  C17 UNL     1      32.045   5.313  47.275  1.00  0.00     0.020 A 
HETATM   25  C18 UNL     1      32.395   6.463  46.594  1.00  0.00     0.116 A 
HETATM   26  N4  UNL     1      31.482   7.472  46.441  1.00  0.00    -0.272 NA
HETATM   27  C19 UNL     1      30.246   7.271  46.991  1.00  0.00     0.130 A 
ENDBRANCH  20  22
ENDBRANCH   1  16
TORSDOF 7
ENDMDL
MODEL 7
REMARK VINA RESULT:      -7.6      3.592      7.794
REMARK  7 active torsions:
REMARK  status: ('A' for Active; 'I' for Inactive)
REMARK    1  A    between atoms: C5_5  and  N1_6 
REMARK    2  A    between atoms: N1_6  and  C7_8 
REMARK    3  A    between atoms: C7_8  and  O1_9 
REMARK    4  A    between atoms: O1_9  and  C8_10 
REMARK    5  A    between atoms: C10_13  and  N2_14 
REMARK    6  A    between atoms: N2_14  and  C11_15 
REMARK    7  A    between atoms: C14_19  and  C15_20 
ROOT
HETATM    1  N2  UNL     1      25.991   2.987  49.802  1.00  0.00    -0.188 N 
HETATM    2  H13 UNL     1      25.836   2.147  49.220  1.00  0.00     0.184 HD
ENDROOT
BRANCH   1   3
HETATM    3  C10 UNL     1      26.143   4.280  49.260  1.00  0.00     0.057 A 
HETATM    4  C2  UNL     1      25.015   5.065  49.028  1.00  0.00    -0.035 A 
HETATM    5  C1  UNL     1      23.636   4.593  49.309  1.00  0.00     0.050 C 
HETATM    6  C3  UNL     1      25.189   6.328  48.517  1.00  0.00     0.011 A 
HETATM    7  C4  UNL     1      26.456   6.847  48.225  1.00  0.00     0.030 A 
HETATM    8  C5  UNL     1      27.617   6.091  48.443  1.00  0.00     0.033 A 
HETATM    9  C9  UNL     1      27.352   4.844  48.953  1.00  0.00     0.060 A 
BRANCH   8  10
HETATM   10  N1  UNL     1      28.916   6.591  48.162  1.00  0.00    -0.363 N 
HETATM   11  C6  UNL     1      29.889   5.519  48.067  1.00  0.00     0.152 C 
BRANCH  10  12
HETATM   12  C7  UNL     1      28.962   8.040  48.029  1.00  0.00     0.303 C 
BRANCH  12  13
HETATM   13  O1  UNL     1      29.169   8.717  49.234  1.00  0.00    -0.308 OA
BRANCH  13  14
HETATM   14  C8  UNL     1      28.685  10.015  49.378  1.00  0.00     0.399 C 
HETATM   15  O2  UNL     1      27.453  10.244  49.625  1.00  0.00    -0.276 OA
ENDBRANCH  13  14
ENDBRANCH  12  13
ENDBRANCH  10  12
ENDBRANCH   8  10
ENDBRANCH   1   3
BRANCH   1  16
HETATM   16  C11 UNL     1      25.989   2.440  51.105  1.00  0.00     0.727 A 
HETATM   17  N3  UNL     1      25.139   3.000  51.994  1.00  0.00    -0.075 NA
HETATM   18  C12 UNL     1      25.026   2.570  53.253  1.00  0.00     0.139 A 
HETATM   19  C13 UNL     1      25.801   1.515  53.678  1.00  0.00     0.053 A 
HETATM   20  C14 UNL     1      26.661   0.937  52.811  1.00  0.00     0.089 A 
HETATM   21  N5  UNL     1      26.749   1.404  51.528  1.00  0.00    -0.062 NA
BRANCH  20  22
HETATM   22  C15 UNL     1      27.562  -0.182  53.010  1.00  0.00     0.011 A 
HETATM   23  C16 UNL     1      28.872  -0.084  53.398  1.00  0.00     0.017 A 
HETATM   24  C17 UNL     1      29.633  -1.239  53.546  1.00  0.00     0.020 A 
HETATM   25  C18 UNL     1      29.095  -2.490  53.310  1.00  0.00     0.116 A 
HETATM   26  N4  UNL     1      27.787  -2.610  52.923  1.00  0.00    -0.272 NA
HETATM   27  C19 UNL     1      27.076  -1.450  52.788  1.00  0.00     0.130 A 
ENDBRANCH  20  22
ENDBRANCH   1  16
TORSDOF 7
ENDMDL
MODEL 8
REMARK VINA RESULT:      -7.6      2.825      7.523
REMARK  7 active torsions:
REMARK  status: ('A' for Active; 'I' for Inactive)
REMARK    1  A    between atoms: C5_5  and  N1_6 
REMARK    2  A    between atoms: N1_6  and  C7_8 
REMARK    3  A    between atoms: C7_8  and  O1_9 
REMARK    4  A    between atoms: O1_9  and  C8_10 
REMARK    5  A    between atoms: C10_13  and  N2_14 
REMARK    6  A    between atoms: N2_14  and  C11_15 
REMARK    7  A    between atoms: C14_19  and  C15_20 
ROOT
HETATM    1  N2  UNL     1      26.501   2.667  50.713  1.00  0.00    -0.188 N 
HETATM    2  H13 UNL     1      27.377   2.410  50.228  1.00  0.00     0.184 HD
ENDROOT
BRANCH   1   3
HETATM    3  C10 UNL     1      25.617   3.654  50.230  1.00  0.00     0.057 A 
HETATM    4  C2  UNL     1      26.075   4.598  49.313  1.00  0.00    -0.035 A 
HETATM    5  C1  UNL     1      27.476   4.631  48.826  1.00  0.00     0.050 C 
HETATM    6  C3  UNL     1      25.191   5.538  48.843  1.00  0.00     0.011 A 
HETATM    7  C4  UNL     1      23.852   5.575  49.254  1.00  0.00     0.030 A 
HETATM    8  C5  UNL     1      23.350   4.643  50.174  1.00  0.00     0.033 A 
HETATM    9  C9  UNL     1      24.300   3.743  50.591  1.00  0.00     0.060 A 
BRANCH   8  10
HETATM   10  N1  UNL     1      21.998   4.651  50.605  1.00  0.00    -0.363 N 
HETATM   11  C6  UNL     1      21.616   5.948  51.133  1.00  0.00     0.152 C 
BRANCH  10  12
HETATM   12  C7  UNL     1      21.319   3.378  50.410  1.00  0.00     0.303 C 
BRANCH  12  13
HETATM   13  O1  UNL     1      21.348   2.540  51.529  1.00  0.00    -0.308 OA
BRANCH  13  14
HETATM   14  C8  UNL     1      20.374   2.686  52.513  1.00  0.00     0.399 C 
HETATM   15  O2  UNL     1      19.299   3.341  52.297  1.00  0.00    -0.276 OA
ENDBRANCH  13  14
ENDBRANCH  12  13
ENDBRANCH  10  12
ENDBRANCH   8  10
ENDBRANCH   1   3
BRANCH   1  16
HETATM   16  C11 UNL     1      26.529   1.807  51.834  1.00  0.00     0.727 A 
HETATM   17  N3  UNL     1      27.723   1.653  52.447  1.00  0.00    -0.075 NA
HETATM   18  C12 UNL     1      27.886   0.882  53.525  1.00  0.00     0.139 A 
HETATM   19  C13 UNL     1      26.803   0.211  54.045  1.00  0.00     0.053 A 
HETATM   20  C14 UNL     1      25.596   0.346  53.451  1.00  0.00     0.089 A 
HETATM   21  N5  UNL     1      25.467   1.145  52.348  1.00  0.00    -0.062 NA
BRANCH  20  22
HETATM   22  C15 UNL     1      24.318  -0.238  53.812  1.00  0.00     0.011 A 
HETATM   23  C16 UNL     1      23.173  -0.159  53.064  1.00  0.00     0.017 A 
HETATM   24  C17 UNL     1      22.007  -0.758  53.529  1.00  0.00     0.020 A 
HETATM   25  C18 UNL     1      21.976  -1.434  54.734  1.00  0.00     0.116 A 
HETATM   26  N4  UNL     1      23.110  -1.525  55.496  1.00  0.00    -0.272 NA
HETATM   27  C19 UNL     1      24.234  -0.921  55.002  1.00  0.00     0.130 A 
ENDBRANCH  20  22
ENDBRANCH   1  16
TORSDOF 7
ENDMDL
MODEL 9
REMARK VINA RESULT:      -7.5      2.878      7.665
REMARK  7 active torsions:
REMARK  status: ('A' for Active; 'I' for Inactive)
REMARK    1  A    between atoms: C5_5  and  N1_6 
REMARK    2  A    between atoms: N1_6  and  C7_8 
REMARK    3  A    between atoms: C7_8  and  O1_9 
REMARK    4  A    between atoms: O1_9  and  C8_10 
REMARK    5  A    between atoms: C10_13  and  N2_14 
REMARK    6  A    between atoms: N2_14  and  C11_15 
REMARK    7  A    between atoms: C14_19  and  C15_20 
ROOT
HETATM    1  N2  UNL     1      26.466   2.787  49.896  1.00  0.00    -0.188 N 
HETATM    2  H13 UNL     1      26.433   1.930  49.319  1.00  0.00     0.184 HD
ENDROOT
BRANCH   1   3
HETATM    3  C10 UNL     1      26.481   4.085  49.343  1.00  0.00     0.057 A 
HETATM    4  C2  UNL     1      25.311   4.841  49.335  1.00  0.00    -0.035 A 
HETATM    5  C1  UNL     1      24.023   4.335  49.869  1.00  0.00     0.050 C 
HETATM    6  C3  UNL     1      25.354   6.109  48.808  1.00  0.00     0.011 A 
HETATM    7  C4  UNL     1      26.530   6.660  48.284  1.00  0.00     0.030 A 
HETATM    8  C5  UNL     1      27.730   5.933  48.273  1.00  0.00     0.033 A 
HETATM    9  C9  UNL     1      27.596   4.679  48.816  1.00  0.00     0.060 A 
BRANCH   8  10
HETATM   10  N1  UNL     1      28.939   6.466  47.754  1.00  0.00    -0.363 N 
HETATM   11  C6  UNL     1      28.707   7.705  47.035  1.00  0.00     0.152 C 
BRANCH  10  12
HETATM   12  C7  UNL     1      30.110   5.661  48.069  1.00  0.00     0.303 C 
BRANCH  12  13
HETATM   13  O1  UNL     1      31.290   6.398  48.201  1.00  0.00    -0.308 OA
BRANCH  13  14
HETATM   14  C8  UNL     1      32.095   6.200  49.321  1.00  0.00     0.399 C 
HETATM   15  O2  UNL     1      31.668   5.570  50.347  1.00  0.00    -0.276 OA
ENDBRANCH  13  14
ENDBRANCH  12  13
ENDBRANCH  10  12
ENDBRANCH   8  10
ENDBRANCH   1   3
BRANCH   1  16
HETATM   16  C11 UNL     1      26.485   2.255  51.205  1.00  0.00     0.727 A 
HETATM   17  N3  UNL     1      27.594   2.494  51.938  1.00  0.00    -0.075 NA
HETATM   18  C12 UNL     1      27.737   2.062  53.193  1.00  0.00     0.139 A 
HETATM   19  C13 UNL     1      26.720   1.343  53.779  1.00  0.00     0.053 A 
HETATM   20  C14 UNL     1      25.598   1.087  53.068  1.00  0.00     0.089 A 
HETATM   21  N5  UNL     1      25.489   1.547  51.784  1.00  0.00    -0.062 NA
BRANCH  20  22
HETATM   22  C15 UNL     1      24.399   0.374  53.461  1.00  0.00     0.011 A 
HETATM   23  C16 UNL     1      23.158   0.547  52.907  1.00  0.00     0.017 A 
HETATM   24  C17 UNL     1      22.084  -0.198  53.382  1.00  0.00     0.020 A 
HETATM   25  C18 UNL     1      22.239  -1.114  54.405  1.00  0.00     0.116 A 
HETATM   26  N4  UNL     1      23.472  -1.303  54.971  1.00  0.00    -0.272 NA
HETATM   27  C19 UNL     1      24.500  -0.550  54.475  1.00  0.00     0.130 A 
ENDBRANCH  20  22
ENDBRANCH   1  16
TORSDOF 7
ENDMDL
