MODEL 1
REMARK VINA RESULT:      -9.6      0.000      0.000
REMARK  4 active torsions:
REMARK  status: ('A' for Active; 'I' for Inactive)
REMARK    1  A    between atoms: O1_2  and  C2_3 
REMARK    2  A    between atoms: C6_7  and  C7_8 
REMARK    3  A    between atoms: C9_10  and  C10_11 
REMARK    4  A    between atoms: N2_22  and  C18_23 
ROOT
HETATM    1  C7  UNL     1      21.978   2.213  52.057  1.00  0.00     0.149 C 
HETATM    2  C8  UNL     1      23.318   2.639  52.623  1.00  0.00     0.094 C 
HETATM    3  C9  UNL     1      24.012   1.348  52.818  1.00  0.00     0.067 C 
HETATM    4  N1  UNL     1      23.177   0.379  52.764  1.00  0.00    -0.175 NA
HETATM    5  N2  UNL     1      21.879   0.851  52.537  1.00  0.00    -0.260 N 
ENDROOT
BRANCH   3   6
HETATM    6  C10 UNL     1      25.432   1.108  53.047  1.00  0.00    -0.007 A 
HETATM    7  C11 UNL     1      26.309   2.152  53.108  1.00  0.00     0.016 A 
HETATM    8  C12 UNL     1      27.673   1.934  53.327  1.00  0.00     0.040 A 
HETATM    9  C13 UNL     1      28.101   0.611  53.480  1.00  0.00     0.102 A 
HETATM   10  C14 UNL     1      27.198  -0.428  53.415  1.00  0.00     0.103 A 
HETATM   11  O3  UNL     1      29.460   0.432  53.696  1.00  0.00    -0.346 OA
HETATM   12  C15 UNL     1      25.870  -0.186  53.200  1.00  0.00     0.053 A 
HETATM   13  O2  UNL     1      27.828  -1.650  53.592  1.00  0.00    -0.346 OA
HETATM   14  C16 UNL     1      29.141  -1.838  53.093  1.00  0.00     0.202 C 
HETATM   15  C17 UNL     1      30.044  -0.855  53.777  1.00  0.00     0.202 C 
ENDBRANCH   3   6
BRANCH   1  16
HETATM   16  C6  UNL     1      22.087   2.270  50.576  1.00  0.00    -0.030 A 
HETATM   17  C5  UNL     1      21.700   1.191  49.802  1.00  0.00     0.009 A 
HETATM   18  C4  UNL     1      21.805   1.256  48.428  1.00  0.00     0.003 A 
HETATM   19  C3  UNL     1      22.299   2.403  47.830  1.00  0.00     0.037 A 
HETATM   20  C2  UNL     1      22.691   3.494  48.577  1.00  0.00     0.068 A 
HETATM   21  C24 UNL     1      22.582   3.420  49.971  1.00  0.00     0.046 A 
BRANCH  20  22
HETATM   22  O1  UNL     1      23.194   4.676  48.049  1.00  0.00    -0.356 OA
HETATM   23  C1  UNL     1      24.223   5.373  48.719  1.00  0.00     0.210 C 
ENDBRANCH  20  22
ENDBRANCH   1  16
BRANCH   5  24
HETATM   24  C18 UNL     1      20.664   0.120  52.740  1.00  0.00     0.053 A 
HETATM   25  C19 UNL     1      19.495   0.415  52.045  1.00  0.00     0.031 A 
HETATM   26  C20 UNL     1      18.317  -0.275  52.226  1.00  0.00     0.002 A 
HETATM   27  C21 UNL     1      18.307  -1.320  53.157  1.00  0.00     0.000 A 
HETATM   28  C22 UNL     1      19.459  -1.622  53.855  1.00  0.00     0.002 A 
HETATM   29  C23 UNL     1      20.644  -0.913  53.658  1.00  0.00     0.031 A 
ENDBRANCH   5  24
TORSDOF 4
ENDMDL
MODEL 2
REMARK VINA RESULT:      -9.4      2.902      6.943
REMARK  4 active torsions:
REMARK  status: ('A' for Active; 'I' for Inactive)
REMARK    1  A    between atoms: O1_2  and  C2_3 
REMARK    2  A    between atoms: C6_7  and  C7_8 
REMARK    3  A    between atoms: C9_10  and  C10_11 
REMARK    4  A    between atoms: N2_22  and  C18_23 
ROOT
HETATM    1  C7  UNL     1      25.359   1.213  53.527  1.00  0.00     0.149 C 
HETATM    2  C8  UNL     1      25.208   2.671  53.140  1.00  0.00     0.094 C 
HETATM    3  C9  UNL     1      25.717   2.692  51.752  1.00  0.00     0.067 C 
HETATM    4  N1  UNL     1      26.371   1.621  51.500  1.00  0.00    -0.175 NA
HETATM    5  N2  UNL     1      26.395   0.775  52.615  1.00  0.00    -0.260 N 
ENDROOT
BRANCH   3   6
HETATM    6  C10 UNL     1      25.552   3.731  50.742  1.00  0.00    -0.007 A 
HETATM    7  C11 UNL     1      26.576   4.036  49.892  1.00  0.00     0.016 A 
HETATM    8  C12 UNL     1      26.431   5.030  48.919  1.00  0.00     0.040 A 
HETATM    9  C13 UNL     1      25.202   5.696  48.851  1.00  0.00     0.102 A 
HETATM   10  C14 UNL     1      24.183   5.371  49.719  1.00  0.00     0.103 A 
HETATM   11  O3  UNL     1      25.093   6.675  47.875  1.00  0.00    -0.346 OA
HETATM   12  C15 UNL     1      24.352   4.395  50.661  1.00  0.00     0.053 A 
HETATM   13  O2  UNL     1      23.058   6.146  49.483  1.00  0.00    -0.346 OA
HETATM   14  C16 UNL     1      23.212   7.491  49.063  1.00  0.00     0.202 C 
HETATM   15  C17 UNL     1      23.941   7.489  47.753  1.00  0.00     0.202 C 
ENDBRANCH   3   6
BRANCH   1  16
HETATM   16  C6  UNL     1      24.060   0.546  53.248  1.00  0.00    -0.030 A 
HETATM   17  C5  UNL     1      23.661  -0.548  53.992  1.00  0.00     0.009 A 
HETATM   18  C4  UNL     1      22.453  -1.159  53.725  1.00  0.00     0.003 A 
HETATM   19  C3  UNL     1      21.646  -0.672  52.711  1.00  0.00     0.037 A 
HETATM   20  C2  UNL     1      22.020   0.419  51.954  1.00  0.00     0.068 A 
HETATM   21  C24 UNL     1      23.247   1.033  52.231  1.00  0.00     0.046 A 
BRANCH  20  22
HETATM   22  O1  UNL     1      21.265   0.965  50.924  1.00  0.00    -0.356 OA
HETATM   23  C1  UNL     1      21.902   1.554  49.810  1.00  0.00     0.210 C 
ENDBRANCH  20  22
ENDBRANCH   1  16
BRANCH   5  24
HETATM   24  C18 UNL     1      27.283  -0.328  52.823  1.00  0.00     0.053 A 
HETATM   25  C19 UNL     1      28.562  -0.163  53.348  1.00  0.00     0.031 A 
HETATM   26  C20 UNL     1      29.431  -1.211  53.555  1.00  0.00     0.002 A 
HETATM   27  C21 UNL     1      28.998  -2.498  53.219  1.00  0.00     0.000 A 
HETATM   28  C22 UNL     1      27.732  -2.676  52.697  1.00  0.00     0.002 A 
HETATM   29  C23 UNL     1      26.864  -1.603  52.494  1.00  0.00     0.031 A 
ENDBRANCH   5  24
TORSDOF 4
ENDMDL
MODEL 3
REMARK VINA RESULT:      -9.2      2.765      7.281
REMARK  4 active torsions:
REMARK  status: ('A' for Active; 'I' for Inactive)
REMARK    1  A    between atoms: O1_2  and  C2_3 
REMARK    2  A    between atoms: C6_7  and  C7_8 
REMARK    3  A    between atoms: C9_10  and  C10_11 
REMARK    4  A    between atoms: N2_22  and  C18_23 
ROOT
HETATM    1  C7  UNL     1      25.039   1.098  53.708  1.00  0.00     0.149 C 
HETATM    2  C8  UNL     1      24.547   2.377  53.060  1.00  0.00     0.094 C 
HETATM    3  C9  UNL     1      24.689   2.083  51.618  1.00  0.00     0.067 C 
HETATM    4  N1  UNL     1      25.438   1.060  51.441  1.00  0.00    -0.175 NA
HETATM    5  N2  UNL     1      25.880   0.548  52.667  1.00  0.00    -0.260 N 
ENDROOT
BRANCH   3   6
HETATM    6  C10 UNL     1      24.104   2.794  50.486  1.00  0.00    -0.007 A 
HETATM    7  C11 UNL     1      24.700   3.919  49.994  1.00  0.00     0.016 A 
HETATM    8  C12 UNL     1      24.149   4.609  48.909  1.00  0.00     0.040 A 
HETATM    9  C13 UNL     1      22.970   4.103  48.351  1.00  0.00     0.102 A 
HETATM   10  C14 UNL     1      22.386   2.966  48.864  1.00  0.00     0.103 A 
HETATM   11  O3  UNL     1      22.452   4.812  47.277  1.00  0.00    -0.346 OA
HETATM   12  C15 UNL     1      22.945   2.311  49.926  1.00  0.00     0.053 A 
HETATM   13  O2  UNL     1      21.231   2.639  48.170  1.00  0.00    -0.346 OA
HETATM   14  C16 UNL     1      20.408   3.673  47.657  1.00  0.00     0.202 C 
HETATM   15  C17 UNL     1      21.217   4.467  46.676  1.00  0.00     0.202 C 
ENDBRANCH   3   6
BRANCH   1  16
HETATM   16  C6  UNL     1      23.848   0.246  53.964  1.00  0.00    -0.030 A 
HETATM   17  C5  UNL     1      23.928  -0.829  54.829  1.00  0.00     0.009 A 
HETATM   18  C4  UNL     1      22.817  -1.613  55.059  1.00  0.00     0.003 A 
HETATM   19  C3  UNL     1      21.624  -1.318  54.420  1.00  0.00     0.037 A 
HETATM   20  C2  UNL     1      21.516  -0.251  53.552  1.00  0.00     0.068 A 
HETATM   21  C24 UNL     1      22.649   0.539  53.324  1.00  0.00     0.046 A 
BRANCH  20  22
HETATM   22  O1  UNL     1      20.356   0.106  52.876  1.00  0.00    -0.356 OA
HETATM   23  C1  UNL     1      20.133   1.451  52.510  1.00  0.00     0.210 C 
ENDBRANCH  20  22
ENDBRANCH   1  16
BRANCH   5  24
HETATM   24  C18 UNL     1      26.971  -0.359  52.861  1.00  0.00     0.053 A 
HETATM   25  C19 UNL     1      28.199   0.055  53.367  1.00  0.00     0.031 A 
HETATM   26  C20 UNL     1      29.260  -0.802  53.562  1.00  0.00     0.002 A 
HETATM   27  C21 UNL     1      29.083  -2.150  53.231  1.00  0.00     0.000 A 
HETATM   28  C22 UNL     1      27.870  -2.574  52.727  1.00  0.00     0.002 A 
HETATM   29  C23 UNL     1      26.806  -1.693  52.537  1.00  0.00     0.031 A 
ENDBRANCH   5  24
TORSDOF 4
ENDMDL
MODEL 4
REMARK VINA RESULT:      -9.1      2.744      7.886
REMARK  4 active torsions:
REMARK  status: ('A' for Active; 'I' for Inactive)
REMARK    1  A    between atoms: O1_2  and  C2_3 
REMARK    2  A    between atoms: C6_7  and  C7_8 
REMARK    3  A    between atoms: C9_10  and  C10_11 
REMARK    4  A    between atoms: N2_22  and  C18_23 
ROOT
HETATM    1  C7  UNL     1      24.759   2.906  52.507  1.00  0.00     0.149 C 
HETATM    2  C8  UNL     1      23.344   2.600  52.957  1.00  0.00     0.094 C 
HETATM    3  C9  UNL     1      22.683   2.203  51.696  1.00  0.00     0.067 C 
HETATM    4  N1  UNL     1      23.391   2.555  50.689  1.00  0.00    -0.175 NA
HETATM    5  N2  UNL     1      24.562   3.201  51.104  1.00  0.00    -0.260 N 
ENDROOT
BRANCH   3   6
HETATM    6  C10 UNL     1      21.412   1.510  51.517  1.00  0.00    -0.007 A 
HETATM    7  C11 UNL     1      20.666   1.713  50.392  1.00  0.00     0.016 A 
HETATM    8  C12 UNL     1      19.446   1.055  50.209  1.00  0.00     0.040 A 
HETATM    9  C13 UNL     1      19.022   0.185  51.220  1.00  0.00     0.102 A 
HETATM   10  C14 UNL     1      19.791  -0.005  52.347  1.00  0.00     0.103 A 
HETATM   11  O3  UNL     1      17.808  -0.451  51.006  1.00  0.00    -0.346 OA
HETATM   12  C15 UNL     1      20.980   0.652  52.500  1.00  0.00     0.053 A 
HETATM   13  O2  UNL     1      19.191  -0.902  53.218  1.00  0.00    -0.346 OA
HETATM   14  C16 UNL     1      17.778  -0.930  53.326  1.00  0.00     0.202 C 
HETATM   15  C17 UNL     1      17.215  -1.286  51.983  1.00  0.00     0.202 C 
ENDBRANCH   3   6
BRANCH   1  16
HETATM   16  C6  UNL     1      25.561   1.670  52.704  1.00  0.00    -0.030 A 
HETATM   17  C5  UNL     1      24.950   0.430  52.706  1.00  0.00     0.009 A 
HETATM   18  C4  UNL     1      25.704  -0.710  52.888  1.00  0.00     0.003 A 
HETATM   19  C3  UNL     1      27.074  -0.607  53.070  1.00  0.00     0.037 A 
HETATM   20  C2  UNL     1      27.709   0.618  53.072  1.00  0.00     0.068 A 
HETATM   21  C24 UNL     1      26.936   1.770  52.886  1.00  0.00     0.046 A 
BRANCH  20  22
HETATM   22  O1  UNL     1      29.075   0.800  53.246  1.00  0.00    -0.356 OA
HETATM   23  C1  UNL     1      29.904  -0.297  53.564  1.00  0.00     0.210 C 
ENDBRANCH  20  22
ENDBRANCH   1  16
BRANCH   5  24
HETATM   24  C18 UNL     1      25.417   4.011  50.290  1.00  0.00     0.053 A 
HETATM   25  C19 UNL     1      26.547   3.498  49.661  1.00  0.00     0.031 A 
HETATM   26  C20 UNL     1      27.382   4.260  48.874  1.00  0.00     0.002 A 
HETATM   27  C21 UNL     1      27.069   5.613  48.706  1.00  0.00     0.000 A 
HETATM   28  C22 UNL     1      25.951   6.136  49.324  1.00  0.00     0.002 A 
HETATM   29  C23 UNL     1      25.116   5.349  50.117  1.00  0.00     0.031 A 
ENDBRANCH   5  24
TORSDOF 4
ENDMDL
MODEL 5
REMARK VINA RESULT:      -9.0      3.876      6.589
REMARK  4 active torsions:
REMARK  status: ('A' for Active; 'I' for Inactive)
REMARK    1  A    between atoms: O1_2  and  C2_3 
REMARK    2  A    between atoms: C6_7  and  C7_8 
REMARK    3  A    between atoms: C9_10  and  C10_11 
REMARK    4  A    between atoms: N2_22  and  C18_23 
ROOT
HETATM    1  C7  UNL     1      23.970   3.363  50.983  1.00  0.00     0.149 C 
HETATM    2  C8  UNL     1      24.479   4.743  50.615  1.00  0.00     0.094 C 
HETATM    3  C9  UNL     1      25.793   4.450  50.004  1.00  0.00     0.067 C 
HETATM    4  N1  UNL     1      26.161   3.257  50.284  1.00  0.00    -0.175 NA
HETATM    5  N2  UNL     1      25.204   2.612  51.078  1.00  0.00    -0.260 N 
ENDROOT
BRANCH   3   6
HETATM    6  C10 UNL     1      26.627   5.323  49.186  1.00  0.00    -0.007 A 
HETATM    7  C11 UNL     1      27.868   4.917  48.785  1.00  0.00     0.016 A 
HETATM    8  C12 UNL     1      28.677   5.745  48.001  1.00  0.00     0.040 A 
HETATM    9  C13 UNL     1      28.168   6.999  47.645  1.00  0.00     0.102 A 
HETATM   10  C14 UNL     1      26.914   7.388  48.060  1.00  0.00     0.103 A 
HETATM   11  O3  UNL     1      28.997   7.794  46.867  1.00  0.00    -0.346 OA
HETATM   12  C15 UNL     1      26.143   6.558  48.827  1.00  0.00     0.053 A 
HETATM   13  O2  UNL     1      26.605   8.659  47.600  1.00  0.00    -0.346 OA
HETATM   14  C16 UNL     1      27.632   9.629  47.487  1.00  0.00     0.202 C 
HETATM   15  C17 UNL     1      28.649   9.119  46.511  1.00  0.00     0.202 C 
ENDBRANCH   3   6
BRANCH   1  16
HETATM   16  C6  UNL     1      23.122   2.892  49.857  1.00  0.00    -0.030 A 
HETATM   17  C5  UNL     1      22.443   1.691  49.945  1.00  0.00     0.009 A 
HETATM   18  C4  UNL     1      21.659   1.263  48.894  1.00  0.00     0.003 A 
HETATM   19  C3  UNL     1      21.556   2.041  47.753  1.00  0.00     0.037 A 
HETATM   20  C2  UNL     1      22.222   3.243  47.638  1.00  0.00     0.068 A 
HETATM   21  C24 UNL     1      23.016   3.670  48.710  1.00  0.00     0.046 A 
BRANCH  20  22
HETATM   22  O1  UNL     1      22.166   4.076  46.528  1.00  0.00    -0.356 OA
HETATM   23  C1  UNL     1      21.383   3.719  45.409  1.00  0.00     0.210 C 
ENDBRANCH  20  22
ENDBRANCH   1  16
BRANCH   5  24
HETATM   24  C18 UNL     1      25.404   1.422  51.848  1.00  0.00     0.053 A 
HETATM   25  C19 UNL     1      26.526   0.615  51.688  1.00  0.00     0.031 A 
HETATM   26  C20 UNL     1      26.737  -0.534  52.418  1.00  0.00     0.002 A 
HETATM   27  C21 UNL     1      25.771  -0.896  53.363  1.00  0.00     0.000 A 
HETATM   28  C22 UNL     1      24.652  -0.105  53.531  1.00  0.00     0.002 A 
HETATM   29  C23 UNL     1      24.455   1.056  52.783  1.00  0.00     0.031 A 
ENDBRANCH   5  24
TORSDOF 4
ENDMDL
MODEL 6
REMARK VINA RESULT:      -8.9      2.711      7.500
REMARK  4 active torsions:
REMARK  status: ('A' for Active; 'I' for Inactive)
REMARK    1  A    between atoms: O1_2  and  C2_3 
REMARK    2  A    between atoms: C6_7  and  C7_8 
REMARK    3  A    between atoms: C9_10  and  C10_11 
REMARK    4  A    between atoms: N2_22  and  C18_23 
ROOT
HETATM    1  C7  UNL     1      24.464   2.536  52.869  1.00  0.00     0.149 C 
HETATM    2  C8  UNL     1      24.098   3.907  52.337  1.00  0.00     0.094 C 
HETATM    3  C9  UNL     1      24.833   3.963  51.056  1.00  0.00     0.067 C 
HETATM    4  N1  UNL     1      25.722   3.043  51.009  1.00  0.00    -0.175 NA
HETATM    5  N2  UNL     1      25.712   2.280  52.183  1.00  0.00    -0.260 N 
ENDROOT
BRANCH   3   6
HETATM    6  C10 UNL     1      24.650   4.891  49.945  1.00  0.00    -0.007 A 
HETATM    7  C11 UNL     1      23.564   4.782  49.125  1.00  0.00     0.016 A 
HETATM    8  C12 UNL     1      23.377   5.665  48.058  1.00  0.00     0.040 A 
HETATM    9  C13 UNL     1      24.341   6.660  47.863  1.00  0.00     0.102 A 
HETATM   10  C14 UNL     1      25.430   6.751  48.703  1.00  0.00     0.103 A 
HETATM   11  O3  UNL     1      24.125   7.518  46.795  1.00  0.00    -0.346 OA
HETATM   12  C15 UNL     1      25.588   5.874  49.740  1.00  0.00     0.053 A 
HETATM   13  O2  UNL     1      26.259   7.800  48.336  1.00  0.00    -0.346 OA
HETATM   14  C16 UNL     1      26.409   8.124  46.964  1.00  0.00     0.202 C 
HETATM   15  C17 UNL     1      25.064   8.511  46.427  1.00  0.00     0.202 C 
ENDBRANCH   3   6
BRANCH   1  16
HETATM   16  C6  UNL     1      23.395   1.596  52.439  1.00  0.00    -0.030 A 
HETATM   17  C5  UNL     1      22.677   1.833  51.282  1.00  0.00     0.009 A 
HETATM   18  C4  UNL     1      21.688   0.954  50.892  1.00  0.00     0.003 A 
HETATM   19  C3  UNL     1      21.418  -0.164  51.665  1.00  0.00     0.037 A 
HETATM   20  C2  UNL     1      22.119  -0.424  52.824  1.00  0.00     0.068 A 
HETATM   21  C24 UNL     1      23.122   0.473  53.212  1.00  0.00     0.046 A 
BRANCH  20  22
HETATM   22  O1  UNL     1      21.907  -1.521  53.648  1.00  0.00    -0.356 OA
HETATM   23  C1  UNL     1      22.251  -1.461  55.016  1.00  0.00     0.210 C 
ENDBRANCH  20  22
ENDBRANCH   1  16
BRANCH   5  24
HETATM   24  C18 UNL     1      26.750   1.401  52.630  1.00  0.00     0.053 A 
HETATM   25  C19 UNL     1      26.675   0.020  52.467  1.00  0.00     0.031 A 
HETATM   26  C20 UNL     1      27.662  -0.842  52.890  1.00  0.00     0.002 A 
HETATM   27  C21 UNL     1      28.789  -0.294  53.511  1.00  0.00     0.000 A 
HETATM   28  C22 UNL     1      28.876   1.073  53.680  1.00  0.00     0.002 A 
HETATM   29  C23 UNL     1      27.867   1.933  53.245  1.00  0.00     0.031 A 
ENDBRANCH   5  24
TORSDOF 4
ENDMDL
MODEL 7
REMARK VINA RESULT:      -8.9      2.355      6.805
REMARK  4 active torsions:
REMARK  status: ('A' for Active; 'I' for Inactive)
REMARK    1  A    between atoms: O1_2  and  C2_3 
REMARK    2  A    between atoms: C6_7  and  C7_8 
REMARK    3  A    between atoms: C9_10  and  C10_11 
REMARK    4  A    between atoms: N2_22  and  C18_23 
ROOT
HETATM    1  C7  UNL     1      24.911   1.262  51.448  1.00  0.00     0.149 C 
HETATM    2  C8  UNL     1      25.073   2.383  50.440  1.00  0.00     0.094 C 
HETATM    3  C9  UNL     1      24.497   3.543  51.153  1.00  0.00     0.067 C 
HETATM    4  N1  UNL     1      23.808   3.153  52.159  1.00  0.00    -0.175 NA
HETATM    5  N2  UNL     1      23.822   1.757  52.263  1.00  0.00    -0.260 N 
ENDROOT
BRANCH   3   6
HETATM    6  C10 UNL     1      24.632   4.960  50.836  1.00  0.00    -0.007 A 
HETATM    7  C11 UNL     1      23.777   5.875  51.381  1.00  0.00     0.016 A 
HETATM    8  C12 UNL     1      23.896   7.236  51.085  1.00  0.00     0.040 A 
HETATM    9  C13 UNL     1      24.921   7.622  50.214  1.00  0.00     0.102 A 
HETATM   10  C14 UNL     1      25.772   6.682  49.676  1.00  0.00     0.103 A 
HETATM   11  O3  UNL     1      25.010   8.980  49.942  1.00  0.00    -0.346 OA
HETATM   12  C15 UNL     1      25.633   5.357  49.982  1.00  0.00     0.053 A 
HETATM   13  O2  UNL     1      26.710   7.274  48.843  1.00  0.00    -0.346 OA
HETATM   14  C16 UNL     1      26.343   8.403  48.069  1.00  0.00     0.202 C 
HETATM   15  C17 UNL     1      25.939   9.500  49.009  1.00  0.00     0.202 C 
ENDBRANCH   3   6
BRANCH   1  16
HETATM   16  C6  UNL     1      26.180   1.173  52.216  1.00  0.00    -0.030 A 
HETATM   17  C5  UNL     1      26.910   2.312  52.499  1.00  0.00     0.009 A 
HETATM   18  C4  UNL     1      28.086   2.217  53.214  1.00  0.00     0.003 A 
HETATM   19  C3  UNL     1      28.530   0.978  53.645  1.00  0.00     0.037 A 
HETATM   20  C2  UNL     1      27.821  -0.174  53.378  1.00  0.00     0.068 A 
HETATM   21  C24 UNL     1      26.629  -0.069  52.652  1.00  0.00     0.046 A 
BRANCH  20  22
HETATM   22  O1  UNL     1      28.202  -1.449  53.777  1.00  0.00    -0.356 OA
HETATM   23  C1  UNL     1      29.378  -2.035  53.260  1.00  0.00     0.210 C 
ENDBRANCH  20  22
ENDBRANCH   1  16
BRANCH   5  24
HETATM   24  C18 UNL     1      22.923   0.956  53.036  1.00  0.00     0.053 A 
HETATM   25  C19 UNL     1      21.559   1.228  53.107  1.00  0.00     0.031 A 
HETATM   26  C20 UNL     1      20.677   0.470  53.845  1.00  0.00     0.002 A 
HETATM   27  C21 UNL     1      21.187  -0.623  54.553  1.00  0.00     0.000 A 
HETATM   28  C22 UNL     1      22.537  -0.904  54.494  1.00  0.00     0.002 A 
HETATM   29  C23 UNL     1      23.417  -0.126  53.740  1.00  0.00     0.031 A 
ENDBRANCH   5  24
TORSDOF 4
ENDMDL
MODEL 8
REMARK VINA RESULT:      -8.7      2.902      8.154
REMARK  4 active torsions:
REMARK  status: ('A' for Active; 'I' for Inactive)
REMARK    1  A    between atoms: O1_2  and  C2_3 
REMARK    2  A    between atoms: C6_7  and  C7_8 
REMARK    3  A    between atoms: C9_10  and  C10_11 
REMARK    4  A    between atoms: N2_22  and  C18_23 
ROOT
HETATM    1  C7  UNL     1      24.313   3.374  52.041  1.00  0.00     0.149 C 
HETATM    2  C8  UNL     1      22.830   3.196  52.299  1.00  0.00     0.094 C 
HETATM    3  C9  UNL     1      22.303   2.881  50.954  1.00  0.00     0.067 C 
HETATM    4  N1  UNL     1      23.164   3.179  50.055  1.00  0.00    -0.175 NA
HETATM    5  N2  UNL     1      24.326   3.707  50.632  1.00  0.00    -0.260 N 
ENDROOT
BRANCH   3   6
HETATM    6  C10 UNL     1      21.008   2.313  50.598  1.00  0.00    -0.007 A 
HETATM    7  C11 UNL     1      20.277   2.847  49.577  1.00  0.00     0.016 A 
HETATM    8  C12 UNL     1      19.034   2.311  49.226  1.00  0.00     0.040 A 
HETATM    9  C13 UNL     1      18.571   1.213  49.958  1.00  0.00     0.102 A 
HETATM   10  C14 UNL     1      19.326   0.690  50.985  1.00  0.00     0.103 A 
HETATM   11  O3  UNL     1      17.335   0.707  49.584  1.00  0.00    -0.346 OA
HETATM   12  C15 UNL     1      20.539   1.233  51.307  1.00  0.00     0.053 A 
HETATM   13  O2  UNL     1      18.688  -0.389  51.577  1.00  0.00    -0.346 OA
HETATM   14  C16 UNL     1      17.275  -0.393  51.682  1.00  0.00     0.202 C 
HETATM   15  C17 UNL     1      16.706  -0.343  50.295  1.00  0.00     0.202 C 
ENDBRANCH   3   6
BRANCH   1  16
HETATM   16  C6  UNL     1      24.967   2.066  52.305  1.00  0.00    -0.030 A 
HETATM   17  C5  UNL     1      26.139   1.725  51.657  1.00  0.00     0.009 A 
HETATM   18  C4  UNL     1      26.738   0.508  51.911  1.00  0.00     0.003 A 
HETATM   19  C3  UNL     1      26.160  -0.367  52.815  1.00  0.00     0.037 A 
HETATM   20  C2  UNL     1      24.991  -0.051  53.476  1.00  0.00     0.068 A 
HETATM   21  C24 UNL     1      24.390   1.186  53.213  1.00  0.00     0.046 A 
BRANCH  20  22
HETATM   22  O1  UNL     1      24.354  -0.875  54.395  1.00  0.00    -0.356 OA
HETATM   23  C1  UNL     1      22.944  -0.925  54.448  1.00  0.00     0.210 C 
ENDBRANCH  20  22
ENDBRANCH   1  16
BRANCH   5  24
HETATM   24  C18 UNL     1      25.349   4.444  49.954  1.00  0.00     0.053 A 
HETATM   25  C19 UNL     1      25.292   5.827  49.805  1.00  0.00     0.031 A 
HETATM   26  C20 UNL     1      26.264   6.555  49.156  1.00  0.00     0.002 A 
HETATM   27  C21 UNL     1      27.357   5.861  48.626  1.00  0.00     0.000 A 
HETATM   28  C22 UNL     1      27.426   4.490  48.765  1.00  0.00     0.002 A 
HETATM   29  C23 UNL     1      26.432   3.768  49.426  1.00  0.00     0.031 A 
ENDBRANCH   5  24
TORSDOF 4
ENDMDL
MODEL 9
REMARK VINA RESULT:      -8.5      1.533      2.190
REMARK  4 active torsions:
REMARK  status: ('A' for Active; 'I' for Inactive)
REMARK    1  A    between atoms: O1_2  and  C2_3 
REMARK    2  A    between atoms: C6_7  and  C7_8 
REMARK    3  A    between atoms: C9_10  and  C10_11 
REMARK    4  A    between atoms: N2_22  and  C18_23 
ROOT
HETATM    1  C7  UNL     1      21.855   3.332  51.929  1.00  0.00     0.149 C 
HETATM    2  C8  UNL     1      23.112   3.176  52.761  1.00  0.00     0.094 C 
HETATM    3  C9  UNL     1      23.425   1.739  52.607  1.00  0.00     0.067 C 
HETATM    4  N1  UNL     1      22.414   1.109  52.139  1.00  0.00    -0.175 NA
HETATM    5  N2  UNL     1      21.339   1.980  51.922  1.00  0.00    -0.260 N 
ENDROOT
BRANCH   3   6
HETATM    6  C10 UNL     1      24.669   1.044  52.916  1.00  0.00    -0.007 A 
HETATM    7  C11 UNL     1      24.665  -0.294  53.188  1.00  0.00     0.016 A 
HETATM    8  C12 UNL     1      25.851  -0.971  53.485  1.00  0.00     0.040 A 
HETATM    9  C13 UNL     1      27.037  -0.229  53.492  1.00  0.00     0.102 A 
HETATM   10  C14 UNL     1      27.018   1.121  53.214  1.00  0.00     0.103 A 
HETATM   11  O3  UNL     1      28.195  -0.932  53.790  1.00  0.00    -0.346 OA
HETATM   12  C15 UNL     1      25.844   1.758  52.927  1.00  0.00     0.053 A 
HETATM   13  O2  UNL     1      28.293   1.662  53.275  1.00  0.00    -0.346 OA
HETATM   14  C16 UNL     1      29.221   1.160  54.221  1.00  0.00     0.202 C 
HETATM   15  C17 UNL     1      29.450  -0.292  53.922  1.00  0.00     0.202 C 
ENDBRANCH   3   6
BRANCH   1  16
HETATM   16  C6  UNL     1      22.276   3.769  50.572  1.00  0.00    -0.030 A 
HETATM   17  C5  UNL     1      21.390   3.714  49.512  1.00  0.00     0.009 A 
HETATM   18  C4  UNL     1      21.792   4.123  48.257  1.00  0.00     0.003 A 
HETATM   19  C3  UNL     1      23.083   4.587  48.066  1.00  0.00     0.037 A 
HETATM   20  C2  UNL     1      23.986   4.653  49.106  1.00  0.00     0.068 A 
HETATM   21  C24 UNL     1      23.570   4.236  50.376  1.00  0.00     0.046 A 
BRANCH  20  22
HETATM   22  O1  UNL     1      25.293   5.107  48.991  1.00  0.00    -0.356 OA
HETATM   23  C1  UNL     1      25.704   6.273  49.674  1.00  0.00     0.210 C 
ENDBRANCH  20  22
ENDBRANCH   1  16
BRANCH   5  24
HETATM   24  C18 UNL     1      19.971   1.605  51.728  1.00  0.00     0.053 A 
HETATM   25  C19 UNL     1      18.939   2.539  51.724  1.00  0.00     0.031 A 
HETATM   26  C20 UNL     1      17.617   2.199  51.539  1.00  0.00     0.002 A 
HETATM   27  C21 UNL     1      17.309   0.848  51.347  1.00  0.00     0.000 A 
HETATM   28  C22 UNL     1      18.322  -0.089  51.349  1.00  0.00     0.002 A 
HETATM   29  C23 UNL     1      19.656   0.273  51.537  1.00  0.00     0.031 A 
ENDBRANCH   5  24
TORSDOF 4
ENDMDL
