MODEL 1
REMARK VINA RESULT:      -7.3      0.000      0.000
REMARK  4 active torsions:
REMARK  status: ('A' for Active; 'I' for Inactive)
REMARK    1  A    between atoms: N1_2  and  C3_4 
REMARK    2  A    between atoms: C3_4  and  C4_5 
REMARK    3  A    between atoms: C4_5  and  C5_6 
REMARK    4  A    between atoms: C6_7  and  O1_8 
ROOT
HETATM    1  C5  UNL     1      24.942   2.726  51.800  1.00  0.00    -0.049 C 
HETATM    2  C6  UNL     1      26.255   2.436  51.993  1.00  0.00     0.050 C 
HETATM    3  C7  UNL     1      27.128   2.135  53.138  1.00  0.00     0.103 C 
HETATM    4  C8  UNL     1      27.778   0.824  53.174  1.00  0.00    -0.044 A 
HETATM    5  C9  UNL     1      29.135   0.883  53.531  1.00  0.00     0.008 A 
HETATM    6  C10 UNL     1      30.005  -0.174  53.669  1.00  0.00     0.001 A 
HETATM    7  C11 UNL     1      29.532  -1.450  53.441  1.00  0.00     0.001 A 
HETATM    8  C12 UNL     1      28.206  -1.569  53.087  1.00  0.00     0.010 A 
HETATM    9  C13 UNL     1      27.374  -0.489  52.959  1.00  0.00    -0.028 A 
HETATM   10  C14 UNL     1      25.964  -0.755  52.543  1.00  0.00     0.206 C 
HETATM   11  O2  UNL     1      25.217   0.270  53.084  1.00  0.00    -0.387 OA
HETATM   12  C15 UNL     1      23.906   0.305  52.621  1.00  0.00     0.168 C 
HETATM   13  C16 UNL     1      23.246   1.565  53.192  1.00  0.00     0.030 C 
HETATM   14  C17 UNL     1      24.243   2.711  53.101  1.00  0.00     0.039 C 
ENDROOT
BRANCH   1  15
HETATM   15  C4  UNL     1      24.435   2.977  50.458  1.00  0.00     0.056 C 
BRANCH  15  16
HETATM   16  C3  UNL     1      23.881   4.341  50.202  1.00  0.00     0.120 C 
BRANCH  16  17
HETATM   17  N1  UNL     1      24.718   5.443  50.378  1.00  0.00    -0.421 N 
HETATM   18  C1  UNL     1      24.288   6.581  51.080  1.00  0.00     0.142 C 
HETATM   19  C2  UNL     1      25.826   5.591  49.504  1.00  0.00     0.142 C 
ENDBRANCH  16  17
ENDBRANCH  15  16
ENDBRANCH   1  15
BRANCH   2  20
HETATM   20  O1  UNL     1      27.029   2.403  50.813  1.00  0.00    -0.364 OA
HETATM   21  H11 UNL     1      26.772   1.840  50.022  1.00  0.00     0.217 HD
ENDBRANCH   2  20
TORSDOF 4
ENDMDL
MODEL 2
REMARK VINA RESULT:      -7.3      2.688      5.960
REMARK  4 active torsions:
REMARK  status: ('A' for Active; 'I' for Inactive)
REMARK    1  A    between atoms: N1_2  and  C3_4 
REMARK    2  A    between atoms: C3_4  and  C4_5 
REMARK    3  A    between atoms: C4_5  and  C5_6 
REMARK    4  A    between atoms: C6_7  and  O1_8 
ROOT
HETATM    1  C5  UNL     1      26.399   1.625  52.635  1.00  0.00    -0.049 C 
HETATM    2  C6  UNL     1      25.137   2.127  52.599  1.00  0.00     0.050 C 
HETATM    3  C7  UNL     1      23.921   1.910  51.802  1.00  0.00     0.103 C 
HETATM    4  C8  UNL     1      22.726   1.429  52.497  1.00  0.00    -0.044 A 
HETATM    5  C9  UNL     1      21.553   2.107  52.127  1.00  0.00     0.008 A 
HETATM    6  C10 UNL     1      20.277   1.873  52.587  1.00  0.00     0.001 A 
HETATM    7  C11 UNL     1      20.086   0.870  53.515  1.00  0.00     0.001 A 
HETATM    8  C12 UNL     1      21.203   0.171  53.916  1.00  0.00     0.010 A 
HETATM    9  C13 UNL     1      22.456   0.437  53.433  1.00  0.00    -0.028 A 
HETATM   10  C14 UNL     1      23.586  -0.379  53.971  1.00  0.00     0.206 C 
HETATM   11  O2  UNL     1      24.531  -0.414  52.967  1.00  0.00    -0.387 OA
HETATM   12  C15 UNL     1      25.749  -0.953  53.370  1.00  0.00     0.168 C 
HETATM   13  C16 UNL     1      26.732  -0.797  52.205  1.00  0.00     0.030 C 
HETATM   14  C17 UNL     1      26.539   0.584  51.596  1.00  0.00     0.039 C 
ENDROOT
BRANCH   1  15
HETATM   15  C4  UNL     1      27.359   2.121  53.610  1.00  0.00     0.056 C 
BRANCH  15  16
HETATM   16  C3  UNL     1      28.787   1.739  53.390  1.00  0.00     0.120 C 
BRANCH  16  17
HETATM   17  N1  UNL     1      29.291   0.628  54.066  1.00  0.00    -0.421 N 
HETATM   18  C1  UNL     1      30.158  -0.278  53.435  1.00  0.00     0.142 C 
HETATM   19  C2  UNL     1      28.608   0.183  55.228  1.00  0.00     0.142 C 
ENDBRANCH  16  17
ENDBRANCH  15  16
ENDBRANCH   1  15
BRANCH   2  20
HETATM   20  O1  UNL     1      24.875   3.124  53.563  1.00  0.00    -0.364 OA
HETATM   21  H11 UNL     1      23.946   3.464  53.741  1.00  0.00     0.217 HD
ENDBRANCH   2  20
TORSDOF 4
ENDMDL
MODEL 3
REMARK VINA RESULT:      -7.2      2.312      5.935
REMARK  4 active torsions:
REMARK  status: ('A' for Active; 'I' for Inactive)
REMARK    1  A    between atoms: N1_2  and  C3_4 
REMARK    2  A    between atoms: C3_4  and  C4_5 
REMARK    3  A    between atoms: C4_5  and  C5_6 
REMARK    4  A    between atoms: C6_7  and  O1_8 
ROOT
HETATM    1  C5  UNL     1      24.659   2.287  51.502  1.00  0.00    -0.049 C 
HETATM    2  C6  UNL     1      25.765   2.824  50.922  1.00  0.00     0.050 C 
HETATM    3  C7  UNL     1      26.176   3.226  49.569  1.00  0.00     0.103 C 
HETATM    4  C8  UNL     1      26.496   4.636  49.344  1.00  0.00    -0.044 A 
HETATM    5  C9  UNL     1      27.667   4.830  48.593  1.00  0.00     0.008 A 
HETATM    6  C10 UNL     1      28.215   6.031  48.203  1.00  0.00     0.001 A 
HETATM    7  C11 UNL     1      27.574   7.196  48.569  1.00  0.00     0.001 A 
HETATM    8  C12 UNL     1      26.419   7.067  49.308  1.00  0.00     0.010 A 
HETATM    9  C13 UNL     1      25.907   5.851  49.676  1.00  0.00    -0.028 A 
HETATM   10  C14 UNL     1      24.661   5.852  50.500  1.00  0.00     0.206 C 
HETATM   11  O2  UNL     1      24.019   4.667  50.205  1.00  0.00    -0.387 OA
HETATM   12  C15 UNL     1      22.943   4.396  51.043  1.00  0.00     0.168 C 
HETATM   13  C16 UNL     1      22.423   2.998  50.693  1.00  0.00     0.030 C 
HETATM   14  C17 UNL     1      23.619   2.084  50.473  1.00  0.00     0.039 C 
ENDROOT
BRANCH   1  15
HETATM   15  C4  UNL     1      24.637   2.018  52.933  1.00  0.00     0.056 C 
BRANCH  15  16
HETATM   16  C3  UNL     1      24.694   0.582  53.340  1.00  0.00     0.120 C 
BRANCH  16  17
HETATM   17  N1  UNL     1      25.943   0.007  53.576  1.00  0.00    -0.421 N 
HETATM   18  C1  UNL     1      26.785   0.486  54.592  1.00  0.00     0.142 C 
HETATM   19  C2  UNL     1      26.535  -0.763  52.542  1.00  0.00     0.142 C 
ENDBRANCH  16  17
ENDBRANCH  15  16
ENDBRANCH   1  15
BRANCH   2  20
HETATM   20  O1  UNL     1      26.828   3.081  51.813  1.00  0.00    -0.364 OA
HETATM   21  H11 UNL     1      27.647   3.592  51.534  1.00  0.00     0.217 HD
ENDBRANCH   2  20
TORSDOF 4
ENDMDL
MODEL 4
REMARK VINA RESULT:      -7.1      2.581      4.642
REMARK  4 active torsions:
REMARK  status: ('A' for Active; 'I' for Inactive)
REMARK    1  A    between atoms: N1_2  and  C3_4 
REMARK    2  A    between atoms: C3_4  and  C4_5 
REMARK    3  A    between atoms: C4_5  and  C5_6 
REMARK    4  A    between atoms: C6_7  and  O1_8 
ROOT
HETATM    1  C5  UNL     1      23.395   0.513  52.880  1.00  0.00    -0.049 C 
HETATM    2  C6  UNL     1      24.504  -0.235  53.123  1.00  0.00     0.050 C 
HETATM    3  C7  UNL     1      25.742  -0.577  52.407  1.00  0.00     0.103 C 
HETATM    4  C8  UNL     1      27.011  -0.161  53.003  1.00  0.00    -0.044 A 
HETATM    5  C9  UNL     1      27.995  -1.164  52.982  1.00  0.00     0.008 A 
HETATM    6  C10 UNL     1      29.286  -1.072  53.446  1.00  0.00     0.001 A 
HETATM    7  C11 UNL     1      29.703   0.121  54.001  1.00  0.00     0.001 A 
HETATM    8  C12 UNL     1      28.780   1.142  54.050  1.00  0.00     0.010 A 
HETATM    9  C13 UNL     1      27.502   1.008  53.576  1.00  0.00    -0.028 A 
HETATM   10  C14 UNL     1      26.592   2.185  53.713  1.00  0.00     0.206 C 
HETATM   11  O2  UNL     1      25.688   2.079  52.677  1.00  0.00    -0.387 OA
HETATM   12  C15 UNL     1      24.630   2.976  52.771  1.00  0.00     0.168 C 
HETATM   13  C16 UNL     1      23.644   2.650  51.644  1.00  0.00     0.030 C 
HETATM   14  C17 UNL     1      23.511   1.138  51.547  1.00  0.00     0.039 C 
ENDROOT
BRANCH   1  15
HETATM   15  C4  UNL     1      22.339   0.605  53.878  1.00  0.00     0.056 C 
BRANCH  15  16
HETATM   16  C3  UNL     1      20.937   0.497  53.373  1.00  0.00     0.120 C 
BRANCH  16  17
HETATM   17  N1  UNL     1      20.187  -0.625  53.725  1.00  0.00    -0.421 N 
HETATM   18  C1  UNL     1      20.798  -1.770  54.261  1.00  0.00     0.142 C 
HETATM   19  C2  UNL     1      18.895  -0.775  53.158  1.00  0.00     0.142 C 
ENDBRANCH  16  17
ENDBRANCH  15  16
ENDBRANCH   1  15
BRANCH   2  20
HETATM   20  O1  UNL     1      24.518  -0.873  54.381  1.00  0.00    -0.364 OA
HETATM   21  H11 UNL     1      23.738  -0.825  55.013  1.00  0.00     0.217 HD
ENDBRANCH   2  20
TORSDOF 4
ENDMDL
MODEL 5
REMARK VINA RESULT:      -6.7      3.010      6.574
REMARK  4 active torsions:
REMARK  status: ('A' for Active; 'I' for Inactive)
REMARK    1  A    between atoms: N1_2  and  C3_4 
REMARK    2  A    between atoms: C3_4  and  C4_5 
REMARK    3  A    between atoms: C4_5  and  C5_6 
REMARK    4  A    between atoms: C6_7  and  O1_8 
ROOT
HETATM    1  C5  UNL     1      24.783   0.669  53.079  1.00  0.00    -0.049 C 
HETATM    2  C6  UNL     1      23.552   0.116  53.240  1.00  0.00     0.050 C 
HETATM    3  C7  UNL     1      22.212   0.581  53.628  1.00  0.00     0.103 C 
HETATM    4  C8  UNL     1      21.134   0.449  52.647  1.00  0.00    -0.044 A 
HETATM    5  C9  UNL     1      19.941  -0.055  53.191  1.00  0.00     0.008 A 
HETATM    6  C10 UNL     1      18.753  -0.272  52.531  1.00  0.00     0.001 A 
HETATM    7  C11 UNL     1      18.683   0.025  51.186  1.00  0.00     0.001 A 
HETATM    8  C12 UNL     1      19.825   0.522  50.597  1.00  0.00     0.010 A 
HETATM    9  C13 UNL     1      20.988   0.723  51.291  1.00  0.00    -0.028 A 
HETATM   10  C14 UNL     1      22.162   1.243  50.526  1.00  0.00     0.206 C 
HETATM   11  O2  UNL     1      22.923   1.940  51.442  1.00  0.00    -0.387 OA
HETATM   12  C15 UNL     1      24.170   2.316  50.954  1.00  0.00     0.168 C 
HETATM   13  C16 UNL     1      24.949   2.948  52.113  1.00  0.00     0.030 C 
HETATM   14  C17 UNL     1      24.707   2.116  53.363  1.00  0.00     0.039 C 
ENDROOT
BRANCH   1  15
HETATM   15  C4  UNL     1      25.911  -0.157  52.672  1.00  0.00     0.056 C 
BRANCH  15  16
HETATM   16  C3  UNL     1      27.010  -0.319  53.671  1.00  0.00     0.120 C 
BRANCH  16  17
HETATM   17  N1  UNL     1      28.274   0.181  53.357  1.00  0.00    -0.421 N 
HETATM   18  C1  UNL     1      29.424  -0.612  53.488  1.00  0.00     0.142 C 
HETATM   19  C2  UNL     1      28.448   1.589  53.317  1.00  0.00     0.142 C 
ENDBRANCH  16  17
ENDBRANCH  15  16
ENDBRANCH   1  15
BRANCH   2  20
HETATM   20  O1  UNL     1      23.492  -1.270  52.979  1.00  0.00    -0.364 OA
HETATM   21  H11 UNL     1      24.229  -1.755  52.498  1.00  0.00     0.217 HD
ENDBRANCH   2  20
TORSDOF 4
ENDMDL
MODEL 6
REMARK VINA RESULT:      -6.5      2.932      5.708
REMARK  4 active torsions:
REMARK  status: ('A' for Active; 'I' for Inactive)
REMARK    1  A    between atoms: N1_2  and  C3_4 
REMARK    2  A    between atoms: C3_4  and  C4_5 
REMARK    3  A    between atoms: C4_5  and  C5_6 
REMARK    4  A    between atoms: C6_7  and  O1_8 
ROOT
HETATM    1  C5  UNL     1      23.294   2.380  51.664  1.00  0.00    -0.049 C 
HETATM    2  C6  UNL     1      23.534   3.445  50.855  1.00  0.00     0.050 C 
HETATM    3  C7  UNL     1      24.240   4.731  50.958  1.00  0.00     0.103 C 
HETATM    4  C8  UNL     1      25.374   4.960  50.062  1.00  0.00    -0.044 A 
HETATM    5  C9  UNL     1      25.371   6.235  49.472  1.00  0.00     0.008 A 
HETATM    6  C10 UNL     1      26.306   6.752  48.605  1.00  0.00     0.001 A 
HETATM    7  C11 UNL     1      27.382   5.964  48.251  1.00  0.00     0.001 A 
HETATM    8  C12 UNL     1      27.437   4.702  48.799  1.00  0.00     0.010 A 
HETATM    9  C13 UNL     1      26.484   4.226  49.659  1.00  0.00    -0.028 A 
HETATM   10  C14 UNL     1      26.649   2.828  50.161  1.00  0.00     0.206 C 
HETATM   11  O2  UNL     1      26.034   2.802  51.396  1.00  0.00    -0.387 OA
HETATM   12  C15 UNL     1      25.902   1.521  51.922  1.00  0.00     0.168 C 
HETATM   13  C16 UNL     1      25.084   1.632  53.213  1.00  0.00     0.030 C 
HETATM   14  C17 UNL     1      23.941   2.607  52.972  1.00  0.00     0.039 C 
ENDROOT
BRANCH   1  15
HETATM   15  C4  UNL     1      22.515   1.250  51.178  1.00  0.00     0.056 C 
BRANCH  15  16
HETATM   16  C3  UNL     1      21.261   0.937  51.928  1.00  0.00     0.120 C 
BRANCH  16  17
HETATM   17  N1  UNL     1      21.333   0.060  53.010  1.00  0.00    -0.421 N 
HETATM   18  C1  UNL     1      20.715   0.360  54.234  1.00  0.00     0.142 C 
HETATM   19  C2  UNL     1      22.366  -0.913  53.017  1.00  0.00     0.142 C 
ENDBRANCH  16  17
ENDBRANCH  15  16
ENDBRANCH   1  15
BRANCH   2  20
HETATM   20  O1  UNL     1      22.977   3.337  49.562  1.00  0.00    -0.364 OA
HETATM   21  H11 UNL     1      21.988   3.393  49.401  1.00  0.00     0.217 HD
ENDBRANCH   2  20
TORSDOF 4
ENDMDL
MODEL 7
REMARK VINA RESULT:      -6.5      2.604      4.389
REMARK  4 active torsions:
REMARK  status: ('A' for Active; 'I' for Inactive)
REMARK    1  A    between atoms: N1_2  and  C3_4 
REMARK    2  A    between atoms: C3_4  and  C4_5 
REMARK    3  A    between atoms: C4_5  and  C5_6 
REMARK    4  A    between atoms: C6_7  and  O1_8 
ROOT
HETATM    1  C5  UNL     1      24.302   4.166  50.360  1.00  0.00    -0.049 C 
HETATM    2  C6  UNL     1      23.362   3.378  50.945  1.00  0.00     0.050 C 
HETATM    3  C7  UNL     1      22.865   2.004  50.782  1.00  0.00     0.103 C 
HETATM    4  C8  UNL     1      23.019   1.085  51.910  1.00  0.00    -0.044 A 
HETATM    5  C9  UNL     1      21.867   0.323  52.172  1.00  0.00     0.008 A 
HETATM    6  C10 UNL     1      21.707  -0.633  53.147  1.00  0.00     0.001 A 
HETATM    7  C11 UNL     1      22.771  -0.907  53.982  1.00  0.00     0.001 A 
HETATM    8  C12 UNL     1      23.928  -0.189  53.773  1.00  0.00     0.010 A 
HETATM    9  C13 UNL     1      24.045   0.756  52.790  1.00  0.00    -0.028 A 
HETATM   10  C14 UNL     1      25.347   1.482  52.687  1.00  0.00     0.206 C 
HETATM   11  O2  UNL     1      25.467   1.844  51.361  1.00  0.00    -0.387 OA
HETATM   12  C15 UNL     1      26.522   2.718  51.119  1.00  0.00     0.168 C 
HETATM   13  C16 UNL     1      26.446   3.139  49.647  1.00  0.00     0.030 C 
HETATM   14  C17 UNL     1      24.988   3.401  49.300  1.00  0.00     0.039 C 
ENDROOT
BRANCH   1  15
HETATM   15  C4  UNL     1      24.503   5.533  50.819  1.00  0.00     0.056 C 
BRANCH  15  16
HETATM   16  C3  UNL     1      24.732   6.563  49.760  1.00  0.00     0.120 C 
BRANCH  16  17
HETATM   17  N1  UNL     1      26.022   7.064  49.587  1.00  0.00    -0.421 N 
HETATM   18  C1  UNL     1      26.414   8.281  50.166  1.00  0.00     0.142 C 
HETATM   19  C2  UNL     1      26.792   6.575  48.500  1.00  0.00     0.142 C 
ENDBRANCH  16  17
ENDBRANCH  15  16
ENDBRANCH   1  15
BRANCH   2  20
HETATM   20  O1  UNL     1      22.646   3.997  51.992  1.00  0.00    -0.364 OA
HETATM   21  H11 UNL     1      23.109   4.446  52.762  1.00  0.00     0.217 HD
ENDBRANCH   2  20
TORSDOF 4
ENDMDL
MODEL 8
REMARK VINA RESULT:      -6.5      3.851      6.050
REMARK  4 active torsions:
REMARK  status: ('A' for Active; 'I' for Inactive)
REMARK    1  A    between atoms: N1_2  and  C3_4 
REMARK    2  A    between atoms: C3_4  and  C4_5 
REMARK    3  A    between atoms: C4_5  and  C5_6 
REMARK    4  A    between atoms: C6_7  and  O1_8 
ROOT
HETATM    1  C5  UNL     1      23.680   2.486  51.103  1.00  0.00    -0.049 C 
HETATM    2  C6  UNL     1      24.921   2.960  50.814  1.00  0.00     0.050 C 
HETATM    3  C7  UNL     1      25.775   3.067  49.623  1.00  0.00     0.103 C 
HETATM    4  C8  UNL     1      26.160   4.407  49.178  1.00  0.00    -0.044 A 
HETATM    5  C9  UNL     1      27.520   4.515  48.840  1.00  0.00     0.008 A 
HETATM    6  C10 UNL     1      28.174   5.632  48.374  1.00  0.00     0.001 A 
HETATM    7  C11 UNL     1      27.452   6.795  48.204  1.00  0.00     0.001 A 
HETATM    8  C12 UNL     1      26.113   6.749  48.520  1.00  0.00     0.010 A 
HETATM    9  C13 UNL     1      25.500   5.616  48.982  1.00  0.00    -0.028 A 
HETATM   10  C14 UNL     1      24.045   5.708  49.313  1.00  0.00     0.206 C 
HETATM   11  O2  UNL     1      23.539   4.439  49.122  1.00  0.00    -0.387 OA
HETATM   12  C15 UNL     1      22.238   4.285  49.589  1.00  0.00     0.168 C 
HETATM   13  C16 UNL     1      21.864   2.806  49.441  1.00  0.00     0.030 C 
HETATM   14  C17 UNL     1      23.058   1.966  49.868  1.00  0.00     0.039 C 
ENDROOT
BRANCH   1  15
HETATM   15  C4  UNL     1      23.164   2.558  52.462  1.00  0.00     0.056 C 
BRANCH  15  16
HETATM   16  C3  UNL     1      22.495   1.328  52.984  1.00  0.00     0.120 C 
BRANCH  16  17
HETATM   17  N1  UNL     1      21.102   1.264  52.950  1.00  0.00    -0.421 N 
HETATM   18  C1  UNL     1      20.326   2.402  52.678  1.00  0.00     0.142 C 
HETATM   19  C2  UNL     1      20.463   0.174  53.597  1.00  0.00     0.142 C 
ENDBRANCH  16  17
ENDBRANCH  15  16
ENDBRANCH   1  15
BRANCH   2  20
HETATM   20  O1  UNL     1      25.612   3.503  51.918  1.00  0.00    -0.364 OA
HETATM   21  H11 UNL     1      25.239   4.260  52.463  1.00  0.00     0.217 HD
ENDBRANCH   2  20
TORSDOF 4
ENDMDL
MODEL 9
REMARK VINA RESULT:      -6.2      4.810      7.828
REMARK  4 active torsions:
REMARK  status: ('A' for Active; 'I' for Inactive)
REMARK    1  A    between atoms: N1_2  and  C3_4 
REMARK    2  A    between atoms: C3_4  and  C4_5 
REMARK    3  A    between atoms: C4_5  and  C5_6 
REMARK    4  A    between atoms: C6_7  and  O1_8 
ROOT
HETATM    1  C5  UNL     1      27.623   8.836  48.606  1.00  0.00    -0.049 C 
HETATM    2  C6  UNL     1      26.698   8.016  49.169  1.00  0.00     0.050 C 
HETATM    3  C7  UNL     1      25.656   7.092  48.695  1.00  0.00     0.103 C 
HETATM    4  C8  UNL     1      25.785   5.679  49.051  1.00  0.00    -0.044 A 
HETATM    5  C9  UNL     1      24.583   5.101  49.493  1.00  0.00     0.008 A 
HETATM    6  C10 UNL     1      24.379   3.796  49.878  1.00  0.00     0.001 A 
HETATM    7  C11 UNL     1      25.448   2.924  49.839  1.00  0.00     0.001 A 
HETATM    8  C12 UNL     1      26.654   3.435  49.415  1.00  0.00     0.010 A 
HETATM    9  C13 UNL     1      26.814   4.743  49.041  1.00  0.00    -0.028 A 
HETATM   10  C14 UNL     1      28.183   5.176  48.625  1.00  0.00     0.206 C 
HETATM   11  O2  UNL     1      27.991   6.216  47.739  1.00  0.00    -0.387 OA
HETATM   12  C15 UNL     1      29.164   6.887  47.410  1.00  0.00     0.168 C 
HETATM   13  C16 UNL     1      28.781   8.090  46.542  1.00  0.00     0.030 C 
HETATM   14  C17 UNL     1      27.536   8.732  47.136  1.00  0.00     0.039 C 
ENDROOT
BRANCH   1  15
HETATM   15  C4  UNL     1      28.509   9.629  49.446  1.00  0.00     0.056 C 
BRANCH  15  16
HETATM   16  C3  UNL     1      28.975  10.930  48.878  1.00  0.00     0.120 C 
BRANCH  16  17
HETATM   17  N1  UNL     1      30.344  11.200  48.870  1.00  0.00    -0.421 N 
HETATM   18  C1  UNL     1      30.829  12.507  49.035  1.00  0.00     0.142 C 
HETATM   19  C2  UNL     1      31.214  10.247  48.280  1.00  0.00     0.142 C 
ENDBRANCH  16  17
ENDBRANCH  15  16
ENDBRANCH   1  15
BRANCH   2  20
HETATM   20  O1  UNL     1      26.695   8.015  50.581  1.00  0.00    -0.364 OA
HETATM   21  H11 UNL     1      27.498   7.737  51.116  1.00  0.00     0.217 HD
ENDBRANCH   2  20
TORSDOF 4
ENDMDL
