MODEL 1
REMARK VINA RESULT:      -7.3      0.000      0.000
REMARK  6 active torsions:
REMARK  status: ('A' for Active; 'I' for Inactive)
REMARK    1  A    between atoms: C3_3  and  C5_5 
REMARK    2  A    between atoms: C5_5  and  C6_6 
REMARK    3  A    between atoms: C6_6  and  O1_7 
REMARK    4  A    between atoms: C6_6  and  C7_8 
REMARK    5  A    between atoms: C8_11  and  S1_12 
REMARK    6  A    between atoms: S1_12  and  C9_13 
ROOT
HETATM    1  C1  UNL     1      21.336   0.620  49.994  1.00  0.00     0.097 C 
HETATM    2  C2  UNL     1      21.013   0.940  51.225  1.00  0.00    -0.148 C 
HETATM    3  C3  UNL     1      20.670   1.343  52.438  1.00  0.00    -0.018 C 
HETATM    4  C4  UNL     1      20.482   2.796  52.602  1.00  0.00     0.057 C 
ENDROOT
BRANCH   3   5
HETATM    5  C5  UNL     1      20.550   0.253  53.361  1.00  0.00     0.056 C 
BRANCH   5   6
HETATM    6  C6  UNL     1      21.132  -0.686  54.032  1.00  0.00     0.122 C 
BRANCH   6   7
HETATM    7  O1  UNL     1      20.512  -1.727  54.711  1.00  0.00    -0.356 OA
HETATM    8  H7  UNL     1      19.868  -2.300  54.149  1.00  0.00     0.218 HD
ENDBRANCH   6   7
BRANCH   6   9
HETATM    9  C7  UNL     1      22.610  -0.635  54.073  1.00  0.00     0.226 A 
HETATM   10  N1  UNL     1      23.388  -1.060  55.100  1.00  0.00    -0.118 NA
HETATM   11  N2  UNL     1      24.652  -0.849  54.762  1.00  0.00    -0.114 NA
HETATM   12  C8  UNL     1      24.669  -0.299  53.541  1.00  0.00     0.236 A 
HETATM   13  O2  UNL     1      23.425  -0.182  53.150  1.00  0.00    -0.262 OA
BRANCH  12  14
HETATM   14  S1  UNL     1      25.876   0.294  52.346  1.00  0.00    -0.047 SA
BRANCH  14  15
HETATM   15  C9  UNL     1      27.513  -0.045  52.961  1.00  0.00    -0.007 A 
HETATM   16  C10 UNL     1      27.884  -1.305  52.841  1.00  0.00    -0.049 A 
HETATM   17  C11 UNL     1      27.002  -2.328  52.246  1.00  0.00     0.049 C 
HETATM   18  C12 UNL     1      29.220  -1.710  53.316  1.00  0.00     0.004 A 
HETATM   19  C13 UNL     1      29.952  -0.746  53.835  1.00  0.00    -0.026 A 
HETATM   20  C14 UNL     1      29.644   0.695  54.021  1.00  0.00     0.032 A 
HETATM   21  C15 UNL     1      28.284   1.083  53.532  1.00  0.00     0.050 A 
ENDBRANCH  14  15
ENDBRANCH  12  14
ENDBRANCH   6   9
ENDBRANCH   5   6
ENDBRANCH   3   5
TORSDOF 6
ENDMDL
MODEL 2
REMARK VINA RESULT:      -7.2      2.265      5.772
REMARK  6 active torsions:
REMARK  status: ('A' for Active; 'I' for Inactive)
REMARK    1  A    between atoms: C3_3  and  C5_5 
REMARK    2  A    between atoms: C5_5  and  C6_6 
REMARK    3  A    between atoms: C6_6  and  O1_7 
REMARK    4  A    between atoms: C6_6  and  C7_8 
REMARK    5  A    between atoms: C8_11  and  S1_12 
REMARK    6  A    between atoms: S1_12  and  C9_13 
ROOT
HETATM    1  C1  UNL     1      26.186   1.592  51.519  1.00  0.00     0.097 C 
HETATM    2  C2  UNL     1      26.432   0.759  52.502  1.00  0.00    -0.148 C 
HETATM    3  C3  UNL     1      26.756  -0.043  53.505  1.00  0.00    -0.018 C 
HETATM    4  C4  UNL     1      28.157   0.031  53.957  1.00  0.00     0.057 C 
ENDROOT
BRANCH   3   5
HETATM    5  C5  UNL     1      25.647  -0.833  53.952  1.00  0.00     0.056 C 
BRANCH   5   6
HETATM    6  C6  UNL     1      24.739  -1.043  54.848  1.00  0.00     0.122 C 
BRANCH   6   7
HETATM    7  O1  UNL     1      24.946  -1.452  56.159  1.00  0.00    -0.356 OA
HETATM    8  H7  UNL     1      25.668  -0.931  56.677  1.00  0.00     0.218 HD
ENDBRANCH   6   7
BRANCH   6   9
HETATM    9  C7  UNL     1      23.341  -0.820  54.421  1.00  0.00     0.226 A 
HETATM   10  N1  UNL     1      22.234  -1.123  55.145  1.00  0.00    -0.118 NA
HETATM   11  N2  UNL     1      21.176  -0.777  54.427  1.00  0.00    -0.114 NA
HETATM   12  C8  UNL     1      21.609  -0.262  53.269  1.00  0.00     0.236 A 
HETATM   13  O2  UNL     1      22.918  -0.300  53.292  1.00  0.00    -0.262 OA
BRANCH  12  14
HETATM   14  S1  UNL     1      20.919   0.436  51.761  1.00  0.00    -0.047 SA
BRANCH  14  15
HETATM   15  C9  UNL     1      21.920   1.819  51.253  1.00  0.00    -0.007 A 
HETATM   16  C10 UNL     1      22.116   1.892  49.950  1.00  0.00    -0.049 A 
HETATM   17  C11 UNL     1      21.544   0.903  49.015  1.00  0.00     0.049 C 
HETATM   18  C12 UNL     1      22.930   2.994  49.406  1.00  0.00     0.004 A 
HETATM   19  C13 UNL     1      23.408   3.838  50.298  1.00  0.00    -0.026 A 
HETATM   20  C14 UNL     1      23.256   3.857  51.775  1.00  0.00     0.032 A 
HETATM   21  C15 UNL     1      22.426   2.730  52.304  1.00  0.00     0.050 A 
ENDBRANCH  14  15
ENDBRANCH  12  14
ENDBRANCH   6   9
ENDBRANCH   5   6
ENDBRANCH   3   5
TORSDOF 6
ENDMDL
MODEL 3
REMARK VINA RESULT:      -7.2      4.080      6.017
REMARK  6 active torsions:
REMARK  status: ('A' for Active; 'I' for Inactive)
REMARK    1  A    between atoms: C3_3  and  C5_5 
REMARK    2  A    between atoms: C5_5  and  C6_6 
REMARK    3  A    between atoms: C6_6  and  O1_7 
REMARK    4  A    between atoms: C6_6  and  C7_8 
REMARK    5  A    between atoms: C8_11  and  S1_12 
REMARK    6  A    between atoms: S1_12  and  C9_13 
ROOT
HETATM    1  C1  UNL     1      22.351   0.997  51.861  1.00  0.00     0.097 C 
HETATM    2  C2  UNL     1      22.882   0.284  52.827  1.00  0.00    -0.148 C 
HETATM    3  C3  UNL     1      23.340  -0.474  53.811  1.00  0.00    -0.018 C 
HETATM    4  C4  UNL     1      22.323  -1.225  54.567  1.00  0.00     0.057 C 
ENDROOT
BRANCH   3   5
HETATM    5  C5  UNL     1      24.766  -0.403  53.935  1.00  0.00     0.056 C 
BRANCH   5   6
HETATM    6  C6  UNL     1      25.925  -0.538  53.378  1.00  0.00     0.122 C 
BRANCH   6   7
HETATM    7  O1  UNL     1      26.698  -1.692  53.342  1.00  0.00    -0.356 OA
HETATM    8  H7  UNL     1      27.653  -1.596  53.715  1.00  0.00     0.218 HD
ENDBRANCH   6   7
BRANCH   6   9
HETATM    9  C7  UNL     1      26.472   0.665  52.715  1.00  0.00     0.226 A 
HETATM   10  N1  UNL     1      27.531   1.394  53.148  1.00  0.00    -0.118 NA
HETATM   11  N2  UNL     1      27.714   2.388  52.291  1.00  0.00    -0.114 NA
HETATM   12  C8  UNL     1      26.783   2.286  51.333  1.00  0.00     0.236 A 
HETATM   13  O2  UNL     1      26.049   1.239  51.614  1.00  0.00    -0.262 OA
BRANCH  12  14
HETATM   14  S1  UNL     1      26.289   3.152  49.835  1.00  0.00    -0.047 SA
BRANCH  14  15
HETATM   15  C9  UNL     1      25.330   4.585  50.285  1.00  0.00    -0.007 A 
HETATM   16  C10 UNL     1      25.713   5.698  49.690  1.00  0.00    -0.049 A 
HETATM   17  C11 UNL     1      26.840   5.729  48.738  1.00  0.00     0.049 C 
HETATM   18  C12 UNL     1      24.996   6.953  49.982  1.00  0.00     0.004 A 
HETATM   19  C13 UNL     1      24.002   6.850  50.840  1.00  0.00    -0.026 A 
HETATM   20  C14 UNL     1      23.484   5.663  51.567  1.00  0.00     0.032 A 
HETATM   21  C15 UNL     1      24.227   4.401  51.255  1.00  0.00     0.050 A 
ENDBRANCH  14  15
ENDBRANCH  12  14
ENDBRANCH   6   9
ENDBRANCH   5   6
ENDBRANCH   3   5
TORSDOF 6
ENDMDL
MODEL 4
REMARK VINA RESULT:      -7.1      2.695      4.253
REMARK  6 active torsions:
REMARK  status: ('A' for Active; 'I' for Inactive)
REMARK    1  A    between atoms: C3_3  and  C5_5 
REMARK    2  A    between atoms: C5_5  and  C6_6 
REMARK    3  A    between atoms: C6_6  and  O1_7 
REMARK    4  A    between atoms: C6_6  and  C7_8 
REMARK    5  A    between atoms: C8_11  and  S1_12 
REMARK    6  A    between atoms: S1_12  and  C9_13 
ROOT
HETATM    1  C1  UNL     1      18.671  -1.354  53.526  1.00  0.00     0.097 C 
HETATM    2  C2  UNL     1      19.857  -0.814  53.373  1.00  0.00    -0.148 C 
HETATM    3  C3  UNL     1      21.024  -0.230  53.148  1.00  0.00    -0.018 C 
HETATM    4  C4  UNL     1      21.166   0.433  51.840  1.00  0.00     0.057 C 
ENDROOT
BRANCH   3   5
HETATM    5  C5  UNL     1      21.926  -0.369  54.253  1.00  0.00     0.056 C 
BRANCH   5   6
HETATM    6  C6  UNL     1      22.893  -1.026  54.805  1.00  0.00     0.122 C 
BRANCH   6   7
HETATM    7  O1  UNL     1      22.776  -2.037  55.750  1.00  0.00    -0.356 OA
HETATM    8  H7  UNL     1      22.937  -2.992  55.399  1.00  0.00     0.218 HD
ENDBRANCH   6   7
BRANCH   6   9
HETATM    9  C7  UNL     1      24.258  -0.654  54.376  1.00  0.00     0.226 A 
HETATM   10  N1  UNL     1      25.412  -1.088  54.943  1.00  0.00    -0.118 NA
HETATM   11  N2  UNL     1      26.419  -0.537  54.282  1.00  0.00    -0.114 NA
HETATM   12  C8  UNL     1      25.907   0.234  53.313  1.00  0.00     0.236 A 
HETATM   13  O2  UNL     1      24.603   0.143  53.392  1.00  0.00    -0.262 OA
BRANCH  12  14
HETATM   14  S1  UNL     1      26.492   1.306  51.992  1.00  0.00    -0.047 SA
BRANCH  14  15
HETATM   15  C9  UNL     1      25.398   2.705  51.855  1.00  0.00    -0.007 A 
HETATM   16  C10 UNL     1      25.512   3.370  50.721  1.00  0.00    -0.049 A 
HETATM   17  C11 UNL     1      26.471   2.970  49.672  1.00  0.00     0.049 C 
HETATM   18  C12 UNL     1      24.659   4.549  50.490  1.00  0.00     0.004 A 
HETATM   19  C13 UNL     1      23.828   4.847  51.468  1.00  0.00    -0.026 A 
HETATM   20  C14 UNL     1      23.612   4.179  52.776  1.00  0.00     0.032 A 
HETATM   21  C15 UNL     1      24.489   2.985  52.989  1.00  0.00     0.050 A 
ENDBRANCH  14  15
ENDBRANCH  12  14
ENDBRANCH   6   9
ENDBRANCH   5   6
ENDBRANCH   3   5
TORSDOF 6
ENDMDL
MODEL 5
REMARK VINA RESULT:      -6.9      1.804      2.764
REMARK  6 active torsions:
REMARK  status: ('A' for Active; 'I' for Inactive)
REMARK    1  A    between atoms: C3_3  and  C5_5 
REMARK    2  A    between atoms: C5_5  and  C6_6 
REMARK    3  A    between atoms: C6_6  and  O1_7 
REMARK    4  A    between atoms: C6_6  and  C7_8 
REMARK    5  A    between atoms: C8_11  and  S1_12 
REMARK    6  A    between atoms: S1_12  and  C9_13 
ROOT
HETATM    1  C1  UNL     1      21.864   1.312  49.841  1.00  0.00     0.097 C 
HETATM    2  C2  UNL     1      20.965   1.418  50.791  1.00  0.00    -0.148 C 
HETATM    3  C3  UNL     1      20.006   1.563  51.692  1.00  0.00    -0.018 C 
HETATM    4  C4  UNL     1      18.876   2.420  51.292  1.00  0.00     0.057 C 
ENDROOT
BRANCH   3   5
HETATM    5  C5  UNL     1      20.276   0.838  52.898  1.00  0.00     0.056 C 
BRANCH   5   6
HETATM    6  C6  UNL     1      20.160  -0.262  53.567  1.00  0.00     0.122 C 
BRANCH   6   7
HETATM    7  O1  UNL     1      19.002  -1.012  53.735  1.00  0.00    -0.356 OA
HETATM    8  H7  UNL     1      18.270  -0.572  54.311  1.00  0.00     0.218 HD
ENDBRANCH   6   7
BRANCH   6   9
HETATM    9  C7  UNL     1      21.391  -0.764  54.213  1.00  0.00     0.226 A 
HETATM   10  N1  UNL     1      21.457  -1.780  55.110  1.00  0.00    -0.118 NA
HETATM   11  N2  UNL     1      22.727  -1.930  55.457  1.00  0.00    -0.114 NA
HETATM   12  C8  UNL     1      23.450  -1.022  54.789  1.00  0.00     0.236 A 
HETATM   13  O2  UNL     1      22.620  -0.333  54.046  1.00  0.00    -0.262 OA
BRANCH  12  14
HETATM   14  S1  UNL     1      25.170  -0.513  54.637  1.00  0.00    -0.047 SA
BRANCH  14  15
HETATM   15  C9  UNL     1      25.307   0.676  53.318  1.00  0.00    -0.007 A 
HETATM   16  C10 UNL     1      26.214   0.372  52.409  1.00  0.00    -0.049 A 
HETATM   17  C11 UNL     1      27.032  -0.853  52.500  1.00  0.00     0.049 C 
HETATM   18  C12 UNL     1      26.421   1.280  51.267  1.00  0.00     0.004 A 
HETATM   19  C13 UNL     1      25.657   2.353  51.252  1.00  0.00    -0.026 A 
HETATM   20  C14 UNL     1      24.611   2.797  52.209  1.00  0.00     0.032 A 
HETATM   21  C15 UNL     1      24.419   1.860  53.360  1.00  0.00     0.050 A 
ENDBRANCH  14  15
ENDBRANCH  12  14
ENDBRANCH   6   9
ENDBRANCH   5   6
ENDBRANCH   3   5
TORSDOF 6
ENDMDL
MODEL 6
REMARK VINA RESULT:      -6.8      3.015      4.061
REMARK  6 active torsions:
REMARK  status: ('A' for Active; 'I' for Inactive)
REMARK    1  A    between atoms: C3_3  and  C5_5 
REMARK    2  A    between atoms: C5_5  and  C6_6 
REMARK    3  A    between atoms: C6_6  and  O1_7 
REMARK    4  A    between atoms: C6_6  and  C7_8 
REMARK    5  A    between atoms: C8_11  and  S1_12 
REMARK    6  A    between atoms: S1_12  and  C9_13 
ROOT
HETATM    1  C1  UNL     1      21.852   3.614  46.194  1.00  0.00     0.097 C 
HETATM    2  C2  UNL     1      22.250   3.060  47.315  1.00  0.00    -0.148 C 
HETATM    3  C3  UNL     1      22.589   2.444  48.437  1.00  0.00    -0.018 C 
HETATM    4  C4  UNL     1      21.642   1.421  48.916  1.00  0.00     0.057 C 
ENDROOT
BRANCH   3   5
HETATM    5  C5  UNL     1      23.837   2.913  48.962  1.00  0.00     0.056 C 
BRANCH   5   6
HETATM    6  C6  UNL     1      24.475   3.485  49.929  1.00  0.00     0.122 C 
BRANCH   6   7
HETATM    7  O1  UNL     1      25.197   4.670  49.861  1.00  0.00    -0.356 OA
HETATM    8  H7  UNL     1      25.784   4.878  50.681  1.00  0.00     0.218 HD
ENDBRANCH   6   7
BRANCH   6   9
HETATM    9  C7  UNL     1      24.423   2.798  51.238  1.00  0.00     0.226 A 
HETATM   10  N1  UNL     1      23.861   3.292  52.369  1.00  0.00    -0.118 NA
HETATM   11  N2  UNL     1      24.015   2.388  53.325  1.00  0.00    -0.114 NA
HETATM   12  C8  UNL     1      24.664   1.339  52.803  1.00  0.00     0.236 A 
HETATM   13  O2  UNL     1      24.898   1.613  51.544  1.00  0.00    -0.262 OA
BRANCH  12  14
HETATM   14  S1  UNL     1      25.274  -0.269  53.332  1.00  0.00    -0.047 SA
BRANCH  14  15
HETATM   15  C9  UNL     1      27.043  -0.182  53.526  1.00  0.00    -0.007 A 
HETATM   16  C10 UNL     1      27.689  -1.233  53.059  1.00  0.00    -0.049 A 
HETATM   17  C11 UNL     1      26.986  -2.370  52.435  1.00  0.00     0.049 C 
HETATM   18  C12 UNL     1      29.159  -1.278  53.163  1.00  0.00     0.004 A 
HETATM   19  C13 UNL     1      29.718  -0.229  53.732  1.00  0.00    -0.026 A 
HETATM   20  C14 UNL     1      29.100   1.000  54.289  1.00  0.00     0.032 A 
HETATM   21  C15 UNL     1      27.608   1.024  54.173  1.00  0.00     0.050 A 
ENDBRANCH  14  15
ENDBRANCH  12  14
ENDBRANCH   6   9
ENDBRANCH   5   6
ENDBRANCH   3   5
TORSDOF 6
ENDMDL
MODEL 7
REMARK VINA RESULT:      -6.8      2.208      2.726
REMARK  6 active torsions:
REMARK  status: ('A' for Active; 'I' for Inactive)
REMARK    1  A    between atoms: C3_3  and  C5_5 
REMARK    2  A    between atoms: C5_5  and  C6_6 
REMARK    3  A    between atoms: C6_6  and  O1_7 
REMARK    4  A    between atoms: C6_6  and  C7_8 
REMARK    5  A    between atoms: C8_11  and  S1_12 
REMARK    6  A    between atoms: S1_12  and  C9_13 
ROOT
HETATM    1  C1  UNL     1      18.081  -1.430  53.346  1.00  0.00     0.097 C 
HETATM    2  C2  UNL     1      18.481  -0.635  52.382  1.00  0.00    -0.148 C 
HETATM    3  C3  UNL     1      18.805   0.160  51.374  1.00  0.00    -0.018 C 
HETATM    4  C4  UNL     1      17.830   0.226  50.271  1.00  0.00     0.057 C 
ENDROOT
BRANCH   3   5
HETATM    5  C5  UNL     1      20.069   0.805  51.573  1.00  0.00     0.056 C 
BRANCH   5   6
HETATM    6  C6  UNL     1      20.809   1.565  52.312  1.00  0.00     0.122 C 
BRANCH   6   7
HETATM    7  O1  UNL     1      20.390   2.659  53.059  1.00  0.00    -0.356 OA
HETATM    8  H7  UNL     1      21.055   3.444  53.105  1.00  0.00     0.218 HD
ENDBRANCH   6   7
BRANCH   6   9
HETATM    9  C7  UNL     1      22.247   1.223  52.360  1.00  0.00     0.226 A 
HETATM   10  N1  UNL     1      23.199   1.689  51.513  1.00  0.00    -0.118 NA
HETATM   11  N2  UNL     1      24.357   1.157  51.877  1.00  0.00    -0.114 NA
HETATM   12  C8  UNL     1      24.137   0.368  52.937  1.00  0.00     0.236 A 
HETATM   13  O2  UNL     1      22.857   0.427  53.207  1.00  0.00    -0.262 OA
BRANCH  12  14
HETATM   14  S1  UNL     1      25.074  -0.699  54.042  1.00  0.00    -0.047 SA
BRANCH  14  15
HETATM   15  C9  UNL     1      26.799  -0.270  53.935  1.00  0.00    -0.007 A 
HETATM   16  C10 UNL     1      27.515  -1.093  53.194  1.00  0.00    -0.049 A 
HETATM   17  C11 UNL     1      26.916  -2.263  52.521  1.00  0.00     0.049 C 
HETATM   18  C12 UNL     1      28.958  -0.843  53.029  1.00  0.00     0.004 A 
HETATM   19  C13 UNL     1      29.424   0.217  53.658  1.00  0.00    -0.026 A 
HETATM   20  C14 UNL     1      28.722   1.208  54.512  1.00  0.00     0.032 A 
HETATM   21  C15 UNL     1      27.258   0.934  54.665  1.00  0.00     0.050 A 
ENDBRANCH  14  15
ENDBRANCH  12  14
ENDBRANCH   6   9
ENDBRANCH   5   6
ENDBRANCH   3   5
TORSDOF 6
ENDMDL
MODEL 8
REMARK VINA RESULT:      -6.8     18.710     20.375
REMARK  6 active torsions:
REMARK  status: ('A' for Active; 'I' for Inactive)
REMARK    1  A    between atoms: C3_3  and  C5_5 
REMARK    2  A    between atoms: C5_5  and  C6_6 
REMARK    3  A    between atoms: C6_6  and  O1_7 
REMARK    4  A    between atoms: C6_6  and  C7_8 
REMARK    5  A    between atoms: C8_11  and  S1_12 
REMARK    6  A    between atoms: S1_12  and  C9_13 
ROOT
HETATM    1  C1  UNL     1      42.540   4.840  55.652  1.00  0.00     0.097 C 
HETATM    2  C2  UNL     1      43.639   4.123  55.648  1.00  0.00    -0.148 C 
HETATM    3  C3  UNL     1      44.767   3.433  55.721  1.00  0.00    -0.018 C 
HETATM    4  C4  UNL     1      45.673   3.803  56.823  1.00  0.00     0.057 C 
ENDROOT
BRANCH   3   5
HETATM    5  C5  UNL     1      44.870   2.446  54.688  1.00  0.00     0.056 C 
BRANCH   5   6
HETATM    6  C6  UNL     1      44.381   1.389  54.127  1.00  0.00     0.122 C 
BRANCH   6   7
HETATM    7  O1  UNL     1      43.382   1.348  53.163  1.00  0.00    -0.356 OA
HETATM    8  H7  UNL     1      42.968   2.258  52.916  1.00  0.00     0.218 HD
ENDBRANCH   6   7
BRANCH   6   9
HETATM    9  C7  UNL     1      44.954   0.097  54.564  1.00  0.00     0.226 A 
HETATM   10  N1  UNL     1      46.276  -0.177  54.699  1.00  0.00    -0.118 NA
HETATM   11  N2  UNL     1      46.387  -1.432  55.108  1.00  0.00    -0.114 NA
HETATM   12  C8  UNL     1      45.154  -1.941  55.229  1.00  0.00     0.236 A 
HETATM   13  O2  UNL     1      44.310  -0.997  54.895  1.00  0.00    -0.262 OA
BRANCH  12  14
HETATM   14  S1  UNL     1      44.375  -3.492  55.704  1.00  0.00    -0.047 SA
BRANCH  14  15
HETATM   15  C9  UNL     1      43.437  -3.235  57.196  1.00  0.00    -0.007 A 
HETATM   16  C10 UNL     1      42.157  -2.984  56.992  1.00  0.00    -0.049 A 
HETATM   17  C11 UNL     1      41.578  -2.926  55.635  1.00  0.00     0.049 C 
HETATM   18  C12 UNL     1      41.276  -2.753  58.150  1.00  0.00     0.004 A 
HETATM   19  C13 UNL     1      41.862  -2.819  59.328  1.00  0.00    -0.026 A 
HETATM   20  C14 UNL     1      43.279  -3.092  59.679  1.00  0.00     0.032 A 
HETATM   21  C15 UNL     1      44.154  -3.323  58.488  1.00  0.00     0.050 A 
ENDBRANCH  14  15
ENDBRANCH  12  14
ENDBRANCH   6   9
ENDBRANCH   5   6
ENDBRANCH   3   5
TORSDOF 6
ENDMDL
MODEL 9
REMARK VINA RESULT:      -6.7      9.630     10.962
REMARK  6 active torsions:
REMARK  status: ('A' for Active; 'I' for Inactive)
REMARK    1  A    between atoms: C3_3  and  C5_5 
REMARK    2  A    between atoms: C5_5  and  C6_6 
REMARK    3  A    between atoms: C6_6  and  O1_7 
REMARK    4  A    between atoms: C6_6  and  C7_8 
REMARK    5  A    between atoms: C8_11  and  S1_12 
REMARK    6  A    between atoms: S1_12  and  C9_13 
ROOT
HETATM    1  C1  UNL     1      28.515   5.390  48.268  1.00  0.00     0.097 C 
HETATM    2  C2  UNL     1      27.532   6.214  48.547  1.00  0.00    -0.148 C 
HETATM    3  C3  UNL     1      26.486   6.977  48.822  1.00  0.00    -0.018 C 
HETATM    4  C4  UNL     1      25.167   6.348  48.636  1.00  0.00     0.057 C 
ENDROOT
BRANCH   3   5
HETATM    5  C5  UNL     1      26.868   8.289  49.255  1.00  0.00     0.056 C 
BRANCH   5   6
HETATM    6  C6  UNL     1      27.731   9.038  49.860  1.00  0.00     0.122 C 
BRANCH   6   7
HETATM    7  O1  UNL     1      27.581   9.638  51.104  1.00  0.00    -0.356 OA
HETATM    8  H7  UNL     1      28.160   9.243  51.858  1.00  0.00     0.218 HD
ENDBRANCH   6   7
BRANCH   6   9
HETATM    9  C7  UNL     1      29.003   9.271  49.144  1.00  0.00     0.226 A 
HETATM   10  N1  UNL     1      29.222  10.230  48.210  1.00  0.00    -0.118 NA
HETATM   11  N2  UNL     1      30.478  10.119  47.804  1.00  0.00    -0.114 NA
HETATM   12  C8  UNL     1      31.042   9.104  48.472  1.00  0.00     0.236 A 
HETATM   13  O2  UNL     1      30.131   8.612  49.273  1.00  0.00    -0.262 OA
BRANCH  12  14
HETATM   14  S1  UNL     1      32.635   8.273  48.568  1.00  0.00    -0.047 SA
BRANCH  14  15
HETATM   15  C9  UNL     1      32.550   6.751  47.646  1.00  0.00    -0.007 A 
HETATM   16  C10 UNL     1      32.214   5.700  48.370  1.00  0.00    -0.049 A 
HETATM   17  C11 UNL     1      31.939   5.802  49.817  1.00  0.00     0.049 C 
HETATM   18  C12 UNL     1      32.111   4.382  47.719  1.00  0.00     0.004 A 
HETATM   19  C13 UNL     1      32.370   4.367  46.428  1.00  0.00    -0.026 A 
HETATM   20  C14 UNL     1      32.754   5.474  45.515  1.00  0.00     0.032 A 
HETATM   21  C15 UNL     1      32.853   6.802  46.198  1.00  0.00     0.050 A 
ENDBRANCH  14  15
ENDBRANCH  12  14
ENDBRANCH   6   9
ENDBRANCH   5   6
ENDBRANCH   3   5
TORSDOF 6
ENDMDL
