MODEL 1
REMARK VINA RESULT:      -8.2      0.000      0.000
REMARK  6 active torsions:
REMARK  status: ('A' for Active; 'I' for Inactive)
REMARK    1  A    between atoms: N1_1  and  C1_2 
REMARK    2  A    between atoms: C4_5  and  O1_6 
REMARK    3  A    between atoms: O1_6  and  C5_7 
REMARK    4  A    between atoms: C7_9  and  N2_10 
REMARK    5  A    between atoms: N2_10  and  C8_11 
REMARK    6  A    between atoms: C15_22  and  N5_23 
ROOT
HETATM    1  C5  UNL     1      25.565   2.301  52.794  1.00  0.00     0.174 A 
HETATM    2  C6  UNL     1      26.155   2.684  51.630  1.00  0.00     0.108 A 
HETATM    3  C7  UNL     1      25.455   3.123  50.527  1.00  0.00     0.133 A 
HETATM    4  N3  UNL     1      24.104   3.146  50.682  1.00  0.00    -0.224 NA
HETATM    5  C14 UNL     1      23.521   2.768  51.832  1.00  0.00     0.238 A 
HETATM    6  N4  UNL     1      24.213   2.342  52.902  1.00  0.00    -0.217 NA
ENDROOT
BRANCH   1   7
HETATM    7  O1  UNL     1      26.352   1.873  53.856  1.00  0.00    -0.290 OA
BRANCH   7   8
HETATM    8  C4  UNL     1      27.022   0.664  53.685  1.00  0.00     0.104 A 
HETATM    9  C3  UNL     1      26.247  -0.320  53.103  1.00  0.00     0.042 A 
HETATM   10  C2  UNL     1      26.761  -1.570  52.867  1.00  0.00     0.032 A 
HETATM   11  C1  UNL     1      28.082  -1.848  53.218  1.00  0.00     0.028 A 
HETATM   12  C16 UNL     1      28.833  -0.848  53.797  1.00  0.00     0.060 A 
HETATM   13  C15 UNL     1      28.332   0.414  54.042  1.00  0.00     0.062 A 
BRANCH  11  14
HETATM   14  N1  UNL     1      28.738  -3.105  53.027  1.00  0.00    -0.399 N 
HETATM   15  H1  UNL     1      29.732  -2.920  53.257  1.00  0.00     0.156 HD
HETATM   16  H2  UNL     1      28.240  -3.961  52.723  1.00  0.00     0.156 HD
ENDBRANCH  11  14
BRANCH  13  17
HETATM   17  N5  UNL     1      29.059   1.481  54.636  1.00  0.00    -0.397 N 
HETATM   18  H11 UNL     1      28.736   2.215  55.327  1.00  0.00     0.156 HD
HETATM   19  H12 UNL     1      30.053   1.590  54.379  1.00  0.00     0.156 HD
ENDBRANCH  13  17
ENDBRANCH   7   8
ENDBRANCH   1   7
BRANCH   3  20
HETATM   20  N2  UNL     1      26.149   3.505  49.347  1.00  0.00    -0.341 N 
HETATM   21  H6  UNL     1      26.191   2.626  48.786  1.00  0.00     0.167 HD
BRANCH  20  22
HETATM   22  C8  UNL     1      26.683   4.768  48.969  1.00  0.00     0.035 A 
HETATM   23  C9  UNL     1      25.847   5.863  49.011  1.00  0.00     0.032 A 
HETATM   24  C10 UNL     1      26.367   7.086  48.645  1.00  0.00     0.046 A 
HETATM   25  C11 UNL     1      27.694   7.181  48.250  1.00  0.00     0.138 A 
HETATM   26  F1  UNL     1      28.181   8.398  47.893  1.00  0.00    -0.204 F 
HETATM   27  C12 UNL     1      28.501   6.042  48.223  1.00  0.00     0.074 A 
HETATM   28 CL1  UNL     1      30.175   6.175  47.722  1.00  0.00    -0.081 Cl
HETATM   29  C13 UNL     1      27.998   4.801  48.588  1.00  0.00     0.056 A 
ENDBRANCH  20  22
ENDBRANCH   3  20
TORSDOF 6
ENDMDL
MODEL 2
REMARK VINA RESULT:      -8.2      4.266      5.918
REMARK  6 active torsions:
REMARK  status: ('A' for Active; 'I' for Inactive)
REMARK    1  A    between atoms: N1_1  and  C1_2 
REMARK    2  A    between atoms: C4_5  and  O1_6 
REMARK    3  A    between atoms: O1_6  and  C5_7 
REMARK    4  A    between atoms: C7_9  and  N2_10 
REMARK    5  A    between atoms: N2_10  and  C8_11 
REMARK    6  A    between atoms: C15_22  and  N5_23 
ROOT
HETATM    1  C5  UNL     1      26.428   2.499  51.993  1.00  0.00     0.174 A 
HETATM    2  C6  UNL     1      25.076   2.643  51.978  1.00  0.00     0.108 A 
HETATM    3  C7  UNL     1      24.363   3.060  50.874  1.00  0.00     0.133 A 
HETATM    4  N3  UNL     1      25.120   3.326  49.776  1.00  0.00    -0.224 NA
HETATM    5  C14 UNL     1      26.456   3.185  49.790  1.00  0.00     0.238 A 
HETATM    6  N4  UNL     1      27.141   2.777  50.872  1.00  0.00    -0.217 NA
ENDROOT
BRANCH   1   7
HETATM    7  O1  UNL     1      27.062   2.071  53.153  1.00  0.00    -0.290 OA
BRANCH   7   8
HETATM    8  C4  UNL     1      27.518   0.756  53.162  1.00  0.00     0.104 A 
HETATM    9  C3  UNL     1      26.571  -0.160  52.746  1.00  0.00     0.042 A 
HETATM   10  C2  UNL     1      26.864  -1.500  52.698  1.00  0.00     0.032 A 
HETATM   11  C1  UNL     1      28.132  -1.940  53.075  1.00  0.00     0.028 A 
HETATM   12  C16 UNL     1      29.058  -1.005  53.487  1.00  0.00     0.060 A 
HETATM   13  C15 UNL     1      28.780   0.345  53.541  1.00  0.00     0.062 A 
BRANCH  11  14
HETATM   14  N1  UNL     1      28.566  -3.304  53.073  1.00  0.00    -0.399 N 
HETATM   15  H1  UNL     1      28.528  -3.593  54.068  1.00  0.00     0.156 HD
HETATM   16  H2  UNL     1      28.838  -3.807  52.209  1.00  0.00     0.156 HD
ENDBRANCH  11  14
BRANCH  13  17
HETATM   17  N5  UNL     1      29.694   1.351  53.957  1.00  0.00    -0.397 N 
HETATM   18  H11 UNL     1      29.962   1.655  54.935  1.00  0.00     0.156 HD
HETATM   19  H12 UNL     1      30.187   1.888  53.226  1.00  0.00     0.156 HD
ENDBRANCH  13  17
ENDBRANCH   7   8
ENDBRANCH   1   7
BRANCH   3  20
HETATM   20  N2  UNL     1      22.949   3.184  50.943  1.00  0.00    -0.341 N 
HETATM   21  H6  UNL     1      22.776   4.189  50.717  1.00  0.00     0.167 HD
BRANCH  20  22
HETATM   22  C8  UNL     1      21.959   2.209  51.242  1.00  0.00     0.035 A 
HETATM   23  C9  UNL     1      21.199   1.717  50.203  1.00  0.00     0.032 A 
HETATM   24  C10 UNL     1      20.241   0.771  50.496  1.00  0.00     0.046 A 
HETATM   25  C11 UNL     1      20.068   0.346  51.806  1.00  0.00     0.138 A 
HETATM   26  F1  UNL     1      19.116  -0.586  52.067  1.00  0.00    -0.204 F 
HETATM   27  C12 UNL     1      20.863   0.875  52.825  1.00  0.00     0.074 A 
HETATM   28 CL1  UNL     1      20.636   0.331  54.475  1.00  0.00    -0.081 Cl
HETATM   29  C13 UNL     1      21.834   1.828  52.552  1.00  0.00     0.056 A 
ENDBRANCH  20  22
ENDBRANCH   3  20
TORSDOF 6
ENDMDL
MODEL 3
REMARK VINA RESULT:      -8.2      1.126      1.497
REMARK  6 active torsions:
REMARK  status: ('A' for Active; 'I' for Inactive)
REMARK    1  A    between atoms: N1_1  and  C1_2 
REMARK    2  A    between atoms: C4_5  and  O1_6 
REMARK    3  A    between atoms: O1_6  and  C5_7 
REMARK    4  A    between atoms: C7_9  and  N2_10 
REMARK    5  A    between atoms: N2_10  and  C8_11 
REMARK    6  A    between atoms: C15_22  and  N5_23 
ROOT
HETATM    1  C5  UNL     1      25.599   2.368  52.952  1.00  0.00     0.174 A 
HETATM    2  C6  UNL     1      26.128   2.745  51.757  1.00  0.00     0.108 A 
HETATM    3  C7  UNL     1      25.373   3.189  50.692  1.00  0.00     0.133 A 
HETATM    4  N3  UNL     1      24.033   3.226  50.921  1.00  0.00    -0.224 NA
HETATM    5  C14 UNL     1      23.509   2.854  52.101  1.00  0.00     0.238 A 
HETATM    6  N4  UNL     1      24.254   2.422  53.133  1.00  0.00    -0.217 NA
ENDROOT
BRANCH   1   7
HETATM    7  O1  UNL     1      26.437   1.934  53.971  1.00  0.00    -0.290 OA
BRANCH   7   8
HETATM    8  C4  UNL     1      27.076   0.713  53.771  1.00  0.00     0.104 A 
HETATM    9  C3  UNL     1      26.276  -0.236  53.162  1.00  0.00     0.042 A 
HETATM   10  C2  UNL     1      26.757  -1.493  52.896  1.00  0.00     0.032 A 
HETATM   11  C1  UNL     1      28.069  -1.815  53.243  1.00  0.00     0.028 A 
HETATM   12  C16 UNL     1      28.844  -0.850  53.850  1.00  0.00     0.060 A 
HETATM   13  C15 UNL     1      28.377   0.418  54.125  1.00  0.00     0.062 A 
BRANCH  11  14
HETATM   14  N1  UNL     1      28.692  -3.084  53.023  1.00  0.00    -0.399 N 
HETATM   15  H1  UNL     1      29.688  -2.860  52.844  1.00  0.00     0.156 HD
HETATM   16  H2  UNL     1      28.173  -3.980  53.057  1.00  0.00     0.156 HD
ENDBRANCH  11  14
BRANCH  13  17
HETATM   17  N5  UNL     1      29.131   1.450  54.748  1.00  0.00    -0.397 N 
HETATM   18  H11 UNL     1      29.430   1.550  55.758  1.00  0.00     0.156 HD
HETATM   19  H12 UNL     1      29.451   2.235  54.160  1.00  0.00     0.156 HD
ENDBRANCH  13  17
ENDBRANCH   7   8
ENDBRANCH   1   7
BRANCH   3  20
HETATM   20  N2  UNL     1      26.007   3.564  49.476  1.00  0.00    -0.341 N 
HETATM   21  H6  UNL     1      25.963   2.697  48.895  1.00  0.00     0.167 HD
BRANCH  20  22
HETATM   22  C8  UNL     1      26.581   4.805  49.090  1.00  0.00     0.035 A 
HETATM   23  C9  UNL     1      27.869   4.798  48.597  1.00  0.00     0.032 A 
HETATM   24  C10 UNL     1      28.423   6.003  48.223  1.00  0.00     0.046 A 
HETATM   25  C11 UNL     1      27.685   7.172  48.349  1.00  0.00     0.138 A 
HETATM   26  F1  UNL     1      28.255   8.345  47.974  1.00  0.00    -0.204 F 
HETATM   27  C12 UNL     1      26.384   7.127  48.854  1.00  0.00     0.074 A 
HETATM   28 CL1  UNL     1      25.462   8.609  49.009  1.00  0.00    -0.081 Cl
HETATM   29  C13 UNL     1      25.806   5.925  49.237  1.00  0.00     0.056 A 
ENDBRANCH  20  22
ENDBRANCH   3  20
TORSDOF 6
ENDMDL
MODEL 4
REMARK VINA RESULT:      -7.9      3.697      7.340
REMARK  6 active torsions:
REMARK  status: ('A' for Active; 'I' for Inactive)
REMARK    1  A    between atoms: N1_1  and  C1_2 
REMARK    2  A    between atoms: C4_5  and  O1_6 
REMARK    3  A    between atoms: O1_6  and  C5_7 
REMARK    4  A    between atoms: C7_9  and  N2_10 
REMARK    5  A    between atoms: N2_10  and  C8_11 
REMARK    6  A    between atoms: C15_22  and  N5_23 
ROOT
HETATM    1  C5  UNL     1      24.544   3.797  50.704  1.00  0.00     0.174 A 
HETATM    2  C6  UNL     1      25.009   2.655  51.279  1.00  0.00     0.108 A 
HETATM    3  C7  UNL     1      24.853   2.354  52.616  1.00  0.00     0.133 A 
HETATM    4  N3  UNL     1      24.190   3.297  53.338  1.00  0.00    -0.224 NA
HETATM    5  C14 UNL     1      23.731   4.424  52.771  1.00  0.00     0.238 A 
HETATM    6  N4  UNL     1      23.888   4.708  51.466  1.00  0.00    -0.217 NA
ENDROOT
BRANCH   1   7
HETATM    7  O1  UNL     1      24.746   4.016  49.347  1.00  0.00    -0.290 OA
BRANCH   7   8
HETATM    8  C4  UNL     1      25.730   4.941  49.007  1.00  0.00     0.104 A 
HETATM    9  C3  UNL     1      26.999   4.399  48.940  1.00  0.00     0.042 A 
HETATM   10  C2  UNL     1      28.080   5.180  48.617  1.00  0.00     0.032 A 
HETATM   11  C1  UNL     1      27.894   6.536  48.354  1.00  0.00     0.028 A 
HETATM   12  C16 UNL     1      26.617   7.052  48.428  1.00  0.00     0.060 A 
HETATM   13  C15 UNL     1      25.519   6.281  48.751  1.00  0.00     0.062 A 
BRANCH  11  14
HETATM   14  N1  UNL     1      28.931   7.459  48.007  1.00  0.00    -0.399 N 
HETATM   15  H1  UNL     1      29.802   6.896  48.031  1.00  0.00     0.156 HD
HETATM   16  H2  UNL     1      28.750   8.457  47.795  1.00  0.00     0.156 HD
ENDBRANCH  11  14
BRANCH  13  17
HETATM   17  N5  UNL     1      24.184   6.758  48.843  1.00  0.00    -0.397 N 
HETATM   18  H11 UNL     1      23.388   6.672  48.149  1.00  0.00     0.156 HD
HETATM   19  H12 UNL     1      23.912   7.271  49.696  1.00  0.00     0.156 HD
ENDBRANCH  13  17
ENDBRANCH   7   8
ENDBRANCH   1   7
BRANCH   3  20
HETATM   20  N2  UNL     1      25.370   1.137  53.138  1.00  0.00    -0.341 N 
HETATM   21  H6  UNL     1      24.517   0.602  53.413  1.00  0.00     0.167 HD
BRANCH  20  22
HETATM   22  C8  UNL     1      26.716   0.700  53.276  1.00  0.00     0.035 A 
HETATM   23  C9  UNL     1      27.674   1.642  53.588  1.00  0.00     0.032 A 
HETATM   24  C10 UNL     1      28.977   1.216  53.722  1.00  0.00     0.046 A 
HETATM   25  C11 UNL     1      29.288  -0.125  53.542  1.00  0.00     0.138 A 
HETATM   26  F1  UNL     1      30.580  -0.518  53.678  1.00  0.00    -0.204 F 
HETATM   27  C12 UNL     1      28.282  -1.040  53.225  1.00  0.00     0.074 A 
HETATM   28 CL1  UNL     1      28.686  -2.731  53.000  1.00  0.00    -0.081 Cl
HETATM   29  C13 UNL     1      26.963  -0.634  53.086  1.00  0.00     0.056 A 
ENDBRANCH  20  22
ENDBRANCH   3  20
TORSDOF 6
ENDMDL
MODEL 5
REMARK VINA RESULT:      -7.9      5.062      8.002
REMARK  6 active torsions:
REMARK  status: ('A' for Active; 'I' for Inactive)
REMARK    1  A    between atoms: N1_1  and  C1_2 
REMARK    2  A    between atoms: C4_5  and  O1_6 
REMARK    3  A    between atoms: O1_6  and  C5_7 
REMARK    4  A    between atoms: C7_9  and  N2_10 
REMARK    5  A    between atoms: N2_10  and  C8_11 
REMARK    6  A    between atoms: C15_22  and  N5_23 
ROOT
HETATM    1  C5  UNL     1      21.491   0.508  53.777  1.00  0.00     0.174 A 
HETATM    2  C6  UNL     1      22.650   0.724  53.099  1.00  0.00     0.108 A 
HETATM    3  C7  UNL     1      23.800  -0.010  53.296  1.00  0.00     0.133 A 
HETATM    4  N3  UNL     1      23.698  -0.986  54.238  1.00  0.00    -0.224 NA
HETATM    5  C14 UNL     1      22.554  -1.200  54.908  1.00  0.00     0.238 A 
HETATM    6  N4  UNL     1      21.437  -0.479  54.708  1.00  0.00    -0.217 NA
ENDROOT
BRANCH   1   7
HETATM    7  O1  UNL     1      20.380   1.298  53.511  1.00  0.00    -0.290 OA
BRANCH   7   8
HETATM    8  C4  UNL     1      19.531   0.855  52.501  1.00  0.00     0.104 A 
HETATM    9  C3  UNL     1      19.598   1.615  51.349  1.00  0.00     0.042 A 
HETATM   10  C2  UNL     1      18.823   1.309  50.259  1.00  0.00     0.032 A 
HETATM   11  C1  UNL     1      17.957   0.217  50.316  1.00  0.00     0.028 A 
HETATM   12  C16 UNL     1      17.909  -0.524  51.477  1.00  0.00     0.060 A 
HETATM   13  C15 UNL     1      18.682  -0.231  52.582  1.00  0.00     0.062 A 
BRANCH  11  14
HETATM   14  N1  UNL     1      17.097  -0.209  49.255  1.00  0.00    -0.399 N 
HETATM   15  H1  UNL     1      17.522   0.188  48.397  1.00  0.00     0.156 HD
HETATM   16  H2  UNL     1      16.252  -0.788  49.413  1.00  0.00     0.156 HD
ENDBRANCH  11  14
BRANCH  13  17
HETATM   17  N5  UNL     1      18.673  -0.959  53.802  1.00  0.00    -0.397 N 
HETATM   18  H11 UNL     1      18.759  -0.608  54.797  1.00  0.00     0.156 HD
HETATM   19  H12 UNL     1      18.569  -1.985  53.752  1.00  0.00     0.156 HD
ENDBRANCH  13  17
ENDBRANCH   7   8
ENDBRANCH   1   7
BRANCH   3  20
HETATM   20  N2  UNL     1      24.971   0.282  52.544  1.00  0.00    -0.341 N 
HETATM   21  H6  UNL     1      24.601   0.695  51.659  1.00  0.00     0.167 HD
BRANCH  20  22
HETATM   22  C8  UNL     1      26.340   0.080  52.868  1.00  0.00     0.035 A 
HETATM   23  C9  UNL     1      26.864  -1.185  52.709  1.00  0.00     0.032 A 
HETATM   24  C10 UNL     1      28.191  -1.378  53.023  1.00  0.00     0.046 A 
HETATM   25  C11 UNL     1      28.953  -0.314  53.485  1.00  0.00     0.138 A 
HETATM   26  F1  UNL     1      30.258  -0.531  53.789  1.00  0.00    -0.204 F 
HETATM   27  C12 UNL     1      28.376   0.950  53.631  1.00  0.00     0.074 A 
HETATM   28 CL1  UNL     1      29.348   2.286  54.214  1.00  0.00    -0.081 Cl
HETATM   29  C13 UNL     1      27.042   1.167  53.318  1.00  0.00     0.056 A 
ENDBRANCH  20  22
ENDBRANCH   3  20
TORSDOF 6
ENDMDL
MODEL 6
REMARK VINA RESULT:      -7.9      3.830      7.208
REMARK  6 active torsions:
REMARK  status: ('A' for Active; 'I' for Inactive)
REMARK    1  A    between atoms: N1_1  and  C1_2 
REMARK    2  A    between atoms: C4_5  and  O1_6 
REMARK    3  A    between atoms: O1_6  and  C5_7 
REMARK    4  A    between atoms: C7_9  and  N2_10 
REMARK    5  A    between atoms: N2_10  and  C8_11 
REMARK    6  A    between atoms: C15_22  and  N5_23 
ROOT
HETATM    1  C5  UNL     1      22.805   1.386  51.080  1.00  0.00     0.174 A 
HETATM    2  C6  UNL     1      23.771   1.146  52.007  1.00  0.00     0.108 A 
HETATM    3  C7  UNL     1      23.605   0.299  53.082  1.00  0.00     0.133 A 
HETATM    4  N3  UNL     1      22.383  -0.293  53.156  1.00  0.00    -0.224 NA
HETATM    5  C14 UNL     1      21.429  -0.057  52.241  1.00  0.00     0.238 A 
HETATM    6  N4  UNL     1      21.601   0.771  51.196  1.00  0.00    -0.217 NA
ENDROOT
BRANCH   1   7
HETATM    7  O1  UNL     1      23.062   2.256  50.028  1.00  0.00    -0.290 OA
BRANCH   7   8
HETATM    8  C4  UNL     1      23.393   3.565  50.370  1.00  0.00     0.104 A 
HETATM    9  C3  UNL     1      22.355   4.260  50.962  1.00  0.00     0.042 A 
HETATM   10  C2  UNL     1      22.519   5.563  51.358  1.00  0.00     0.032 A 
HETATM   11  C1  UNL     1      23.748   6.192  51.161  1.00  0.00     0.028 A 
HETATM   12  C16 UNL     1      24.766   5.476  50.567  1.00  0.00     0.060 A 
HETATM   13  C15 UNL     1      24.618   4.165  50.163  1.00  0.00     0.062 A 
BRANCH  11  14
HETATM   14  N1  UNL     1      24.051   7.542  51.525  1.00  0.00    -0.399 N 
HETATM   15  H1  UNL     1      25.005   7.497  51.930  1.00  0.00     0.156 HD
HETATM   16  H2  UNL     1      23.392   8.328  51.376  1.00  0.00     0.156 HD
ENDBRANCH  11  14
BRANCH  13  17
HETATM   17  N5  UNL     1      25.631   3.380  49.548  1.00  0.00    -0.397 N 
HETATM   18  H11 UNL     1      26.213   3.586  48.688  1.00  0.00     0.156 HD
HETATM   19  H12 UNL     1      25.860   2.469  49.973  1.00  0.00     0.156 HD
ENDBRANCH  13  17
ENDBRANCH   7   8
ENDBRANCH   1   7
BRANCH   3  20
HETATM   20  N2  UNL     1      24.667   0.103  54.007  1.00  0.00    -0.341 N 
HETATM   21  H6  UNL     1      24.195   0.134  54.938  1.00  0.00     0.167 HD
BRANCH  20  22
HETATM   22  C8  UNL     1      26.056  -0.092  53.776  1.00  0.00     0.035 A 
HETATM   23  C9  UNL     1      26.448  -1.238  53.118  1.00  0.00     0.032 A 
HETATM   24  C10 UNL     1      27.795  -1.425  52.894  1.00  0.00     0.046 A 
HETATM   25  C11 UNL     1      28.706  -0.472  53.330  1.00  0.00     0.138 A 
HETATM   26  F1  UNL     1      30.027  -0.681  53.098  1.00  0.00    -0.204 F 
HETATM   27  C12 UNL     1      28.259   0.673  53.993  1.00  0.00     0.074 A 
HETATM   28 CL1  UNL     1      29.417   1.869  54.538  1.00  0.00    -0.081 Cl
HETATM   29  C13 UNL     1      26.907   0.881  54.227  1.00  0.00     0.056 A 
ENDBRANCH  20  22
ENDBRANCH   3  20
TORSDOF 6
ENDMDL
MODEL 7
REMARK VINA RESULT:      -7.8      6.105      8.242
REMARK  6 active torsions:
REMARK  status: ('A' for Active; 'I' for Inactive)
REMARK    1  A    between atoms: N1_1  and  C1_2 
REMARK    2  A    between atoms: C4_5  and  O1_6 
REMARK    3  A    between atoms: O1_6  and  C5_7 
REMARK    4  A    between atoms: C7_9  and  N2_10 
REMARK    5  A    between atoms: N2_10  and  C8_11 
REMARK    6  A    between atoms: C15_22  and  N5_23 
ROOT
HETATM    1  C5  UNL     1      24.161  -0.395  53.353  1.00  0.00     0.174 A 
HETATM    2  C6  UNL     1      22.968   0.185  53.053  1.00  0.00     0.108 A 
HETATM    3  C7  UNL     1      21.855   0.108  53.863  1.00  0.00     0.133 A 
HETATM    4  N3  UNL     1      22.033  -0.605  55.008  1.00  0.00    -0.224 NA
HETATM    5  C14 UNL     1      23.211  -1.178  55.305  1.00  0.00     0.238 A 
HETATM    6  N4  UNL     1      24.290  -1.097  54.508  1.00  0.00    -0.217 NA
ENDROOT
BRANCH   1   7
HETATM    7  O1  UNL     1      25.230  -0.264  52.476  1.00  0.00    -0.290 OA
BRANCH   7   8
HETATM    8  C4  UNL     1      26.403   0.270  53.002  1.00  0.00     0.104 A 
HETATM    9  C3  UNL     1      26.401   1.650  53.068  1.00  0.00     0.042 A 
HETATM   10  C2  UNL     1      27.485   2.331  53.562  1.00  0.00     0.032 A 
HETATM   11  C1  UNL     1      28.600   1.620  54.004  1.00  0.00     0.028 A 
HETATM   12  C16 UNL     1      28.576   0.244  53.927  1.00  0.00     0.060 A 
HETATM   13  C15 UNL     1      27.495  -0.456  53.432  1.00  0.00     0.062 A 
BRANCH  11  14
HETATM   14  N1  UNL     1      29.791   2.205  54.539  1.00  0.00    -0.399 N 
HETATM   15  H1  UNL     1      30.502   2.081  53.794  1.00  0.00     0.156 HD
HETATM   16  H2  UNL     1      29.834   2.635  55.481  1.00  0.00     0.156 HD
ENDBRANCH  11  14
BRANCH  13  17
HETATM   17  N5  UNL     1      27.416  -1.872  53.329  1.00  0.00    -0.397 N 
HETATM   18  H11 UNL     1      27.040  -2.578  54.023  1.00  0.00     0.156 HD
HETATM   19  H12 UNL     1      27.768  -2.313  52.466  1.00  0.00     0.156 HD
ENDBRANCH  13  17
ENDBRANCH   7   8
ENDBRANCH   1   7
BRANCH   3  20
HETATM   20  N2  UNL     1      20.644   0.744  53.475  1.00  0.00    -0.341 N 
HETATM   21  H6  UNL     1      20.792   1.743  53.741  1.00  0.00     0.167 HD
BRANCH  20  22
HETATM   22  C8  UNL     1      19.480   0.200  52.867  1.00  0.00     0.035 A 
HETATM   23  C9  UNL     1      18.936   0.871  51.793  1.00  0.00     0.032 A 
HETATM   24  C10 UNL     1      17.808   0.342  51.205  1.00  0.00     0.046 A 
HETATM   25  C11 UNL     1      17.257  -0.832  51.702  1.00  0.00     0.138 A 
HETATM   26  F1  UNL     1      16.144  -1.331  51.105  1.00  0.00    -0.204 F 
HETATM   27  C12 UNL     1      17.844  -1.474  52.794  1.00  0.00     0.074 A 
HETATM   28 CL1  UNL     1      17.140  -2.955  53.412  1.00  0.00    -0.081 Cl
HETATM   29  C13 UNL     1      18.981  -0.959  53.400  1.00  0.00     0.056 A 
ENDBRANCH  20  22
ENDBRANCH   3  20
TORSDOF 6
ENDMDL
MODEL 8
REMARK VINA RESULT:      -7.8      3.526      4.459
REMARK  6 active torsions:
REMARK  status: ('A' for Active; 'I' for Inactive)
REMARK    1  A    between atoms: N1_1  and  C1_2 
REMARK    2  A    between atoms: C4_5  and  O1_6 
REMARK    3  A    between atoms: O1_6  and  C5_7 
REMARK    4  A    between atoms: C7_9  and  N2_10 
REMARK    5  A    between atoms: N2_10  and  C8_11 
REMARK    6  A    between atoms: C15_22  and  N5_23 
ROOT
HETATM    1  C5  UNL     1      23.483  -0.503  53.359  1.00  0.00     0.174 A 
HETATM    2  C6  UNL     1      23.010   0.459  52.522  1.00  0.00     0.108 A 
HETATM    3  C7  UNL     1      21.789   1.081  52.683  1.00  0.00     0.133 A 
HETATM    4  N3  UNL     1      21.073   0.657  53.759  1.00  0.00    -0.224 NA
HETATM    5  C14 UNL     1      21.540  -0.293  54.587  1.00  0.00     0.238 A 
HETATM    6  N4  UNL     1      22.731  -0.893  54.420  1.00  0.00    -0.217 NA
ENDROOT
BRANCH   1   7
HETATM    7  O1  UNL     1      24.726  -1.074  53.119  1.00  0.00    -0.290 OA
BRANCH   7   8
HETATM    8  C4  UNL     1      25.837  -0.318  53.482  1.00  0.00     0.104 A 
HETATM    9  C3  UNL     1      26.435   0.332  52.418  1.00  0.00     0.042 A 
HETATM   10  C2  UNL     1      27.543   1.118  52.609  1.00  0.00     0.032 A 
HETATM   11  C1  UNL     1      28.071   1.263  53.891  1.00  0.00     0.028 A 
HETATM   12  C16 UNL     1      27.455   0.604  54.934  1.00  0.00     0.060 A 
HETATM   13  C15 UNL     1      26.341  -0.191  54.761  1.00  0.00     0.062 A 
BRANCH  11  14
HETATM   14  N1  UNL     1      29.218   2.050  54.227  1.00  0.00    -0.399 N 
HETATM   15  H1  UNL     1      29.962   1.356  54.429  1.00  0.00     0.156 HD
HETATM   16  H2  UNL     1      29.207   3.086  54.237  1.00  0.00     0.156 HD
ENDBRANCH  11  14
BRANCH  13  17
HETATM   17  N5  UNL     1      25.668  -0.892  55.797  1.00  0.00    -0.397 N 
HETATM   18  H11 UNL     1      25.060  -0.518  56.580  1.00  0.00     0.156 HD
HETATM   19  H12 UNL     1      25.761  -1.919  55.825  1.00  0.00     0.156 HD
ENDBRANCH  13  17
ENDBRANCH   7   8
ENDBRANCH   1   7
BRANCH   3  20
HETATM   20  N2  UNL     1      21.369   2.078  51.761  1.00  0.00    -0.341 N 
HETATM   21  H6  UNL     1      20.327   2.037  51.809  1.00  0.00     0.167 HD
BRANCH  20  22
HETATM   22  C8  UNL     1      22.140   2.950  50.945  1.00  0.00     0.035 A 
HETATM   23  C9  UNL     1      22.296   2.622  49.615  1.00  0.00     0.032 A 
HETATM   24  C10 UNL     1      23.042   3.469  48.825  1.00  0.00     0.046 A 
HETATM   25  C11 UNL     1      23.609   4.609  49.378  1.00  0.00     0.138 A 
HETATM   26  F1  UNL     1      24.341   5.426  48.578  1.00  0.00    -0.204 F 
HETATM   27  C12 UNL     1      23.422   4.898  50.731  1.00  0.00     0.074 A 
HETATM   28 CL1  UNL     1      24.141   6.340  51.419  1.00  0.00    -0.081 Cl
HETATM   29  C13 UNL     1      22.673   4.059  51.545  1.00  0.00     0.056 A 
ENDBRANCH  20  22
ENDBRANCH   3  20
TORSDOF 6
ENDMDL
MODEL 9
REMARK VINA RESULT:      -7.7      1.838      2.525
REMARK  6 active torsions:
REMARK  status: ('A' for Active; 'I' for Inactive)
REMARK    1  A    between atoms: N1_1  and  C1_2 
REMARK    2  A    between atoms: C4_5  and  O1_6 
REMARK    3  A    between atoms: O1_6  and  C5_7 
REMARK    4  A    between atoms: C7_9  and  N2_10 
REMARK    5  A    between atoms: N2_10  and  C8_11 
REMARK    6  A    between atoms: C15_22  and  N5_23 
ROOT
HETATM    1  C5  UNL     1      24.356   1.931  53.028  1.00  0.00     0.174 A 
HETATM    2  C6  UNL     1      24.454   2.889  52.068  1.00  0.00     0.108 A 
HETATM    3  C7  UNL     1      23.683   2.908  50.925  1.00  0.00     0.133 A 
HETATM    4  N3  UNL     1      22.799   1.880  50.818  1.00  0.00    -0.224 NA
HETATM    5  C14 UNL     1      22.701   0.933  51.766  1.00  0.00     0.238 A 
HETATM    6  N4  UNL     1      23.457   0.924  52.877  1.00  0.00    -0.217 NA
ENDROOT
BRANCH   1   7
HETATM    7  O1  UNL     1      25.174   1.993  54.149  1.00  0.00    -0.290 OA
BRANCH   7   8
HETATM    8  C4  UNL     1      26.450   1.452  54.017  1.00  0.00     0.104 A 
HETATM    9  C3  UNL     1      27.404   2.375  53.632  1.00  0.00     0.042 A 
HETATM   10  C2  UNL     1      28.713   2.000  53.458  1.00  0.00     0.032 A 
HETATM   11  C1  UNL     1      29.082   0.673  53.673  1.00  0.00     0.028 A 
HETATM   12  C16 UNL     1      28.110  -0.227  54.056  1.00  0.00     0.060 A 
HETATM   13  C15 UNL     1      26.791   0.133  54.236  1.00  0.00     0.062 A 
BRANCH  11  14
HETATM   14  N1  UNL     1      30.407   0.152  53.527  1.00  0.00    -0.399 N 
HETATM   15  H1  UNL     1      30.690   0.421  52.566  1.00  0.00     0.156 HD
HETATM   16  H2  UNL     1      30.894  -0.369  54.278  1.00  0.00     0.156 HD
ENDBRANCH  11  14
BRANCH  13  17
HETATM   17  N5  UNL     1      25.749  -0.751  54.630  1.00  0.00    -0.397 N 
HETATM   18  H11 UNL     1      25.652  -1.328  55.512  1.00  0.00     0.156 HD
HETATM   19  H12 UNL     1      24.953  -0.875  53.985  1.00  0.00     0.156 HD
ENDBRANCH  13  17
ENDBRANCH   7   8
ENDBRANCH   1   7
BRANCH   3  20
HETATM   20  N2  UNL     1      23.849   3.948  49.969  1.00  0.00    -0.341 N 
HETATM   21  H6  UNL     1      22.871   4.197  49.701  1.00  0.00     0.167 HD
BRANCH  20  22
HETATM   22  C8  UNL     1      25.037   4.543  49.464  1.00  0.00     0.035 A 
HETATM   23  C9  UNL     1      26.188   3.785  49.455  1.00  0.00     0.032 A 
HETATM   24  C10 UNL     1      27.338   4.364  48.964  1.00  0.00     0.046 A 
HETATM   25  C11 UNL     1      27.309   5.672  48.500  1.00  0.00     0.138 A 
HETATM   26  F1  UNL     1      28.456   6.219  48.022  1.00  0.00    -0.204 F 
HETATM   27  C12 UNL     1      26.117   6.399  48.531  1.00  0.00     0.074 A 
HETATM   28 CL1  UNL     1      26.092   8.050  47.942  1.00  0.00    -0.081 Cl
HETATM   29  C13 UNL     1      24.948   5.836  49.020  1.00  0.00     0.056 A 
ENDBRANCH  20  22
ENDBRANCH   3  20
TORSDOF 6
ENDMDL
