MODEL 1
REMARK VINA RESULT:      -7.7      0.000      0.000
REMARK  6 active torsions:
REMARK  status: ('A' for Active; 'I' for Inactive)
REMARK    1  A    between atoms: C3_3  and  C4_4 
REMARK    2  A    between atoms: C6_6  and  C7_7 
REMARK    3  A    between atoms: C10_10  and  O1_11 
REMARK    4  A    between atoms: N2_16  and  C14_17 
REMARK    5  A    between atoms: C15_19  and  O2_20 
REMARK    6  A    between atoms: O2_20  and  C16_21 
ROOT
HETATM    1  C4  UNL     1      26.067   1.783  53.326  1.00  0.00     0.141 C 
HETATM    2  C5  UNL     1      25.191   0.653  53.821  1.00  0.00     0.093 C 
HETATM    3  C6  UNL     1      23.945   0.848  53.038  1.00  0.00     0.067 C 
HETATM    4  N1  UNL     1      24.118   1.754  52.107  1.00  0.00    -0.173 NA
HETATM    5  N2  UNL     1      25.403   2.242  52.148  1.00  0.00    -0.237 N 
ENDROOT
BRANCH   3   6
HETATM    6  C7  UNL     1      22.703   0.122  53.284  1.00  0.00    -0.010 A 
HETATM    7  C8  UNL     1      21.503   0.499  52.673  1.00  0.00     0.016 A 
HETATM    8  C9  UNL     1      20.306  -0.170  52.886  1.00  0.00     0.037 A 
HETATM    9  C10 UNL     1      20.338  -1.261  53.753  1.00  0.00     0.068 A 
HETATM   10  C12 UNL     1      21.493  -1.651  54.360  1.00  0.00     0.037 A 
HETATM   11  C13 UNL     1      22.690  -0.973  54.141  1.00  0.00     0.016 A 
BRANCH   9  12
HETATM   12  O1  UNL     1      19.118  -1.890  53.928  1.00  0.00    -0.356 OA
HETATM   13  C11 UNL     1      17.929  -1.467  53.295  1.00  0.00     0.210 C 
ENDBRANCH   9  12
ENDBRANCH   3   6
BRANCH   1  14
HETATM   14  C3  UNL     1      27.418   1.294  52.925  1.00  0.00    -0.004 C 
HETATM   15  C2  UNL     1      28.216   0.585  53.711  1.00  0.00    -0.033 C 
HETATM   16  C1  UNL     1      29.581   0.084  53.326  1.00  0.00     0.036 C 
ENDBRANCH   1  14
BRANCH   5  17
HETATM   17  C14 UNL     1      25.854   3.082  51.071  1.00  0.00     0.192 A 
HETATM   18  N3  UNL     1      26.736   3.257  50.380  1.00  0.00    -0.198 NA
HETATM   19  C15 UNL     1      26.964   4.112  49.422  1.00  0.00     0.173 A 
HETATM   20  C18 UNL     1      25.923   4.980  49.199  1.00  0.00     0.111 A 
HETATM   21  S1  UNL     1      24.653   4.413  50.496  1.00  0.00    -0.058 SA
BRANCH  19  22
HETATM   22  O2  UNL     1      28.040   4.350  48.555  1.00  0.00    -0.334 OA
BRANCH  22  23
HETATM   23  C16 UNL     1      28.391   5.703  48.328  1.00  0.00     0.173 C 
HETATM   24  C17 UNL     1      29.841   5.869  47.980  1.00  0.00     0.034 C 
ENDBRANCH  22  23
ENDBRANCH  19  22
ENDBRANCH   5  17
TORSDOF 6
ENDMDL
MODEL 2
REMARK VINA RESULT:      -7.4      1.495      2.256
REMARK  6 active torsions:
REMARK  status: ('A' for Active; 'I' for Inactive)
REMARK    1  A    between atoms: C3_3  and  C4_4 
REMARK    2  A    between atoms: C6_6  and  C7_7 
REMARK    3  A    between atoms: C10_10  and  O1_11 
REMARK    4  A    between atoms: N2_16  and  C14_17 
REMARK    5  A    between atoms: C15_19  and  O2_20 
REMARK    6  A    between atoms: O2_20  and  C16_21 
ROOT
HETATM    1  C4  UNL     1      24.325   0.972  53.040  1.00  0.00     0.141 C 
HETATM    2  C5  UNL     1      23.174  -0.003  53.160  1.00  0.00     0.093 C 
HETATM    3  C6  UNL     1      22.113   0.654  52.355  1.00  0.00     0.067 C 
HETATM    4  N1  UNL     1      22.596   1.682  51.701  1.00  0.00    -0.173 NA
HETATM    5  N2  UNL     1      23.937   1.831  51.967  1.00  0.00    -0.237 N 
ENDROOT
BRANCH   3   6
HETATM    6  C7  UNL     1      20.726   0.203  52.309  1.00  0.00    -0.010 A 
HETATM    7  C8  UNL     1      20.165  -0.544  53.350  1.00  0.00     0.016 A 
HETATM    8  C9  UNL     1      18.851  -0.987  53.337  1.00  0.00     0.037 A 
HETATM    9  C10 UNL     1      18.084  -0.656  52.221  1.00  0.00     0.068 A 
HETATM   10  C12 UNL     1      18.604   0.071  51.193  1.00  0.00     0.037 A 
HETATM   11  C13 UNL     1      19.925   0.512  51.215  1.00  0.00     0.016 A 
BRANCH   9  12
HETATM   12  O1  UNL     1      16.782  -1.123  52.260  1.00  0.00    -0.356 OA
HETATM   13  C11 UNL     1      15.817  -0.814  51.277  1.00  0.00     0.210 C 
ENDBRANCH   9  12
ENDBRANCH   3   6
BRANCH   1  14
HETATM   14  C3  UNL     1      25.586   0.284  52.637  1.00  0.00    -0.004 C 
HETATM   15  C2  UNL     1      25.996  -0.871  53.140  1.00  0.00    -0.033 C 
HETATM   16  C1  UNL     1      27.264  -1.580  52.748  1.00  0.00     0.036 C 
ENDBRANCH   1  14
BRANCH   5  17
HETATM   17  C14 UNL     1      24.694   2.765  51.178  1.00  0.00     0.192 A 
HETATM   18  N3  UNL     1      25.646   2.859  50.569  1.00  0.00    -0.198 NA
HETATM   19  C15 UNL     1      26.184   3.838  49.897  1.00  0.00     0.173 A 
HETATM   20  C18 UNL     1      25.447   4.997  49.928  1.00  0.00     0.111 A 
HETATM   21  S1  UNL     1      23.962   4.491  51.004  1.00  0.00    -0.058 SA
BRANCH  19  22
HETATM   22  O2  UNL     1      27.355   3.982  49.140  1.00  0.00    -0.334 OA
BRANCH  22  23
HETATM   23  C16 UNL     1      27.599   5.256  48.573  1.00  0.00     0.173 C 
HETATM   24  C17 UNL     1      29.044   5.463  48.226  1.00  0.00     0.034 C 
ENDBRANCH  22  23
ENDBRANCH  19  22
ENDBRANCH   5  17
TORSDOF 6
ENDMDL
MODEL 3
REMARK VINA RESULT:      -7.3      3.324      8.676
REMARK  6 active torsions:
REMARK  status: ('A' for Active; 'I' for Inactive)
REMARK    1  A    between atoms: C3_3  and  C4_4 
REMARK    2  A    between atoms: C6_6  and  C7_7 
REMARK    3  A    between atoms: C10_10  and  O1_11 
REMARK    4  A    between atoms: N2_16  and  C14_17 
REMARK    5  A    between atoms: C15_19  and  O2_20 
REMARK    6  A    between atoms: O2_20  and  C16_21 
ROOT
HETATM    1  C4  UNL     1      24.108   3.234  50.629  1.00  0.00     0.141 C 
HETATM    2  C5  UNL     1      24.505   4.176  49.513  1.00  0.00     0.093 C 
HETATM    3  C6  UNL     1      25.980   4.250  49.668  1.00  0.00     0.067 C 
HETATM    4  N1  UNL     1      26.401   3.364  50.537  1.00  0.00    -0.173 NA
HETATM    5  N2  UNL     1      25.342   2.642  51.035  1.00  0.00    -0.237 N 
ENDROOT
BRANCH   3   6
HETATM    6  C7  UNL     1      26.831   5.189  48.944  1.00  0.00    -0.010 A 
HETATM    7  C8  UNL     1      28.169   4.896  48.664  1.00  0.00     0.016 A 
HETATM    8  C9  UNL     1      29.004   5.765  47.979  1.00  0.00     0.037 A 
HETATM    9  C10 UNL     1      28.452   6.977  47.564  1.00  0.00     0.068 A 
HETATM   10  C12 UNL     1      27.151   7.287  47.822  1.00  0.00     0.037 A 
HETATM   11  C13 UNL     1      26.320   6.408  48.512  1.00  0.00     0.016 A 
BRANCH   9  12
HETATM   12  O1  UNL     1      29.328   7.805  46.886  1.00  0.00    -0.356 OA
HETATM   13  C11 UNL     1      29.791   9.034  47.403  1.00  0.00     0.210 C 
ENDBRANCH   9  12
ENDBRANCH   3   6
BRANCH   1  14
HETATM   14  C3  UNL     1      23.221   2.140  50.133  1.00  0.00    -0.004 C 
HETATM   15  C2  UNL     1      22.432   2.246  49.073  1.00  0.00    -0.033 C 
HETATM   16  C1  UNL     1      21.531   1.156  48.559  1.00  0.00     0.036 C 
ENDBRANCH   1  14
BRANCH   5  17
HETATM   17  C14 UNL     1      25.619   1.479  51.834  1.00  0.00     0.192 A 
HETATM   18  N3  UNL     1      26.396   0.668  51.996  1.00  0.00    -0.198 NA
HETATM   19  C15 UNL     1      26.468  -0.349  52.810  1.00  0.00     0.173 A 
HETATM   20  C18 UNL     1      25.384  -0.465  53.645  1.00  0.00     0.111 A 
HETATM   21  S1  UNL     1      24.316   1.017  53.111  1.00  0.00    -0.058 SA
BRANCH  19  22
HETATM   22  O2  UNL     1      27.410  -1.363  53.032  1.00  0.00    -0.334 OA
BRANCH  22  23
HETATM   23  C16 UNL     1      28.724  -0.955  53.365  1.00  0.00     0.173 C 
HETATM   24  C17 UNL     1      28.755  -0.036  54.552  1.00  0.00     0.034 C 
ENDBRANCH  22  23
ENDBRANCH  19  22
ENDBRANCH   5  17
TORSDOF 6
ENDMDL
MODEL 4
REMARK VINA RESULT:      -7.3      2.389      8.913
REMARK  6 active torsions:
REMARK  status: ('A' for Active; 'I' for Inactive)
REMARK    1  A    between atoms: C3_3  and  C4_4 
REMARK    2  A    between atoms: C6_6  and  C7_7 
REMARK    3  A    between atoms: C10_10  and  O1_11 
REMARK    4  A    between atoms: N2_16  and  C14_17 
REMARK    5  A    between atoms: C15_19  and  O2_20 
REMARK    6  A    between atoms: O2_20  and  C16_21 
ROOT
HETATM    1  C4  UNL     1      23.471   3.527  50.826  1.00  0.00     0.141 C 
HETATM    2  C5  UNL     1      23.993   4.388  49.697  1.00  0.00     0.093 C 
HETATM    3  C6  UNL     1      25.464   4.304  49.885  1.00  0.00     0.067 C 
HETATM    4  N1  UNL     1      25.767   3.402  50.786  1.00  0.00    -0.173 NA
HETATM    5  N2  UNL     1      24.624   2.814  51.277  1.00  0.00    -0.237 N 
ENDROOT
BRANCH   3   6
HETATM    6  C7  UNL     1      26.428   5.123  49.157  1.00  0.00    -0.010 A 
HETATM    7  C8  UNL     1      27.715   4.655  48.871  1.00  0.00     0.016 A 
HETATM    8  C9  UNL     1      28.654   5.408  48.182  1.00  0.00     0.037 A 
HETATM    9  C10 UNL     1      28.266   6.682  47.772  1.00  0.00     0.068 A 
HETATM   10  C12 UNL     1      27.019   7.162  48.036  1.00  0.00     0.037 A 
HETATM   11  C13 UNL     1      26.082   6.400  48.729  1.00  0.00     0.016 A 
BRANCH   9  12
HETATM   12  O1  UNL     1      29.240   7.388  47.090  1.00  0.00    -0.356 OA
HETATM   13  C11 UNL     1      30.101   8.319  47.711  1.00  0.00     0.210 C 
ENDBRANCH   9  12
ENDBRANCH   3   6
BRANCH   1  14
HETATM   14  C3  UNL     1      22.480   2.524  50.338  1.00  0.00    -0.004 C 
HETATM   15  C2  UNL     1      22.423   2.081  49.090  1.00  0.00    -0.033 C 
HETATM   16  C1  UNL     1      21.432   1.072  48.579  1.00  0.00     0.036 C 
ENDBRANCH   1  14
BRANCH   5  17
HETATM   17  C14 UNL     1      24.755   1.651  52.112  1.00  0.00     0.192 A 
HETATM   18  N3  UNL     1      24.193   1.030  52.877  1.00  0.00    -0.198 NA
HETATM   19  C15 UNL     1      24.498  -0.042  53.554  1.00  0.00     0.173 A 
HETATM   20  C18 UNL     1      25.756  -0.524  53.287  1.00  0.00     0.111 A 
HETATM   21  S1  UNL     1      26.390   0.724  51.999  1.00  0.00    -0.058 SA
BRANCH  19  22
HETATM   22  O2  UNL     1      23.827  -0.827  54.503  1.00  0.00    -0.334 OA
BRANCH  22  23
HETATM   23  C16 UNL     1      22.512  -1.238  54.179  1.00  0.00     0.173 C 
HETATM   24  C17 UNL     1      21.466  -0.361  54.805  1.00  0.00     0.034 C 
ENDBRANCH  22  23
ENDBRANCH  19  22
ENDBRANCH   5  17
TORSDOF 6
ENDMDL
MODEL 5
REMARK VINA RESULT:      -7.1      4.663      7.861
REMARK  6 active torsions:
REMARK  status: ('A' for Active; 'I' for Inactive)
REMARK    1  A    between atoms: C3_3  and  C4_4 
REMARK    2  A    between atoms: C6_6  and  C7_7 
REMARK    3  A    between atoms: C10_10  and  O1_11 
REMARK    4  A    between atoms: N2_16  and  C14_17 
REMARK    5  A    between atoms: C15_19  and  O2_20 
REMARK    6  A    between atoms: O2_20  and  C16_21 
ROOT
HETATM    1  C4  UNL     1      29.320   7.076  47.295  1.00  0.00     0.141 C 
HETATM    2  C5  UNL     1      27.909   7.008  47.838  1.00  0.00     0.093 C 
HETATM    3  C6  UNL     1      27.863   5.651  48.438  1.00  0.00     0.067 C 
HETATM    4  N1  UNL     1      29.057   5.111  48.459  1.00  0.00    -0.173 NA
HETATM    5  N2  UNL     1      29.981   5.973  47.917  1.00  0.00    -0.237 N 
ENDROOT
BRANCH   3   6
HETATM    6  C7  UNL     1      26.644   5.018  48.932  1.00  0.00    -0.010 A 
HETATM    7  C8  UNL     1      26.666   3.746  49.514  1.00  0.00     0.016 A 
HETATM    8  C9  UNL     1      25.526   3.117  49.994  1.00  0.00     0.037 A 
HETATM    9  C10 UNL     1      24.323   3.812  49.873  1.00  0.00     0.068 A 
HETATM   10  C12 UNL     1      24.274   5.052  49.312  1.00  0.00     0.037 A 
HETATM   11  C13 UNL     1      25.423   5.675  48.833  1.00  0.00     0.016 A 
BRANCH   9  12
HETATM   12  O1  UNL     1      23.220   3.138  50.367  1.00  0.00    -0.356 OA
HETATM   13  C11 UNL     1      23.085   2.760  51.721  1.00  0.00     0.210 C 
ENDBRANCH   9  12
ENDBRANCH   3   6
BRANCH   1  14
HETATM   14  C3  UNL     1      30.015   8.324  47.729  1.00  0.00    -0.004 C 
HETATM   15  C2  UNL     1      29.873   8.876  48.925  1.00  0.00    -0.033 C 
HETATM   16  C1  UNL     1      30.563  10.133  49.381  1.00  0.00     0.036 C 
ENDBRANCH   1  14
BRANCH   5  17
HETATM   17  C14 UNL     1      31.377   5.654  48.048  1.00  0.00     0.192 A 
HETATM   18  N3  UNL     1      32.311   5.941  48.625  1.00  0.00    -0.198 NA
HETATM   19  C15 UNL     1      33.543   5.515  48.598  1.00  0.00     0.173 A 
HETATM   20  C18 UNL     1      33.759   4.510  47.687  1.00  0.00     0.111 A 
HETATM   21  S1  UNL     1      32.029   4.291  46.926  1.00  0.00    -0.058 SA
BRANCH  19  22
HETATM   22  O2  UNL     1      34.713   5.850  49.295  1.00  0.00    -0.334 OA
BRANCH  22  23
HETATM   23  C16 UNL     1      35.687   6.596  48.589  1.00  0.00     0.173 C 
HETATM   24  C17 UNL     1      35.232   7.994  48.289  1.00  0.00     0.034 C 
ENDBRANCH  22  23
ENDBRANCH  19  22
ENDBRANCH   5  17
TORSDOF 6
ENDMDL
MODEL 6
REMARK VINA RESULT:      -7.1      3.443      5.248
REMARK  6 active torsions:
REMARK  status: ('A' for Active; 'I' for Inactive)
REMARK    1  A    between atoms: C3_3  and  C4_4 
REMARK    2  A    between atoms: C6_6  and  C7_7 
REMARK    3  A    between atoms: C10_10  and  O1_11 
REMARK    4  A    between atoms: N2_16  and  C14_17 
REMARK    5  A    between atoms: C15_19  and  O2_20 
REMARK    6  A    between atoms: O2_20  and  C16_21 
ROOT
HETATM    1  C4  UNL     1      22.906   1.404  51.100  1.00  0.00     0.141 C 
HETATM    2  C5  UNL     1      21.400   1.454  50.965  1.00  0.00     0.093 C 
HETATM    3  C6  UNL     1      20.957   0.446  51.962  1.00  0.00     0.067 C 
HETATM    4  N1  UNL     1      21.965   0.048  52.699  1.00  0.00    -0.173 NA
HETATM    5  N2  UNL     1      23.119   0.689  52.317  1.00  0.00    -0.237 N 
ENDROOT
BRANCH   3   6
HETATM    6  C7  UNL     1      19.582  -0.026  52.091  1.00  0.00    -0.010 A 
HETATM    7  C8  UNL     1      19.171  -0.787  53.190  1.00  0.00     0.016 A 
HETATM    8  C9  UNL     1      17.873  -1.251  53.342  1.00  0.00     0.037 A 
HETATM    9  C10 UNL     1      16.964  -0.927  52.336  1.00  0.00     0.068 A 
HETATM   10  C12 UNL     1      17.337  -0.186  51.255  1.00  0.00     0.037 A 
HETATM   11  C13 UNL     1      18.643   0.275  51.110  1.00  0.00     0.016 A 
BRANCH   9  12
HETATM   12  O1  UNL     1      15.685  -1.415  52.538  1.00  0.00    -0.356 OA
HETATM   13  C11 UNL     1      15.250  -2.670  52.061  1.00  0.00     0.210 C 
ENDBRANCH   9  12
ENDBRANCH   3   6
BRANCH   1  14
HETATM   14  C3  UNL     1      23.487   2.769  51.266  1.00  0.00    -0.004 C 
HETATM   15  C2  UNL     1      22.896   3.752  51.930  1.00  0.00    -0.033 C 
HETATM   16  C1  UNL     1      23.465   5.134  52.109  1.00  0.00     0.036 C 
ENDBRANCH   1  14
BRANCH   5  17
HETATM   17  C14 UNL     1      24.287   0.552  53.145  1.00  0.00     0.192 A 
HETATM   18  N3  UNL     1      25.324   0.983  53.310  1.00  0.00    -0.198 NA
HETATM   19  C15 UNL     1      26.280   0.709  54.154  1.00  0.00     0.173 A 
HETATM   20  C18 UNL     1      25.973  -0.307  55.025  1.00  0.00     0.111 A 
HETATM   21  S1  UNL     1      24.213  -0.777  54.476  1.00  0.00    -0.058 SA
BRANCH  19  22
HETATM   22  O2  UNL     1      27.566   1.222  54.380  1.00  0.00    -0.334 OA
BRANCH  22  23
HETATM   23  C16 UNL     1      28.554   0.304  54.807  1.00  0.00     0.173 C 
HETATM   24  C17 UNL     1      29.553  -0.006  53.731  1.00  0.00     0.034 C 
ENDBRANCH  22  23
ENDBRANCH  19  22
ENDBRANCH   5  17
TORSDOF 6
ENDMDL
MODEL 7
REMARK VINA RESULT:      -7.1      3.928      7.821
REMARK  6 active torsions:
REMARK  status: ('A' for Active; 'I' for Inactive)
REMARK    1  A    between atoms: C3_3  and  C4_4 
REMARK    2  A    between atoms: C6_6  and  C7_7 
REMARK    3  A    between atoms: C10_10  and  O1_11 
REMARK    4  A    between atoms: N2_16  and  C14_17 
REMARK    5  A    between atoms: C15_19  and  O2_20 
REMARK    6  A    between atoms: O2_20  and  C16_21 
ROOT
HETATM    1  C4  UNL     1      22.728   3.806  50.704  1.00  0.00     0.141 C 
HETATM    2  C5  UNL     1      24.037   3.048  50.738  1.00  0.00     0.093 C 
HETATM    3  C6  UNL     1      23.770   1.995  51.750  1.00  0.00     0.067 C 
HETATM    4  N1  UNL     1      22.502   1.978  52.080  1.00  0.00    -0.173 NA
HETATM    5  N2  UNL     1      21.814   2.945  51.384  1.00  0.00    -0.237 N 
ENDROOT
BRANCH   3   6
HETATM    6  C7  UNL     1      24.792   1.106  52.294  1.00  0.00    -0.010 A 
HETATM    7  C8  UNL     1      26.116   1.154  51.845  1.00  0.00     0.016 A 
HETATM    8  C9  UNL     1      27.110   0.323  52.341  1.00  0.00     0.037 A 
HETATM    9  C10 UNL     1      26.739  -0.587  53.329  1.00  0.00     0.068 A 
HETATM   10  C12 UNL     1      25.457  -0.653  53.786  1.00  0.00     0.037 A 
HETATM   11  C13 UNL     1      24.465   0.184  53.282  1.00  0.00     0.016 A 
BRANCH   9  12
HETATM   12  O1  UNL     1      27.769  -1.389  53.787  1.00  0.00    -0.356 OA
HETATM   13  C11 UNL     1      29.120  -1.199  53.422  1.00  0.00     0.210 C 
ENDBRANCH   9  12
ENDBRANCH   3   6
BRANCH   1  14
HETATM   14  C3  UNL     1      22.233   3.981  49.307  1.00  0.00    -0.004 C 
HETATM   15  C2  UNL     1      22.428   3.103  48.333  1.00  0.00    -0.033 C 
HETATM   16  C1  UNL     1      21.938   3.262  46.920  1.00  0.00     0.036 C 
ENDBRANCH   1  14
BRANCH   5  17
HETATM   17  C14 UNL     1      20.377   2.942  51.442  1.00  0.00     0.192 A 
HETATM   18  N3  UNL     1      19.495   3.550  51.814  1.00  0.00    -0.198 NA
HETATM   19  C15 UNL     1      18.204   3.369  51.768  1.00  0.00     0.173 A 
HETATM   20  C18 UNL     1      17.832   2.206  51.141  1.00  0.00     0.111 A 
HETATM   21  S1  UNL     1      19.516   1.462  50.660  1.00  0.00    -0.058 SA
BRANCH  19  22
HETATM   22  O2  UNL     1      17.094   4.099  52.218  1.00  0.00    -0.334 OA
BRANCH  22  23
HETATM   23  C16 UNL     1      15.823   3.501  52.049  1.00  0.00     0.173 C 
HETATM   24  C17 UNL     1      14.819   3.992  53.051  1.00  0.00     0.034 C 
ENDBRANCH  22  23
ENDBRANCH  19  22
ENDBRANCH   5  17
TORSDOF 6
ENDMDL
MODEL 8
REMARK VINA RESULT:      -7.0      2.017      8.402
REMARK  6 active torsions:
REMARK  status: ('A' for Active; 'I' for Inactive)
REMARK    1  A    between atoms: C3_3  and  C4_4 
REMARK    2  A    between atoms: C6_6  and  C7_7 
REMARK    3  A    between atoms: C10_10  and  O1_11 
REMARK    4  A    between atoms: N2_16  and  C14_17 
REMARK    5  A    between atoms: C15_19  and  O2_20 
REMARK    6  A    between atoms: O2_20  and  C16_21 
ROOT
HETATM    1  C4  UNL     1      25.393   1.767  51.236  1.00  0.00     0.141 C 
HETATM    2  C5  UNL     1      26.471   2.714  50.755  1.00  0.00     0.093 C 
HETATM    3  C6  UNL     1      25.681   3.812  50.142  1.00  0.00     0.067 C 
HETATM    4  N1  UNL     1      24.405   3.669  50.405  1.00  0.00    -0.173 NA
HETATM    5  N2  UNL     1      24.197   2.545  51.168  1.00  0.00    -0.237 N 
ENDROOT
BRANCH   3   6
HETATM    6  C7  UNL     1      26.262   4.895  49.356  1.00  0.00    -0.010 A 
HETATM    7  C8  UNL     1      27.589   4.849  48.916  1.00  0.00     0.016 A 
HETATM    8  C9  UNL     1      28.171   5.862  48.168  1.00  0.00     0.037 A 
HETATM    9  C10 UNL     1      27.369   6.960  47.859  1.00  0.00     0.068 A 
HETATM   10  C12 UNL     1      26.073   7.030  48.273  1.00  0.00     0.037 A 
HETATM   11  C13 UNL     1      25.498   6.009  49.024  1.00  0.00     0.016 A 
BRANCH   9  12
HETATM   12  O1  UNL     1      28.000   7.938  47.112  1.00  0.00    -0.356 OA
HETATM   13  C11 UNL     1      29.243   7.744  46.471  1.00  0.00     0.210 C 
ENDBRANCH   9  12
ENDBRANCH   3   6
BRANCH   1  14
HETATM   14  C3  UNL     1      25.601   1.378  52.662  1.00  0.00    -0.004 C 
HETATM   15  C2  UNL     1      25.611   0.126  53.097  1.00  0.00    -0.033 C 
HETATM   16  C1  UNL     1      25.819  -0.286  54.529  1.00  0.00     0.036 C 
ENDBRANCH   1  14
BRANCH   5  17
HETATM   17  C14 UNL     1      22.895   2.336  51.743  1.00  0.00     0.192 A 
HETATM   18  N3  UNL     1      22.277   1.569  52.305  1.00  0.00    -0.198 NA
HETATM   19  C15 UNL     1      21.055   1.568  52.760  1.00  0.00     0.173 A 
HETATM   20  C18 UNL     1      20.373   2.733  52.511  1.00  0.00     0.111 A 
HETATM   21  S1  UNL     1      21.676   3.761  51.582  1.00  0.00    -0.058 SA
BRANCH  19  22
HETATM   22  O2  UNL     1      20.267   0.638  53.455  1.00  0.00    -0.334 OA
BRANCH  22  23
HETATM   23  C16 UNL     1      20.801  -0.664  53.609  1.00  0.00     0.173 C 
HETATM   24  C17 UNL     1      21.690  -0.780  54.812  1.00  0.00     0.034 C 
ENDBRANCH  22  23
ENDBRANCH  19  22
ENDBRANCH   5  17
TORSDOF 6
ENDMDL
MODEL 9
REMARK VINA RESULT:      -6.8      4.325      6.295
REMARK  6 active torsions:
REMARK  status: ('A' for Active; 'I' for Inactive)
REMARK    1  A    between atoms: C3_3  and  C4_4 
REMARK    2  A    between atoms: C6_6  and  C7_7 
REMARK    3  A    between atoms: C10_10  and  O1_11 
REMARK    4  A    between atoms: N2_16  and  C14_17 
REMARK    5  A    between atoms: C15_19  and  O2_20 
REMARK    6  A    between atoms: O2_20  and  C16_21 
ROOT
HETATM    1  C4  UNL     1      22.719   3.827  51.886  1.00  0.00     0.141 C 
HETATM    2  C5  UNL     1      23.929   3.509  52.738  1.00  0.00     0.093 C 
HETATM    3  C6  UNL     1      24.475   2.297  52.078  1.00  0.00     0.067 C 
HETATM    4  N1  UNL     1      23.865   2.073  50.940  1.00  0.00    -0.173 NA
HETATM    5  N2  UNL     1      22.906   3.033  50.714  1.00  0.00    -0.237 N 
ENDROOT
BRANCH   3   6
HETATM    6  C7  UNL     1      25.547   1.478  52.633  1.00  0.00    -0.010 A 
HETATM    7  C8  UNL     1      25.530   0.083  52.528  1.00  0.00     0.016 A 
HETATM    8  C9  UNL     1      26.533  -0.724  53.045  1.00  0.00     0.037 A 
HETATM    9  C10 UNL     1      27.589  -0.084  53.691  1.00  0.00     0.068 A 
HETATM   10  C12 UNL     1      27.632   1.273  53.806  1.00  0.00     0.037 A 
HETATM   11  C13 UNL     1      26.621   2.075  53.285  1.00  0.00     0.016 A 
BRANCH   9  12
HETATM   12  O1  UNL     1      28.560  -0.936  54.186  1.00  0.00    -0.356 OA
HETATM   13  C11 UNL     1      29.894  -0.945  53.723  1.00  0.00     0.210 C 
ENDBRANCH   9  12
ENDBRANCH   3   6
BRANCH   1  14
HETATM   14  C3  UNL     1      22.706   5.259  51.466  1.00  0.00    -0.004 C 
HETATM   15  C2  UNL     1      23.795   5.999  51.310  1.00  0.00    -0.033 C 
HETATM   16  C1  UNL     1      23.801   7.443  50.888  1.00  0.00     0.036 C 
ENDBRANCH   1  14
BRANCH   5  17
HETATM   17  C14 UNL     1      22.280   3.087  49.421  1.00  0.00     0.192 A 
HETATM   18  N3  UNL     1      22.512   3.206  48.317  1.00  0.00    -0.198 NA
HETATM   19  C15 UNL     1      21.769   3.230  47.246  1.00  0.00     0.173 A 
HETATM   20  C18 UNL     1      20.428   3.080  47.501  1.00  0.00     0.111 A 
HETATM   21  S1  UNL     1      20.405   2.911  49.396  1.00  0.00    -0.058 SA
BRANCH  19  22
HETATM   22  O2  UNL     1      22.028   3.376  45.875  1.00  0.00    -0.334 OA
BRANCH  22  23
HETATM   23  C16 UNL     1      21.487   4.519  45.240  1.00  0.00     0.173 C 
HETATM   24  C17 UNL     1      22.197   5.783  45.631  1.00  0.00     0.034 C 
ENDBRANCH  22  23
ENDBRANCH  19  22
ENDBRANCH   5  17
TORSDOF 6
ENDMDL
