MODEL 1
REMARK VINA RESULT:      -7.8      0.000      0.000
REMARK  5 active torsions:
REMARK  status: ('A' for Active; 'I' for Inactive)
REMARK    1  A    between atoms: N1_1  and  C1_2 
REMARK    2  A    between atoms: C2_3  and  C3_4 
REMARK    3  A    between atoms: C8_10  and  N2_11 
REMARK    4  A    between atoms: N2_11  and  C9_12 
REMARK    5  A    between atoms: C14_19  and  N5_20 
ROOT
HETATM    1  N2  UNL     1      25.390   1.655  53.877  1.00  0.00    -0.339 N 
HETATM    2  H8  UNL     1      25.291   1.797  54.898  1.00  0.00     0.167 HD
ENDROOT
BRANCH   1   3
HETATM    3  C8  UNL     1      24.631   1.834  52.691  1.00  0.00     0.045 A 
HETATM    4  C3  UNL     1      23.476   1.118  52.470  1.00  0.00     0.009 A 
HETATM    5  C4  UNL     1      22.776   1.318  51.313  1.00  0.00     0.023 A 
HETATM    6 BR1  UNL     1      21.159   0.414  50.880  1.00  0.00    -0.050 Br
HETATM    7  C5  UNL     1      23.195   2.215  50.358  1.00  0.00     0.020 A 
HETATM    8  C6  UNL     1      24.355   2.904  50.625  1.00  0.00     0.004 A 
HETATM    9  C7  UNL     1      25.084   2.739  51.764  1.00  0.00     0.030 A 
BRANCH   4  10
HETATM   10  C2  UNL     1      23.037   0.151  53.435  1.00  0.00     0.031 C 
HETATM   11  C1  UNL     1      22.126  -0.219  54.248  1.00  0.00     0.081 C 
BRANCH  11  12
HETATM   12  N1  UNL     1      20.847   0.218  54.697  1.00  0.00    -0.408 N 
HETATM   13  H1  UNL     1      20.266   0.875  54.102  1.00  0.00     0.155 HD
HETATM   14  H2  UNL     1      20.218   0.089  55.518  1.00  0.00     0.155 HD
ENDBRANCH  11  12
ENDBRANCH   4  10
ENDBRANCH   1   3
BRANCH   1  15
HETATM   15  C9  UNL     1      26.701   1.125  53.755  1.00  0.00     0.142 A 
HETATM   16  N3  UNL     1      27.703   1.995  54.013  1.00  0.00    -0.224 NA
HETATM   17  C10 UNL     1      28.993   1.580  53.951  1.00  0.00     0.236 A 
HETATM   18  N4  UNL     1      29.321   0.293  53.632  1.00  0.00    -0.239 NA
HETATM   19  C11 UNL     1      28.347  -0.598  53.370  1.00  0.00     0.093 A 
HETATM   20  C12 UNL     1      27.046  -0.171  53.434  1.00  0.00     0.042 A 
HETATM   21  C14 UNL     1      27.699  -1.851  53.031  1.00  0.00     0.037 A 
HETATM   22  C13 UNL     1      26.424  -1.426  53.094  1.00  0.00     0.043 A 
BRANCH  21  23
HETATM   23  N5  UNL     1      28.290  -3.101  52.734  1.00  0.00    -0.301 NA
HETATM   24  H11 UNL     1      29.189  -3.315  52.210  1.00  0.00     0.124 HD
HETATM   25  H12 UNL     1      28.983  -3.758  52.368  1.00  0.00     0.124 HD
ENDBRANCH  21  23
ENDBRANCH   1  15
TORSDOF 5
ENDMDL
MODEL 2
REMARK VINA RESULT:      -7.6      1.863      3.188
REMARK  5 active torsions:
REMARK  status: ('A' for Active; 'I' for Inactive)
REMARK    1  A    between atoms: N1_1  and  C1_2 
REMARK    2  A    between atoms: C2_3  and  C3_4 
REMARK    3  A    between atoms: C8_10  and  N2_11 
REMARK    4  A    between atoms: N2_11  and  C9_12 
REMARK    5  A    between atoms: C14_19  and  N5_20 
ROOT
HETATM    1  N2  UNL     1      26.473   2.703  52.681  1.00  0.00    -0.339 N 
HETATM    2  H8  UNL     1      27.066   3.553  52.680  1.00  0.00     0.167 HD
ENDROOT
BRANCH   1   3
HETATM    3  C8  UNL     1      25.156   2.313  52.323  1.00  0.00     0.045 A 
HETATM    4  C3  UNL     1      24.680   2.506  51.046  1.00  0.00     0.009 A 
HETATM    5  C4  UNL     1      23.403   2.120  50.743  1.00  0.00     0.023 A 
HETATM    6 BR1  UNL     1      22.616   2.309  49.021  1.00  0.00    -0.050 Br
HETATM    7  C5  UNL     1      22.578   1.545  51.681  1.00  0.00     0.020 A 
HETATM    8  C6  UNL     1      23.101   1.375  52.942  1.00  0.00     0.004 A 
HETATM    9  C7  UNL     1      24.366   1.743  53.289  1.00  0.00     0.030 A 
BRANCH   4  10
HETATM   10  C2  UNL     1      25.509   3.136  50.058  1.00  0.00     0.031 C 
HETATM   11  C1  UNL     1      26.043   4.213  49.632  1.00  0.00     0.081 C 
BRANCH  11  12
HETATM   12  N1  UNL     1      26.101   5.593  49.981  1.00  0.00    -0.408 N 
HETATM   13  H1  UNL     1      25.415   6.281  49.558  1.00  0.00     0.155 HD
HETATM   14  H2  UNL     1      26.664   6.225  50.590  1.00  0.00     0.155 HD
ENDBRANCH  11  12
ENDBRANCH   4  10
ENDBRANCH   1   3
BRANCH   1  15
HETATM   15  C9  UNL     1      27.338   1.714  53.220  1.00  0.00     0.142 A 
HETATM   16  N3  UNL     1      28.259   2.168  54.099  1.00  0.00    -0.224 NA
HETATM   17  C10 UNL     1      29.116   1.299  54.691  1.00  0.00     0.236 A 
HETATM   18  N4  UNL     1      29.081  -0.040  54.425  1.00  0.00    -0.239 NA
HETATM   19  C11 UNL     1      28.176  -0.524  53.555  1.00  0.00     0.093 A 
HETATM   20  C12 UNL     1      27.314   0.360  52.960  1.00  0.00     0.042 A 
HETATM   21  C14 UNL     1      27.431  -1.471  52.747  1.00  0.00     0.037 A 
HETATM   22  C13 UNL     1      26.588  -0.598  52.165  1.00  0.00     0.043 A 
BRANCH  21  23
HETATM   23  N5  UNL     1      27.595  -2.872  52.648  1.00  0.00    -0.301 NA
HETATM   24  H11 UNL     1      28.408  -3.430  52.251  1.00  0.00     0.124 HD
HETATM   25  H12 UNL     1      28.056  -3.758  52.430  1.00  0.00     0.124 HD
ENDBRANCH  21  23
ENDBRANCH   1  15
TORSDOF 5
ENDMDL
MODEL 3
REMARK VINA RESULT:      -7.4      1.689      2.833
REMARK  5 active torsions:
REMARK  status: ('A' for Active; 'I' for Inactive)
REMARK    1  A    between atoms: N1_1  and  C1_2 
REMARK    2  A    between atoms: C2_3  and  C3_4 
REMARK    3  A    between atoms: C8_10  and  N2_11 
REMARK    4  A    between atoms: N2_11  and  C9_12 
REMARK    5  A    between atoms: C14_19  and  N5_20 
ROOT
HETATM    1  N2  UNL     1      25.491   1.015  51.893  1.00  0.00    -0.339 N 
HETATM    2  H8  UNL     1      25.859   1.426  51.016  1.00  0.00     0.167 HD
ENDROOT
BRANCH   1   3
HETATM    3  C8  UNL     1      24.242   0.783  52.528  1.00  0.00     0.045 A 
HETATM    4  C3  UNL     1      23.133   1.532  52.210  1.00  0.00     0.009 A 
HETATM    5  C4  UNL     1      21.949   1.279  52.847  1.00  0.00     0.023 A 
HETATM    6 BR1  UNL     1      20.333   2.221  52.500  1.00  0.00    -0.050 Br
HETATM    7  C5  UNL     1      21.837   0.295  53.802  1.00  0.00     0.020 A 
HETATM    8  C6  UNL     1      22.974  -0.424  54.084  1.00  0.00     0.004 A 
HETATM    9  C7  UNL     1      24.174  -0.208  53.474  1.00  0.00     0.030 A 
BRANCH   4  10
HETATM   10  C2  UNL     1      23.233   2.587  51.242  1.00  0.00     0.031 C 
HETATM   11  C1  UNL     1      23.698   3.739  50.952  1.00  0.00     0.081 C 
BRANCH  11  12
HETATM   12  N1  UNL     1      24.504   4.751  51.548  1.00  0.00    -0.408 N 
HETATM   13  H1  UNL     1      24.261   5.774  51.418  1.00  0.00     0.155 HD
HETATM   14  H2  UNL     1      25.358   4.825  52.142  1.00  0.00     0.155 HD
ENDBRANCH  11  12
ENDBRANCH   4  10
ENDBRANCH   1   3
BRANCH   1  15
HETATM   15  C9  UNL     1      26.669   0.603  52.569  1.00  0.00     0.142 A 
HETATM   16  N3  UNL     1      27.346   1.586  53.203  1.00  0.00    -0.224 NA
HETATM   17  C10 UNL     1      28.471   1.292  53.902  1.00  0.00     0.236 A 
HETATM   18  N4  UNL     1      28.953   0.017  53.988  1.00  0.00    -0.239 NA
HETATM   19  C11 UNL     1      28.302  -0.985  53.368  1.00  0.00     0.093 A 
HETATM   20  C12 UNL     1      27.167  -0.680  52.664  1.00  0.00     0.042 A 
HETATM   21  C14 UNL     1      27.977  -2.322  52.908  1.00  0.00     0.037 A 
HETATM   22  C13 UNL     1      26.863  -2.017  52.218  1.00  0.00     0.043 A 
BRANCH  21  23
HETATM   23  N5  UNL     1      28.665  -3.533  53.149  1.00  0.00    -0.301 NA
HETATM   24  H11 UNL     1      29.653  -3.688  53.509  1.00  0.00     0.124 HD
HETATM   25  H12 UNL     1      29.432  -4.145  53.439  1.00  0.00     0.124 HD
ENDBRANCH  21  23
ENDBRANCH   1  15
TORSDOF 5
ENDMDL
MODEL 4
REMARK VINA RESULT:      -7.3      3.161      4.819
REMARK  5 active torsions:
REMARK  status: ('A' for Active; 'I' for Inactive)
REMARK    1  A    between atoms: N1_1  and  C1_2 
REMARK    2  A    between atoms: C2_3  and  C3_4 
REMARK    3  A    between atoms: C8_10  and  N2_11 
REMARK    4  A    between atoms: N2_11  and  C9_12 
REMARK    5  A    between atoms: C14_19  and  N5_20 
ROOT
HETATM    1  N2  UNL     1      26.444   2.256  50.881  1.00  0.00    -0.339 N 
HETATM    2  H8  UNL     1      26.856   1.561  50.232  1.00  0.00     0.167 HD
ENDROOT
BRANCH   1   3
HETATM    3  C8  UNL     1      25.586   3.387  50.839  1.00  0.00     0.045 A 
HETATM    4  C3  UNL     1      25.794   4.404  49.936  1.00  0.00     0.009 A 
HETATM    5  C4  UNL     1      24.946   5.478  49.931  1.00  0.00     0.023 A 
HETATM    6 BR1  UNL     1      25.100   6.947  48.732  1.00  0.00    -0.050 Br
HETATM    7  C5  UNL     1      23.891   5.571  50.807  1.00  0.00     0.020 A 
HETATM    8  C6  UNL     1      23.727   4.529  51.690  1.00  0.00     0.004 A 
HETATM    9  C7  UNL     1      24.546   3.440  51.731  1.00  0.00     0.030 A 
BRANCH   4  10
HETATM   10  C2  UNL     1      26.909   4.347  49.034  1.00  0.00     0.031 C 
HETATM   11  C1  UNL     1      27.978   4.899  48.610  1.00  0.00     0.081 C 
BRANCH  11  12
HETATM   12  N1  UNL     1      28.752   6.069  48.859  1.00  0.00    -0.408 N 
HETATM   13  H1  UNL     1      29.181   6.234  49.813  1.00  0.00     0.155 HD
HETATM   14  H2  UNL     1      29.075   6.919  48.348  1.00  0.00     0.155 HD
ENDBRANCH  11  12
ENDBRANCH   4  10
ENDBRANCH   1   3
BRANCH   1  15
HETATM   15  C9  UNL     1      26.963   1.859  52.142  1.00  0.00     0.142 A 
HETATM   16  N3  UNL     1      28.107   2.474  52.515  1.00  0.00    -0.224 NA
HETATM   17  C10 UNL     1      28.670   2.185  53.716  1.00  0.00     0.236 A 
HETATM   18  N4  UNL     1      28.112   1.280  54.573  1.00  0.00    -0.239 NA
HETATM   19  C11 UNL     1      26.973   0.650  54.230  1.00  0.00     0.093 A 
HETATM   20  C12 UNL     1      26.411   0.948  53.016  1.00  0.00     0.042 A 
HETATM   21  C14 UNL     1      25.822  -0.229  54.313  1.00  0.00     0.037 A 
HETATM   22  C13 UNL     1      25.275   0.066  53.120  1.00  0.00     0.043 A 
BRANCH  21  23
HETATM   23  N5  UNL     1      25.451  -1.104  55.359  1.00  0.00    -0.301 NA
HETATM   24  H11 UNL     1      26.059  -1.733  55.962  1.00  0.00     0.124 HD
HETATM   25  H12 UNL     1      25.573  -1.779  56.118  1.00  0.00     0.124 HD
ENDBRANCH  21  23
ENDBRANCH   1  15
TORSDOF 5
ENDMDL
MODEL 5
REMARK VINA RESULT:      -7.0      1.895      3.583
REMARK  5 active torsions:
REMARK  status: ('A' for Active; 'I' for Inactive)
REMARK    1  A    between atoms: N1_1  and  C1_2 
REMARK    2  A    between atoms: C2_3  and  C3_4 
REMARK    3  A    between atoms: C8_10  and  N2_11 
REMARK    4  A    between atoms: N2_11  and  C9_12 
REMARK    5  A    between atoms: C14_19  and  N5_20 
ROOT
HETATM    1  N2  UNL     1      25.662   0.600  51.949  1.00  0.00    -0.339 N 
HETATM    2  H8  UNL     1      26.026   0.964  51.050  1.00  0.00     0.167 HD
ENDROOT
BRANCH   1   3
HETATM    3  C8  UNL     1      24.419   0.435  52.616  1.00  0.00     0.045 A 
HETATM    4  C3  UNL     1      23.339   1.231  52.312  1.00  0.00     0.009 A 
HETATM    5  C4  UNL     1      22.160   1.043  52.980  1.00  0.00     0.023 A 
HETATM    6 BR1  UNL     1      20.581   2.054  52.657  1.00  0.00    -0.050 Br
HETATM    7  C5  UNL     1      22.025   0.079  53.952  1.00  0.00     0.020 A 
HETATM    8  C6  UNL     1      23.134  -0.689  54.219  1.00  0.00     0.004 A 
HETATM    9  C7  UNL     1      24.328  -0.538  53.578  1.00  0.00     0.030 A 
BRANCH   4  10
HETATM   10  C2  UNL     1      23.464   2.267  51.327  1.00  0.00     0.031 C 
HETATM   11  C1  UNL     1      23.776   3.478  51.074  1.00  0.00     0.081 C 
BRANCH  11  12
HETATM   12  N1  UNL     1      24.244   4.632  51.767  1.00  0.00    -0.408 N 
HETATM   13  H1  UNL     1      24.644   5.453  51.229  1.00  0.00     0.155 HD
HETATM   14  H2  UNL     1      24.332   4.976  52.747  1.00  0.00     0.155 HD
ENDBRANCH  11  12
ENDBRANCH   4  10
ENDBRANCH   1   3
BRANCH   1  15
HETATM   15  C9  UNL     1      26.839   0.176  52.619  1.00  0.00     0.142 A 
HETATM   16  N3  UNL     1      27.096  -1.150  52.553  1.00  0.00    -0.224 NA
HETATM   17  C10 UNL     1      28.212  -1.653  53.138  1.00  0.00     0.236 A 
HETATM   18  N4  UNL     1      29.099  -0.856  53.802  1.00  0.00    -0.239 NA
HETATM   19  C11 UNL     1      28.873   0.468  53.886  1.00  0.00     0.093 A 
HETATM   20  C12 UNL     1      27.743   0.969  53.293  1.00  0.00     0.042 A 
HETATM   21  C14 UNL     1      29.062   1.866  54.226  1.00  0.00     0.037 A 
HETATM   22  C13 UNL     1      27.951   2.353  53.643  1.00  0.00     0.043 A 
BRANCH  21  23
HETATM   23  N5  UNL     1      30.116   2.465  54.953  1.00  0.00    -0.301 NA
HETATM   24  H11 UNL     1      30.107   2.895  55.925  1.00  0.00     0.124 HD
HETATM   25  H12 UNL     1      30.584   2.922  55.739  1.00  0.00     0.124 HD
ENDBRANCH  21  23
ENDBRANCH   1  15
TORSDOF 5
ENDMDL
MODEL 6
REMARK VINA RESULT:      -6.9      2.821      4.706
REMARK  5 active torsions:
REMARK  status: ('A' for Active; 'I' for Inactive)
REMARK    1  A    between atoms: N1_1  and  C1_2 
REMARK    2  A    between atoms: C2_3  and  C3_4 
REMARK    3  A    between atoms: C8_10  and  N2_11 
REMARK    4  A    between atoms: N2_11  and  C9_12 
REMARK    5  A    between atoms: C14_19  and  N5_20 
ROOT
HETATM    1  N2  UNL     1      25.434   1.637  51.274  1.00  0.00    -0.339 N 
HETATM    2  H8  UNL     1      25.620   0.938  50.532  1.00  0.00     0.167 HD
ENDROOT
BRANCH   1   3
HETATM    3  C8  UNL     1      24.794   2.895  51.426  1.00  0.00     0.045 A 
HETATM    4  C3  UNL     1      25.077   3.945  50.582  1.00  0.00     0.009 A 
HETATM    5  C4  UNL     1      24.442   5.142  50.765  1.00  0.00     0.023 A 
HETATM    6 BR1  UNL     1      24.721   6.672  49.670  1.00  0.00    -0.050 Br
HETATM    7  C5  UNL     1      23.525   5.328  51.774  1.00  0.00     0.020 A 
HETATM    8  C6  UNL     1      23.277   4.249  52.590  1.00  0.00     0.004 A 
HETATM    9  C7  UNL     1      23.886   3.038  52.445  1.00  0.00     0.030 A 
BRANCH   4  10
HETATM   10  C2  UNL     1      26.056   3.786  49.544  1.00  0.00     0.031 C 
HETATM   11  C1  UNL     1      27.117   4.228  48.991  1.00  0.00     0.081 C 
BRANCH  11  12
HETATM   12  N1  UNL     1      28.042   5.299  49.148  1.00  0.00    -0.408 N 
HETATM   13  H1  UNL     1      29.029   5.214  48.772  1.00  0.00     0.155 HD
HETATM   14  H2  UNL     1      28.071   6.256  49.561  1.00  0.00     0.155 HD
ENDBRANCH  11  12
ENDBRANCH   4  10
ENDBRANCH   1   3
BRANCH   1  15
HETATM   15  C9  UNL     1      26.045   1.058  52.416  1.00  0.00     0.142 A 
HETATM   16  N3  UNL     1      25.452  -0.064  52.882  1.00  0.00    -0.224 NA
HETATM   17  C10 UNL     1      25.975  -0.711  53.955  1.00  0.00     0.236 A 
HETATM   18  N4  UNL     1      27.097  -0.261  54.590  1.00  0.00    -0.239 NA
HETATM   19  C11 UNL     1      27.711   0.853  54.151  1.00  0.00     0.093 A 
HETATM   20  C12 UNL     1      27.176   1.501  53.068  1.00  0.00     0.042 A 
HETATM   21  C14 UNL     1      28.674   1.934  54.059  1.00  0.00     0.037 A 
HETATM   22  C13 UNL     1      28.144   2.567  52.996  1.00  0.00     0.043 A 
BRANCH  21  23
HETATM   23  N5  UNL     1      29.801   2.187  54.874  1.00  0.00    -0.301 NA
HETATM   24  H11 UNL     1      29.992   1.887  55.875  1.00  0.00     0.124 HD
HETATM   25  H12 UNL     1      30.399   2.146  55.703  1.00  0.00     0.124 HD
ENDBRANCH  21  23
ENDBRANCH   1  15
TORSDOF 5
ENDMDL
MODEL 7
REMARK VINA RESULT:      -6.8      1.896      2.252
REMARK  5 active torsions:
REMARK  status: ('A' for Active; 'I' for Inactive)
REMARK    1  A    between atoms: N1_1  and  C1_2 
REMARK    2  A    between atoms: C2_3  and  C3_4 
REMARK    3  A    between atoms: C8_10  and  N2_11 
REMARK    4  A    between atoms: N2_11  and  C9_12 
REMARK    5  A    between atoms: C14_19  and  N5_20 
ROOT
HETATM    1  N2  UNL     1      25.423   1.306  52.413  1.00  0.00    -0.339 N 
HETATM    2  H8  UNL     1      24.748   0.828  53.036  1.00  0.00     0.167 HD
ENDROOT
BRANCH   1   3
HETATM    3  C8  UNL     1      25.418   2.219  51.326  1.00  0.00     0.045 A 
HETATM    4  C3  UNL     1      24.238   2.631  50.748  1.00  0.00     0.009 A 
HETATM    5  C4  UNL     1      24.277   3.508  49.700  1.00  0.00     0.023 A 
HETATM    6 BR1  UNL     1      22.730   4.175  48.814  1.00  0.00    -0.050 Br
HETATM    7  C5  UNL     1      25.465   3.991  49.203  1.00  0.00     0.020 A 
HETATM    8  C6  UNL     1      26.615   3.549  49.814  1.00  0.00     0.004 A 
HETATM    9  C7  UNL     1      26.625   2.676  50.861  1.00  0.00     0.030 A 
BRANCH   4  10
HETATM   10  C2  UNL     1      22.987   2.114  51.225  1.00  0.00     0.031 C 
HETATM   11  C1  UNL     1      21.862   2.360  51.774  1.00  0.00     0.081 C 
BRANCH  11  12
HETATM   12  N1  UNL     1      21.140   3.475  52.287  1.00  0.00    -0.408 N 
HETATM   13  H1  UNL     1      21.536   4.048  53.085  1.00  0.00     0.155 HD
HETATM   14  H2  UNL     1      20.241   3.974  52.114  1.00  0.00     0.155 HD
ENDBRANCH  11  12
ENDBRANCH   4  10
ENDBRANCH   1   3
BRANCH   1  15
HETATM   15  C9  UNL     1      26.677   0.830  52.877  1.00  0.00     0.142 A 
HETATM   16  N3  UNL     1      27.490   1.768  53.411  1.00  0.00    -0.224 NA
HETATM   17  C10 UNL     1      28.701   1.411  53.909  1.00  0.00     0.236 A 
HETATM   18  N4  UNL     1      29.134   0.116  53.889  1.00  0.00    -0.239 NA
HETATM   19  C11 UNL     1      28.349  -0.842  53.364  1.00  0.00     0.093 A 
HETATM   20  C12 UNL     1      27.127  -0.473  52.862  1.00  0.00     0.042 A 
HETATM   21  C14 UNL     1      27.895  -2.152  52.937  1.00  0.00     0.037 A 
HETATM   22  C13 UNL     1      26.697  -1.785  52.445  1.00  0.00     0.043 A 
BRANCH  21  23
HETATM   23  N5  UNL     1      28.560  -3.395  53.036  1.00  0.00    -0.301 NA
HETATM   24  H11 UNL     1      29.289  -3.824  52.393  1.00  0.00     0.124 HD
HETATM   25  H12 UNL     1      29.210  -4.145  52.785  1.00  0.00     0.124 HD
ENDBRANCH  21  23
ENDBRANCH   1  15
TORSDOF 5
ENDMDL
MODEL 8
REMARK VINA RESULT:      -6.8      3.436      5.172
REMARK  5 active torsions:
REMARK  status: ('A' for Active; 'I' for Inactive)
REMARK    1  A    between atoms: N1_1  and  C1_2 
REMARK    2  A    between atoms: C2_3  and  C3_4 
REMARK    3  A    between atoms: C8_10  and  N2_11 
REMARK    4  A    between atoms: N2_11  and  C9_12 
REMARK    5  A    between atoms: C14_19  and  N5_20 
ROOT
HETATM    1  N2  UNL     1      23.437   2.074  50.559  1.00  0.00    -0.339 N 
HETATM    2  H8  UNL     1      22.915   2.013  49.666  1.00  0.00     0.167 HD
ENDROOT
BRANCH   1   3
HETATM    3  C8  UNL     1      23.720   1.268  51.693  1.00  0.00     0.045 A 
HETATM    4  C3  UNL     1      22.710   0.785  52.493  1.00  0.00     0.009 A 
HETATM    5  C4  UNL     1      23.025   0.015  53.578  1.00  0.00     0.023 A 
HETATM    6 BR1  UNL     1      21.737  -0.733  54.762  1.00  0.00    -0.050 Br
HETATM    7  C5  UNL     1      24.328  -0.290  53.895  1.00  0.00     0.020 A 
HETATM    8  C6  UNL     1      25.301   0.217  53.066  1.00  0.00     0.004 A 
HETATM    9  C7  UNL     1      25.033   0.988  51.974  1.00  0.00     0.030 A 
BRANCH   4  10
HETATM   10  C2  UNL     1      21.344   1.118  52.203  1.00  0.00     0.031 C 
HETATM   11  C1  UNL     1      20.462   2.032  52.085  1.00  0.00     0.081 C 
BRANCH  11  12
HETATM   12  N1  UNL     1      20.363   3.448  52.204  1.00  0.00    -0.408 N 
HETATM   13  H1  UNL     1      20.782   3.946  53.040  1.00  0.00     0.155 HD
HETATM   14  H2  UNL     1      19.967   4.253  51.673  1.00  0.00     0.155 HD
ENDBRANCH  11  12
ENDBRANCH   4  10
ENDBRANCH   1   3
BRANCH   1  15
HETATM   15  C9  UNL     1      23.977   3.386  50.522  1.00  0.00     0.142 A 
HETATM   16  N3  UNL     1      23.187   4.351  51.043  1.00  0.00    -0.224 NA
HETATM   17  C10 UNL     1      23.622   5.636  51.080  1.00  0.00     0.236 A 
HETATM   18  N4  UNL     1      24.850   5.994  50.602  1.00  0.00    -0.239 NA
HETATM   19  C11 UNL     1      25.661   5.057  50.078  1.00  0.00     0.093 A 
HETATM   20  C12 UNL     1      25.214   3.762  50.043  1.00  0.00     0.042 A 
HETATM   21  C14 UNL     1      26.826   4.451  49.461  1.00  0.00     0.037 A 
HETATM   22  C13 UNL     1      26.382   3.181  49.429  1.00  0.00     0.043 A 
BRANCH  21  23
HETATM   23  N5  UNL     1      28.028   5.067  49.044  1.00  0.00    -0.301 NA
HETATM   24  H11 UNL     1      28.207   6.075  48.761  1.00  0.00     0.124 HD
HETATM   25  H12 UNL     1      28.651   5.819  48.739  1.00  0.00     0.124 HD
ENDBRANCH  21  23
ENDBRANCH   1  15
TORSDOF 5
ENDMDL
MODEL 9
REMARK VINA RESULT:      -6.8      2.566      3.564
REMARK  5 active torsions:
REMARK  status: ('A' for Active; 'I' for Inactive)
REMARK    1  A    between atoms: N1_1  and  C1_2 
REMARK    2  A    between atoms: C2_3  and  C3_4 
REMARK    3  A    between atoms: C8_10  and  N2_11 
REMARK    4  A    between atoms: N2_11  and  C9_12 
REMARK    5  A    between atoms: C14_19  and  N5_20 
ROOT
HETATM    1  N2  UNL     1      24.610   1.440  51.567  1.00  0.00    -0.339 N 
HETATM    2  H8  UNL     1      25.041   0.978  50.746  1.00  0.00     0.167 HD
ENDROOT
BRANCH   1   3
HETATM    3  C8  UNL     1      23.752   2.534  51.854  1.00  0.00     0.045 A 
HETATM    4  C3  UNL     1      22.436   2.531  51.452  1.00  0.00     0.009 A 
HETATM    5  C4  UNL     1      21.644   3.607  51.745  1.00  0.00     0.023 A 
HETATM    6 BR1  UNL     1      19.806   3.735  51.269  1.00  0.00    -0.050 Br
HETATM    7  C5  UNL     1      22.128   4.697  52.429  1.00  0.00     0.020 A 
HETATM    8  C6  UNL     1      23.450   4.653  52.807  1.00  0.00     0.004 A 
HETATM    9  C7  UNL     1      24.275   3.602  52.538  1.00  0.00     0.030 A 
BRANCH   4  10
HETATM   10  C2  UNL     1      21.916   1.420  50.707  1.00  0.00     0.031 C 
HETATM   11  C1  UNL     1      21.565   0.958  49.571  1.00  0.00     0.081 C 
BRANCH  11  12
HETATM   12  N1  UNL     1      21.497   1.386  48.213  1.00  0.00    -0.408 N 
HETATM   13  H1  UNL     1      20.594   1.292  47.667  1.00  0.00     0.155 HD
HETATM   14  H2  UNL     1      22.118   1.813  47.494  1.00  0.00     0.155 HD
ENDBRANCH  11  12
ENDBRANCH   4  10
ENDBRANCH   1   3
BRANCH   1  15
HETATM   15  C9  UNL     1      25.090   0.666  52.656  1.00  0.00     0.142 A 
HETATM   16  N3  UNL     1      26.429   0.692  52.836  1.00  0.00    -0.224 NA
HETATM   17  C10 UNL     1      26.987   0.007  53.866  1.00  0.00     0.236 A 
HETATM   18  N4  UNL     1      26.230  -0.720  54.741  1.00  0.00    -0.239 NA
HETATM   19  C11 UNL     1      24.894  -0.766  54.589  1.00  0.00     0.093 A 
HETATM   20  C12 UNL     1      24.339  -0.072  53.546  1.00  0.00     0.042 A 
HETATM   21  C14 UNL     1      23.504  -1.101  54.832  1.00  0.00     0.037 A 
HETATM   22  C13 UNL     1      22.964  -0.418  53.806  1.00  0.00     0.043 A 
BRANCH  21  23
HETATM   23  N5  UNL     1      22.954  -1.907  55.855  1.00  0.00    -0.301 NA
HETATM   24  H11 UNL     1      22.620  -1.632  56.826  1.00  0.00     0.124 HD
HETATM   25  H12 UNL     1      22.538  -2.135  56.762  1.00  0.00     0.124 HD
ENDBRANCH  21  23
ENDBRANCH   1  15
TORSDOF 5
ENDMDL
