MODEL 1
REMARK VINA RESULT:      -7.2      0.000      0.000
REMARK  8 active torsions:
REMARK  status: ('A' for Active; 'I' for Inactive)
REMARK    1  A    between atoms: O1_1  and  C1_2 
REMARK    2  A    between atoms: C1_2  and  N1_3 
REMARK    3  A    between atoms: N2_5  and  C3_6 
REMARK    4  A    between atoms: C3_6  and  N3_7 
REMARK    5  A    between atoms: N3_7  and  C4_8 
REMARK    6  A    between atoms: C7_11  and  O2_12 
REMARK    7  A    between atoms: O2_12  and  C8_13 
REMARK    8  A    between atoms: C8_13  and  C9_14 
ROOT
HETATM    1  C4  UNL     1      23.415   4.750  51.567  1.00  0.00     0.032 A 
HETATM    2  C5  UNL     1      23.605   4.166  52.796  1.00  0.00     0.032 A 
HETATM    3  C6  UNL     1      24.125   2.905  52.979  1.00  0.00     0.039 A 
HETATM    4  C7  UNL     1      24.492   2.149  51.885  1.00  0.00     0.069 A 
HETATM    5  C15 UNL     1      24.327   2.681  50.625  1.00  0.00     0.039 A 
HETATM    6  C16 UNL     1      23.800   3.949  50.498  1.00  0.00     0.032 A 
ENDROOT
BRANCH   1   7
HETATM    7  N3  UNL     1      22.879   6.040  51.330  1.00  0.00    -0.355 N 
HETATM    8  H6  UNL     1      21.945   6.271  51.782  1.00  0.00     0.166 HD
BRANCH   7   9
HETATM    9  C3  UNL     1      23.523   7.017  50.527  1.00  0.00     0.179 C 
BRANCH   9  10
HETATM   10  N2  UNL     1      24.756   7.305  50.876  1.00  0.00    -0.146 NA
HETATM   11  C2  UNL     1      25.706   7.129  49.823  1.00  0.00     0.197 A 
HETATM   12  N1  UNL     1      25.948   8.218  50.474  1.00  0.00    -0.276 N 
BRANCH  12  13
HETATM   13  C1  UNL     1      27.045   9.100  50.138  1.00  0.00     0.309 C 
BRANCH  13  14
HETATM   14  O1  UNL     1      27.758   9.551  51.228  1.00  0.00    -0.381 OA
HETATM   15  H1  UNL     1      27.563  10.464  51.504  1.00  0.00     0.211 HD
ENDBRANCH  13  14
ENDBRANCH  12  13
ENDBRANCH   9  10
ENDBRANCH   7   9
ENDBRANCH   1   7
BRANCH   4  16
HETATM   16  O2  UNL     1      25.022   0.876  51.959  1.00  0.00    -0.347 OA
BRANCH  16  17
HETATM   17  C8  UNL     1      25.339   0.234  53.181  1.00  0.00     0.214 C 
BRANCH  17  18
HETATM   18  C9  UNL     1      26.807   0.173  53.356  1.00  0.00    -0.031 A 
HETATM   19  C10 UNL     1      27.585  -0.937  53.115  1.00  0.00     0.009 A 
HETATM   20  C11 UNL     1      28.931  -0.910  53.302  1.00  0.00     0.004 A 
HETATM   21  C12 UNL     1      29.615   0.212  53.738  1.00  0.00     0.042 A 
HETATM   22  C13 UNL     1      28.857   1.356  53.991  1.00  0.00     0.117 A 
HETATM   23  F1  UNL     1      29.390   2.521  54.420  1.00  0.00    -0.206 F 
HETATM   24  C14 UNL     1      27.478   1.302  53.793  1.00  0.00     0.051 A 
ENDBRANCH  17  18
ENDBRANCH  16  17
ENDBRANCH   4  16
TORSDOF 8
ENDMDL
MODEL 2
REMARK VINA RESULT:      -7.2      4.410      7.286
REMARK  8 active torsions:
REMARK  status: ('A' for Active; 'I' for Inactive)
REMARK    1  A    between atoms: O1_1  and  C1_2 
REMARK    2  A    between atoms: C1_2  and  N1_3 
REMARK    3  A    between atoms: N2_5  and  C3_6 
REMARK    4  A    between atoms: C3_6  and  N3_7 
REMARK    5  A    between atoms: N3_7  and  C4_8 
REMARK    6  A    between atoms: C7_11  and  O2_12 
REMARK    7  A    between atoms: O2_12  and  C8_13 
REMARK    8  A    between atoms: C8_13  and  C9_14 
ROOT
HETATM    1  C4  UNL     1      27.034   2.408  53.133  1.00  0.00     0.032 A 
HETATM    2  C5  UNL     1      25.831   2.432  53.797  1.00  0.00     0.032 A 
HETATM    3  C6  UNL     1      24.605   2.390  53.173  1.00  0.00     0.039 A 
HETATM    4  C7  UNL     1      24.538   2.317  51.797  1.00  0.00     0.069 A 
HETATM    5  C15 UNL     1      25.711   2.289  51.075  1.00  0.00     0.039 A 
HETATM    6  C16 UNL     1      26.912   2.334  51.751  1.00  0.00     0.032 A 
ENDROOT
BRANCH   1   7
HETATM    7  N3  UNL     1      28.318   2.456  53.732  1.00  0.00    -0.355 N 
HETATM    8  H6  UNL     1      28.765   3.412  53.855  1.00  0.00     0.166 HD
BRANCH   7   9
HETATM    9  C3  UNL     1      29.021   1.300  54.163  1.00  0.00     0.179 C 
BRANCH   9  10
HETATM   10  N2  UNL     1      29.026   0.299  53.314  1.00  0.00    -0.146 NA
HETATM   11  C2  UNL     1      29.401  -0.949  53.900  1.00  0.00     0.197 A 
HETATM   12  N1  UNL     1      28.404  -1.109  53.095  1.00  0.00    -0.276 N 
BRANCH  12  13
HETATM   13  C1  UNL     1      27.791  -2.399  52.859  1.00  0.00     0.309 C 
BRANCH  13  14
HETATM   14  O1  UNL     1      28.538  -3.467  53.306  1.00  0.00    -0.381 OA
HETATM   15  H1  UNL     1      28.281  -3.818  54.177  1.00  0.00     0.211 HD
ENDBRANCH  13  14
ENDBRANCH  12  13
ENDBRANCH   9  10
ENDBRANCH   7   9
ENDBRANCH   1   7
BRANCH   4  16
HETATM   16  O2  UNL     1      23.362   2.270  51.075  1.00  0.00    -0.347 OA
BRANCH  16  17
HETATM   17  C8  UNL     1      22.634   1.076  50.849  1.00  0.00     0.214 C 
BRANCH  17  18
HETATM   18  C9  UNL     1      21.946   0.659  52.091  1.00  0.00    -0.031 A 
HETATM   19  C10 UNL     1      20.961   1.379  52.728  1.00  0.00     0.009 A 
HETATM   20  C11 UNL     1      20.379   0.924  53.868  1.00  0.00     0.004 A 
HETATM   21  C12 UNL     1      20.719  -0.276  54.469  1.00  0.00     0.042 A 
HETATM   22  C13 UNL     1      21.714  -1.033  53.848  1.00  0.00     0.117 A 
HETATM   23  F1  UNL     1      22.147  -2.223  54.321  1.00  0.00    -0.206 F 
HETATM   24  C14 UNL     1      22.297  -0.543  52.681  1.00  0.00     0.051 A 
ENDBRANCH  17  18
ENDBRANCH  16  17
ENDBRANCH   4  16
TORSDOF 8
ENDMDL
MODEL 3
REMARK VINA RESULT:      -7.1      7.007      9.514
REMARK  8 active torsions:
REMARK  status: ('A' for Active; 'I' for Inactive)
REMARK    1  A    between atoms: O1_1  and  C1_2 
REMARK    2  A    between atoms: C1_2  and  N1_3 
REMARK    3  A    between atoms: N2_5  and  C3_6 
REMARK    4  A    between atoms: C3_6  and  N3_7 
REMARK    5  A    between atoms: N3_7  and  C4_8 
REMARK    6  A    between atoms: C7_11  and  O2_12 
REMARK    7  A    between atoms: O2_12  and  C8_13 
REMARK    8  A    between atoms: C8_13  and  C9_14 
ROOT
HETATM    1  C4  UNL     1      23.673   0.308  53.050  1.00  0.00     0.032 A 
HETATM    2  C5  UNL     1      22.616   0.679  52.254  1.00  0.00     0.032 A 
HETATM    3  C6  UNL     1      21.331   0.211  52.410  1.00  0.00     0.039 A 
HETATM    4  C7  UNL     1      21.046  -0.687  53.418  1.00  0.00     0.069 A 
HETATM    5  C15 UNL     1      22.064  -1.096  54.250  1.00  0.00     0.039 A 
HETATM    6  C16 UNL     1      23.333  -0.596  54.049  1.00  0.00     0.032 A 
ENDROOT
BRANCH   1   7
HETATM    7  N3  UNL     1      25.011   0.759  52.924  1.00  0.00    -0.355 N 
HETATM    8  H6  UNL     1      25.220   1.456  52.151  1.00  0.00     0.166 HD
BRANCH   7   9
HETATM    9  C3  UNL     1      26.064   0.321  53.771  1.00  0.00     0.179 C 
BRANCH   9  10
HETATM   10  N2  UNL     1      27.141  -0.101  53.151  1.00  0.00    -0.146 NA
HETATM   11  C2  UNL     1      28.296  -0.171  53.991  1.00  0.00     0.197 A 
HETATM   12  N1  UNL     1      28.227  -1.211  53.228  1.00  0.00    -0.276 N 
BRANCH  12  13
HETATM   13  C1  UNL     1      29.213  -2.270  53.263  1.00  0.00     0.309 C 
BRANCH  13  14
HETATM   14  O1  UNL     1      28.678  -3.534  53.385  1.00  0.00    -0.381 OA
HETATM   15  H1  UNL     1      27.838  -3.677  52.914  1.00  0.00     0.211 HD
ENDBRANCH  13  14
ENDBRANCH  12  13
ENDBRANCH   9  10
ENDBRANCH   7   9
ENDBRANCH   1   7
BRANCH   4  16
HETATM   16  O2  UNL     1      19.794  -1.217  53.659  1.00  0.00    -0.347 OA
BRANCH  16  17
HETATM   17  C8  UNL     1      18.592  -0.595  53.241  1.00  0.00     0.214 C 
BRANCH  17  18
HETATM   18  C9  UNL     1      17.539  -1.614  53.034  1.00  0.00    -0.031 A 
HETATM   19  C10 UNL     1      16.377  -1.416  52.324  1.00  0.00     0.009 A 
HETATM   20  C11 UNL     1      15.459  -2.408  52.181  1.00  0.00     0.004 A 
HETATM   21  C12 UNL     1      15.614  -3.671  52.726  1.00  0.00     0.042 A 
HETATM   22  C13 UNL     1      16.782  -3.907  53.452  1.00  0.00     0.117 A 
HETATM   23  F1  UNL     1      17.068  -5.091  54.037  1.00  0.00    -0.206 F 
HETATM   24  C14 UNL     1      17.708  -2.873  53.584  1.00  0.00     0.051 A 
ENDBRANCH  17  18
ENDBRANCH  16  17
ENDBRANCH   4  16
TORSDOF 8
ENDMDL
MODEL 4
REMARK VINA RESULT:      -7.1      4.080      7.046
REMARK  8 active torsions:
REMARK  status: ('A' for Active; 'I' for Inactive)
REMARK    1  A    between atoms: O1_1  and  C1_2 
REMARK    2  A    between atoms: C1_2  and  N1_3 
REMARK    3  A    between atoms: N2_5  and  C3_6 
REMARK    4  A    between atoms: C3_6  and  N3_7 
REMARK    5  A    between atoms: N3_7  and  C4_8 
REMARK    6  A    between atoms: C7_11  and  O2_12 
REMARK    7  A    between atoms: O2_12  and  C8_13 
REMARK    8  A    between atoms: C8_13  and  C9_14 
ROOT
HETATM    1  C4  UNL     1      26.068  -0.172  52.552  1.00  0.00     0.032 A 
HETATM    2  C5  UNL     1      26.776   0.618  51.679  1.00  0.00     0.032 A 
HETATM    3  C6  UNL     1      26.342   1.841  51.221  1.00  0.00     0.039 A 
HETATM    4  C7  UNL     1      25.126   2.339  51.643  1.00  0.00     0.069 A 
HETATM    5  C15 UNL     1      24.371   1.593  52.520  1.00  0.00     0.039 A 
HETATM    6  C16 UNL     1      24.853   0.374  52.947  1.00  0.00     0.032 A 
ENDROOT
BRANCH   1   7
HETATM    7  N3  UNL     1      26.472  -1.439  53.046  1.00  0.00    -0.355 N 
HETATM    8  H6  UNL     1      25.712  -2.163  53.211  1.00  0.00     0.166 HD
BRANCH   7   9
HETATM    9  C3  UNL     1      27.823  -1.771  53.326  1.00  0.00     0.179 C 
BRANCH   9  10
HETATM   10  N2  UNL     1      28.433  -0.973  54.171  1.00  0.00    -0.146 NA
HETATM   11  C2  UNL     1      29.634  -0.398  53.653  1.00  0.00     0.197 A 
HETATM   12  N1  UNL     1      28.952   0.487  54.301  1.00  0.00    -0.276 N 
BRANCH  12  13
HETATM   13  C1  UNL     1      29.394   1.857  54.449  1.00  0.00     0.309 C 
BRANCH  13  14
HETATM   14  O1  UNL     1      28.436   2.794  54.128  1.00  0.00    -0.381 OA
HETATM   15  H1  UNL     1      27.518   2.473  54.146  1.00  0.00     0.211 HD
ENDBRANCH  13  14
ENDBRANCH  12  13
ENDBRANCH   9  10
ENDBRANCH   7   9
ENDBRANCH   1   7
BRANCH   4  16
HETATM   16  O2  UNL     1      24.600   3.553  51.244  1.00  0.00    -0.347 OA
BRANCH  16  17
HETATM   17  C8  UNL     1      24.365   3.892  49.890  1.00  0.00     0.214 C 
BRANCH  17  18
HETATM   18  C9  UNL     1      25.366   4.882  49.434  1.00  0.00    -0.031 A 
HETATM   19  C10 UNL     1      25.171   6.244  49.398  1.00  0.00     0.009 A 
HETATM   20  C11 UNL     1      26.145   7.086  48.964  1.00  0.00     0.004 A 
HETATM   21  C12 UNL     1      27.387   6.653  48.533  1.00  0.00     0.042 A 
HETATM   22  C13 UNL     1      27.620   5.277  48.556  1.00  0.00     0.117 A 
HETATM   23  F1  UNL     1      28.784   4.713  48.166  1.00  0.00    -0.206 F 
HETATM   24  C14 UNL     1      26.604   4.434  49.005  1.00  0.00     0.051 A 
ENDBRANCH  17  18
ENDBRANCH  16  17
ENDBRANCH   4  16
TORSDOF 8
ENDMDL
MODEL 5
REMARK VINA RESULT:      -7.0      4.978      7.601
REMARK  8 active torsions:
REMARK  status: ('A' for Active; 'I' for Inactive)
REMARK    1  A    between atoms: O1_1  and  C1_2 
REMARK    2  A    between atoms: C1_2  and  N1_3 
REMARK    3  A    between atoms: N2_5  and  C3_6 
REMARK    4  A    between atoms: C3_6  and  N3_7 
REMARK    5  A    between atoms: N3_7  and  C4_8 
REMARK    6  A    between atoms: C7_11  and  O2_12 
REMARK    7  A    between atoms: O2_12  and  C8_13 
REMARK    8  A    between atoms: C8_13  and  C9_14 
ROOT
HETATM    1  C4  UNL     1      26.391  -0.917  52.782  1.00  0.00     0.032 A 
HETATM    2  C5  UNL     1      26.572   0.147  51.932  1.00  0.00     0.032 A 
HETATM    3  C6  UNL     1      25.772   1.266  51.916  1.00  0.00     0.039 A 
HETATM    4  C7  UNL     1      24.712   1.364  52.794  1.00  0.00     0.069 A 
HETATM    5  C15 UNL     1      24.480   0.328  53.672  1.00  0.00     0.039 A 
HETATM    6  C16 UNL     1      25.312  -0.770  53.645  1.00  0.00     0.032 A 
ENDROOT
BRANCH   1   7
HETATM    7  N3  UNL     1      27.185  -2.091  52.830  1.00  0.00    -0.355 N 
HETATM    8  H6  UNL     1      26.693  -3.020  52.676  1.00  0.00     0.166 HD
BRANCH   7   9
HETATM    9  C3  UNL     1      28.583  -2.077  53.074  1.00  0.00     0.179 C 
BRANCH   9  10
HETATM   10  N2  UNL     1      28.986  -1.209  53.973  1.00  0.00    -0.146 NA
HETATM   11  C2  UNL     1      30.062  -0.380  53.528  1.00  0.00     0.197 A 
HETATM   12  N1  UNL     1      29.190   0.319  54.176  1.00  0.00    -0.276 N 
BRANCH  12  13
HETATM   13  C1  UNL     1      29.336   1.743  54.390  1.00  0.00     0.309 C 
BRANCH  13  14
HETATM   14  O1  UNL     1      29.120   2.507  53.265  1.00  0.00    -0.381 OA
HETATM   15  H1  UNL     1      28.196   2.774  53.115  1.00  0.00     0.211 HD
ENDBRANCH  13  14
ENDBRANCH  12  13
ENDBRANCH   9  10
ENDBRANCH   7   9
ENDBRANCH   1   7
BRANCH   4  16
HETATM   16  O2  UNL     1      23.851   2.441  52.859  1.00  0.00    -0.347 OA
BRANCH  16  17
HETATM   17  C8  UNL     1      23.384   3.136  51.717  1.00  0.00     0.214 C 
BRANCH  17  18
HETATM   18  C9  UNL     1      22.257   2.400  51.101  1.00  0.00    -0.031 A 
HETATM   19  C10 UNL     1      22.354   1.596  49.988  1.00  0.00     0.009 A 
HETATM   20  C11 UNL     1      21.267   0.954  49.485  1.00  0.00     0.004 A 
HETATM   21  C12 UNL     1      20.002   1.053  50.038  1.00  0.00     0.042 A 
HETATM   22  C13 UNL     1      19.869   1.860  51.169  1.00  0.00     0.117 A 
HETATM   23  F1  UNL     1      18.696   2.048  51.813  1.00  0.00    -0.206 F 
HETATM   24  C14 UNL     1      20.998   2.509  51.665  1.00  0.00     0.051 A 
ENDBRANCH  17  18
ENDBRANCH  16  17
ENDBRANCH   4  16
TORSDOF 8
ENDMDL
MODEL 6
REMARK VINA RESULT:      -7.0      5.564      7.591
REMARK  8 active torsions:
REMARK  status: ('A' for Active; 'I' for Inactive)
REMARK    1  A    between atoms: O1_1  and  C1_2 
REMARK    2  A    between atoms: C1_2  and  N1_3 
REMARK    3  A    between atoms: N2_5  and  C3_6 
REMARK    4  A    between atoms: C3_6  and  N3_7 
REMARK    5  A    between atoms: N3_7  and  C4_8 
REMARK    6  A    between atoms: C7_11  and  O2_12 
REMARK    7  A    between atoms: O2_12  and  C8_13 
REMARK    8  A    between atoms: C8_13  and  C9_14 
ROOT
HETATM    1  C4  UNL     1      20.661  -0.535  53.467  1.00  0.00     0.032 A 
HETATM    2  C5  UNL     1      21.307  -1.154  54.510  1.00  0.00     0.032 A 
HETATM    3  C6  UNL     1      22.671  -1.131  54.694  1.00  0.00     0.039 A 
HETATM    4  C7  UNL     1      23.473  -0.455  53.798  1.00  0.00     0.069 A 
HETATM    5  C15 UNL     1      22.883   0.187  52.731  1.00  0.00     0.039 A 
HETATM    6  C16 UNL     1      21.512   0.132  52.594  1.00  0.00     0.032 A 
ENDROOT
BRANCH   1   7
HETATM    7  N3  UNL     1      19.263  -0.536  53.233  1.00  0.00    -0.355 N 
HETATM    8  H6  UNL     1      18.634  -0.840  54.034  1.00  0.00     0.166 HD
BRANCH   7   9
HETATM    9  C3  UNL     1      18.679  -0.160  51.995  1.00  0.00     0.179 C 
BRANCH   9  10
HETATM   10  N2  UNL     1      17.499  -0.681  51.750  1.00  0.00    -0.146 NA
HETATM   11  C2  UNL     1      16.869  -1.240  52.905  1.00  0.00     0.197 A 
HETATM   12  N1  UNL     1      16.013  -0.580  52.197  1.00  0.00    -0.276 N 
BRANCH  12  13
HETATM   13  C1  UNL     1      14.620  -0.458  52.571  1.00  0.00     0.309 C 
BRANCH  13  14
HETATM   14  O1  UNL     1      14.416   0.159  53.785  1.00  0.00    -0.381 OA
HETATM   15  H1  UNL     1      13.710  -0.225  54.334  1.00  0.00     0.211 HD
ENDBRANCH  13  14
ENDBRANCH  12  13
ENDBRANCH   9  10
ENDBRANCH   7   9
ENDBRANCH   1   7
BRANCH   4  16
HETATM   16  O2  UNL     1      24.848  -0.371  53.892  1.00  0.00    -0.347 OA
BRANCH  16  17
HETATM   17  C8  UNL     1      25.662   0.229  52.900  1.00  0.00     0.214 C 
BRANCH  17  18
HETATM   18  C9  UNL     1      27.091   0.022  53.223  1.00  0.00    -0.031 A 
HETATM   19  C10 UNL     1      27.787  -1.146  53.007  1.00  0.00     0.009 A 
HETATM   20  C11 UNL     1      29.102  -1.254  53.332  1.00  0.00     0.004 A 
HETATM   21  C12 UNL     1      29.833  -0.222  53.894  1.00  0.00     0.042 A 
HETATM   22  C13 UNL     1      29.158   0.977  54.126  1.00  0.00     0.117 A 
HETATM   23  F1  UNL     1      29.745   2.068  54.667  1.00  0.00    -0.206 F 
HETATM   24  C14 UNL     1      27.810   1.063  53.784  1.00  0.00     0.051 A 
ENDBRANCH  17  18
ENDBRANCH  16  17
ENDBRANCH   4  16
TORSDOF 8
ENDMDL
MODEL 7
REMARK VINA RESULT:      -7.0      3.276      4.644
REMARK  8 active torsions:
REMARK  status: ('A' for Active; 'I' for Inactive)
REMARK    1  A    between atoms: O1_1  and  C1_2 
REMARK    2  A    between atoms: C1_2  and  N1_3 
REMARK    3  A    between atoms: N2_5  and  C3_6 
REMARK    4  A    between atoms: C3_6  and  N3_7 
REMARK    5  A    between atoms: N3_7  and  C4_8 
REMARK    6  A    between atoms: C7_11  and  O2_12 
REMARK    7  A    between atoms: O2_12  and  C8_13 
REMARK    8  A    between atoms: C8_13  and  C9_14 
ROOT
HETATM    1  C4  UNL     1      27.113   6.737  48.715  1.00  0.00     0.032 A 
HETATM    2  C5  UNL     1      27.701   5.515  48.493  1.00  0.00     0.032 A 
HETATM    3  C6  UNL     1      27.187   4.319  48.941  1.00  0.00     0.039 A 
HETATM    4  C7  UNL     1      26.010   4.305  49.660  1.00  0.00     0.069 A 
HETATM    5  C15 UNL     1      25.372   5.499  49.914  1.00  0.00     0.039 A 
HETATM    6  C16 UNL     1      25.931   6.668  49.443  1.00  0.00     0.032 A 
ENDROOT
BRANCH   1   7
HETATM    7  N3  UNL     1      27.608   7.992  48.280  1.00  0.00    -0.355 N 
HETATM    8  H6  UNL     1      27.051   8.504  47.533  1.00  0.00     0.166 HD
BRANCH   7   9
HETATM    9  C3  UNL     1      28.795   8.581  48.789  1.00  0.00     0.179 C 
BRANCH   9  10
HETATM   10  N2  UNL     1      29.907   7.955  48.481  1.00  0.00    -0.146 NA
HETATM   11  C2  UNL     1      31.004   8.278  49.339  1.00  0.00     0.197 A 
HETATM   12  N1  UNL     1      30.976   7.010  49.098  1.00  0.00    -0.276 N 
BRANCH  12  13
HETATM   13  C1  UNL     1      31.949   6.090  49.649  1.00  0.00     0.309 C 
BRANCH  13  14
HETATM   14  O1  UNL     1      31.484   5.353  50.716  1.00  0.00    -0.381 OA
HETATM   15  H1  UNL     1      32.171   4.916  51.250  1.00  0.00     0.211 HD
ENDBRANCH  13  14
ENDBRANCH  12  13
ENDBRANCH   9  10
ENDBRANCH   7   9
ENDBRANCH   1   7
BRANCH   4  16
HETATM   16  O2  UNL     1      25.412   3.162  50.153  1.00  0.00    -0.347 OA
BRANCH  16  17
HETATM   17  C8  UNL     1      25.002   3.017  51.501  1.00  0.00     0.214 C 
BRANCH  17  18
HETATM   18  C9  UNL     1      25.386   1.681  52.007  1.00  0.00    -0.031 A 
HETATM   19  C10 UNL     1      26.565   1.034  51.713  1.00  0.00     0.009 A 
HETATM   20  C11 UNL     1      26.840  -0.196  52.221  1.00  0.00     0.004 A 
HETATM   21  C12 UNL     1      25.978  -0.884  53.057  1.00  0.00     0.042 A 
HETATM   22  C13 UNL     1      24.773  -0.256  53.377  1.00  0.00     0.117 A 
HETATM   23  F1  UNL     1      23.839  -0.808  54.181  1.00  0.00    -0.206 F 
HETATM   24  C14 UNL     1      24.513   1.005  52.843  1.00  0.00     0.051 A 
ENDBRANCH  17  18
ENDBRANCH  16  17
ENDBRANCH   4  16
TORSDOF 8
ENDMDL
MODEL 8
REMARK VINA RESULT:      -6.9      4.480      7.872
REMARK  8 active torsions:
REMARK  status: ('A' for Active; 'I' for Inactive)
REMARK    1  A    between atoms: O1_1  and  C1_2 
REMARK    2  A    between atoms: C1_2  and  N1_3 
REMARK    3  A    between atoms: N2_5  and  C3_6 
REMARK    4  A    between atoms: C3_6  and  N3_7 
REMARK    5  A    between atoms: N3_7  and  C4_8 
REMARK    6  A    between atoms: C7_11  and  O2_12 
REMARK    7  A    between atoms: O2_12  and  C8_13 
REMARK    8  A    between atoms: C8_13  and  C9_14 
ROOT
HETATM    1  C4  UNL     1      24.362   0.509  53.132  1.00  0.00     0.032 A 
HETATM    2  C5  UNL     1      23.992   1.798  52.834  1.00  0.00     0.032 A 
HETATM    3  C6  UNL     1      24.757   2.669  52.092  1.00  0.00     0.039 A 
HETATM    4  C7  UNL     1      25.978   2.258  51.598  1.00  0.00     0.069 A 
HETATM    5  C15 UNL     1      26.404   0.976  51.862  1.00  0.00     0.039 A 
HETATM    6  C16 UNL     1      25.598   0.145  52.612  1.00  0.00     0.032 A 
ENDROOT
BRANCH   1   7
HETATM    7  N3  UNL     1      23.612  -0.419  53.896  1.00  0.00    -0.355 N 
HETATM    8  H6  UNL     1      23.921  -0.591  54.898  1.00  0.00     0.166 HD
BRANCH   7   9
HETATM    9  C3  UNL     1      22.487  -1.119  53.386  1.00  0.00     0.179 C 
BRANCH   9  10
HETATM   10  N2  UNL     1      21.319  -0.638  53.743  1.00  0.00    -0.146 NA
HETATM   11  C2  UNL     1      20.621   0.020  52.683  1.00  0.00     0.197 A 
HETATM   12  N1  UNL     1      19.811  -0.714  53.371  1.00  0.00    -0.276 N 
BRANCH  12  13
HETATM   13  C1  UNL     1      18.400  -0.817  53.064  1.00  0.00     0.309 C 
BRANCH  13  14
HETATM   14  O1  UNL     1      17.637  -1.324  54.093  1.00  0.00    -0.381 OA
HETATM   15  H1  UNL     1      17.429  -2.272  54.029  1.00  0.00     0.211 HD
ENDBRANCH  13  14
ENDBRANCH  12  13
ENDBRANCH   9  10
ENDBRANCH   7   9
ENDBRANCH   1   7
BRANCH   4  16
HETATM   16  O2  UNL     1      26.820   3.052  50.844  1.00  0.00    -0.347 OA
BRANCH  16  17
HETATM   17  C8  UNL     1      26.723   3.172  49.436  1.00  0.00     0.214 C 
BRANCH  17  18
HETATM   18  C9  UNL     1      26.984   4.571  49.028  1.00  0.00    -0.031 A 
HETATM   19  C10 UNL     1      28.166   5.029  48.490  1.00  0.00     0.009 A 
HETATM   20  C11 UNL     1      28.323   6.332  48.141  1.00  0.00     0.004 A 
HETATM   21  C12 UNL     1      27.331   7.285  48.293  1.00  0.00     0.042 A 
HETATM   22  C13 UNL     1      26.119   6.855  48.835  1.00  0.00     0.117 A 
HETATM   23  F1  UNL     1      25.064   7.674  49.039  1.00  0.00    -0.206 F 
HETATM   24  C14 UNL     1      25.983   5.513  49.186  1.00  0.00     0.051 A 
ENDBRANCH  17  18
ENDBRANCH  16  17
ENDBRANCH   4  16
TORSDOF 8
ENDMDL
MODEL 9
REMARK VINA RESULT:      -6.9      4.039      7.303
REMARK  8 active torsions:
REMARK  status: ('A' for Active; 'I' for Inactive)
REMARK    1  A    between atoms: O1_1  and  C1_2 
REMARK    2  A    between atoms: C1_2  and  N1_3 
REMARK    3  A    between atoms: N2_5  and  C3_6 
REMARK    4  A    between atoms: C3_6  and  N3_7 
REMARK    5  A    between atoms: N3_7  and  C4_8 
REMARK    6  A    between atoms: C7_11  and  O2_12 
REMARK    7  A    between atoms: O2_12  and  C8_13 
REMARK    8  A    between atoms: C8_13  and  C9_14 
ROOT
HETATM    1  C4  UNL     1      23.843   1.224  52.595  1.00  0.00     0.032 A 
HETATM    2  C5  UNL     1      24.359   2.425  53.019  1.00  0.00     0.032 A 
HETATM    3  C6  UNL     1      24.350   3.577  52.266  1.00  0.00     0.039 A 
HETATM    4  C7  UNL     1      23.798   3.565  51.002  1.00  0.00     0.069 A 
HETATM    5  C15 UNL     1      23.264   2.390  50.520  1.00  0.00     0.039 A 
HETATM    6  C16 UNL     1      23.299   1.265  51.317  1.00  0.00     0.032 A 
ENDROOT
BRANCH   1   7
HETATM    7  N3  UNL     1      23.835   0.013  53.332  1.00  0.00    -0.355 N 
HETATM    8  H6  UNL     1      22.903  -0.487  53.440  1.00  0.00     0.166 HD
BRANCH   7   9
HETATM    9  C3  UNL     1      24.998  -0.548  53.923  1.00  0.00     0.179 C 
BRANCH   9  10
HETATM   10  N2  UNL     1      25.908  -0.971  53.076  1.00  0.00    -0.146 NA
HETATM   11  C2  UNL     1      27.170  -0.315  53.216  1.00  0.00     0.197 A 
HETATM   12  N1  UNL     1      27.336  -1.584  53.038  1.00  0.00    -0.276 N 
BRANCH  12  13
HETATM   13  C1  UNL     1      28.644  -2.201  52.994  1.00  0.00     0.309 C 
BRANCH  13  14
HETATM   14  O1  UNL     1      28.654  -3.526  53.371  1.00  0.00    -0.381 OA
HETATM   15  H1  UNL     1      27.918  -3.800  53.946  1.00  0.00     0.211 HD
ENDBRANCH  13  14
ENDBRANCH  12  13
ENDBRANCH   9  10
ENDBRANCH   7   9
ENDBRANCH   1   7
BRANCH   4  16
HETATM   16  O2  UNL     1      23.739   4.664  50.167  1.00  0.00    -0.347 OA
BRANCH  16  17
HETATM   17  C8  UNL     1      24.459   5.861  50.402  1.00  0.00     0.214 C 
BRANCH  17  18
HETATM   18  C9  UNL     1      25.742   5.834  49.666  1.00  0.00    -0.031 A 
HETATM   19  C10 UNL     1      26.433   4.694  49.324  1.00  0.00     0.009 A 
HETATM   20  C11 UNL     1      27.608   4.758  48.645  1.00  0.00     0.004 A 
HETATM   21  C12 UNL     1      28.194   5.948  48.249  1.00  0.00     0.042 A 
HETATM   22  C13 UNL     1      27.519   7.124  48.578  1.00  0.00     0.117 A 
HETATM   23  F1  UNL     1      27.971   8.356  48.255  1.00  0.00    -0.206 F 
HETATM   24  C14 UNL     1      26.315   7.032  49.276  1.00  0.00     0.051 A 
ENDBRANCH  17  18
ENDBRANCH  16  17
ENDBRANCH   4  16
TORSDOF 8
ENDMDL
