MODEL 1
REMARK VINA RESULT:      -8.3      0.000      0.000
REMARK  0 active torsions:
REMARK  status: ('A' for Active; 'I' for Inactive)
ROOT
HETATM    1  O1  UNL     1      19.844  -0.564  52.584  1.00  0.00    -0.274 OA
HETATM    2  C1  UNL     1      18.735  -0.919  53.122  1.00  0.00     0.217 C 
HETATM    3  C2  UNL     1      17.598  -0.527  52.291  1.00  0.00     0.108 C 
HETATM    4  C3  UNL     1      17.934   0.315  51.115  1.00  0.00     0.011 C 
HETATM    5  C4  UNL     1      18.394   1.063  50.134  1.00  0.00     0.063 C 
HETATM    6  C5  UNL     1      19.539   1.737  49.564  1.00  0.00     0.097 C 
HETATM    7  F1  UNL     1      18.742   2.116  48.548  1.00  0.00    -0.211 F 
HETATM    8  C6  UNL     1      20.822   2.116  49.547  1.00  0.00     0.037 C 
HETATM    9  C7  UNL     1      22.197   2.295  49.916  1.00  0.00     0.159 A 
HETATM   10  C8  UNL     1      23.183   2.120  50.712  1.00  0.00     0.088 A 
HETATM   11 CL1  UNL     1      23.959   3.053  49.454  1.00  0.00    -0.153 Cl
HETATM   12  N1  UNL     1      23.825   1.675  51.844  1.00  0.00    -0.334 N 
HETATM   13  C9  UNL     1      24.545   0.745  52.565  1.00  0.00     0.137 A 
HETATM   14  N2  UNL     1      25.551   0.947  51.790  1.00  0.00    -0.224 NA
HETATM   15  C10 UNL     1      26.736   0.172  52.102  1.00  0.00     0.229 A 
HETATM   16  N3  UNL     1      26.752  -0.633  53.087  1.00  0.00    -0.278 NA
HETATM   17  C11 UNL     1      25.702  -0.911  54.013  1.00  0.00     0.192 A 
HETATM   18  C12 UNL     1      24.474  -0.180  53.651  1.00  0.00     0.004 A 
HETATM   19  C13 UNL     1      23.399  -0.505  54.342  1.00  0.00    -0.012 C 
HETATM   20  C14 UNL     1      21.955  -0.087  54.275  1.00  0.00     0.047 C 
HETATM   21  C15 UNL     1      21.188  -1.356  54.149  1.00  0.00     0.126 C 
HETATM   22  N4  UNL     1      19.785  -1.314  53.952  1.00  0.00    -0.361 N 
HETATM   23  H7  UNL     1      23.598   2.556  52.355  1.00  0.00     0.168 HD
HETATM   24  H16 UNL     1      19.061  -1.712  54.632  1.00  0.00     0.162 HD
ENDROOT
TORSDOF 0
ENDMDL
MODEL 2
REMARK VINA RESULT:      -8.3      3.473      7.017
REMARK  0 active torsions:
REMARK  status: ('A' for Active; 'I' for Inactive)
ROOT
HETATM    1  O1  UNL     1      23.903   2.616  50.455  1.00  0.00    -0.274 OA
HETATM    2  C1  UNL     1      24.538   3.543  49.837  1.00  0.00     0.217 C 
HETATM    3  C2  UNL     1      25.983   3.359  49.955  1.00  0.00     0.108 C 
HETATM    4  C3  UNL     1      26.411   2.268  50.867  1.00  0.00     0.011 C 
HETATM    5  C4  UNL     1      26.622   1.283  51.715  1.00  0.00     0.063 C 
HETATM    6  C5  UNL     1      26.037   0.349  52.651  1.00  0.00     0.097 C 
HETATM    7  F1  UNL     1      27.272  -0.151  52.840  1.00  0.00    -0.211 F 
HETATM    8  C6  UNL     1      25.016  -0.191  53.328  1.00  0.00     0.037 C 
HETATM    9  C7  UNL     1      23.697  -0.453  53.828  1.00  0.00     0.159 A 
HETATM   10  C8  UNL     1      22.443  -0.206  53.885  1.00  0.00     0.088 A 
HETATM   11 CL1  UNL     1      22.548  -1.555  54.992  1.00  0.00    -0.153 Cl
HETATM   12  N1  UNL     1      21.275   0.459  53.594  1.00  0.00    -0.334 N 
HETATM   13  C9  UNL     1      20.128   0.665  52.855  1.00  0.00     0.137 A 
HETATM   14  N2  UNL     1      19.660  -0.446  53.303  1.00  0.00    -0.224 NA
HETATM   15  C10 UNL     1      18.333  -0.789  52.832  1.00  0.00     0.229 A 
HETATM   16  N3  UNL     1      17.697  -0.020  52.042  1.00  0.00    -0.278 NA
HETATM   17  C11 UNL     1      18.119   1.235  51.508  1.00  0.00     0.192 A 
HETATM   18  C12 UNL     1      19.497   1.549  51.928  1.00  0.00     0.004 A 
HETATM   19  C13 UNL     1      20.039   2.601  51.346  1.00  0.00    -0.012 C 
HETATM   20  C14 UNL     1      21.401   3.234  51.405  1.00  0.00     0.047 C 
HETATM   21  C15 UNL     1      21.857   3.310  49.991  1.00  0.00     0.126 C 
HETATM   22  N4  UNL     1      23.167   3.765  49.696  1.00  0.00    -0.361 N 
HETATM   23  H7  UNL     1      21.419   1.119  54.389  1.00  0.00     0.168 HD
HETATM   24  H16 UNL     1      23.396   4.642  49.128  1.00  0.00     0.162 HD
ENDROOT
TORSDOF 0
ENDMDL
MODEL 3
REMARK VINA RESULT:      -8.1      3.716      7.174
REMARK  0 active torsions:
REMARK  status: ('A' for Active; 'I' for Inactive)
ROOT
HETATM    1  O1  UNL     1      26.327   1.752  52.255  1.00  0.00    -0.274 OA
HETATM    2  C1  UNL     1      27.493   2.095  52.664  1.00  0.00     0.217 C 
HETATM    3  C2  UNL     1      27.907   1.286  53.809  1.00  0.00     0.108 C 
HETATM    4  C3  UNL     1      26.868   0.373  54.350  1.00  0.00     0.011 C 
HETATM    5  C4  UNL     1      25.839  -0.362  54.714  1.00  0.00     0.063 C 
HETATM    6  C5  UNL     1      24.437  -0.659  54.520  1.00  0.00     0.097 C 
HETATM    7  F1  UNL     1      24.567  -1.621  55.452  1.00  0.00    -0.211 F 
HETATM    8  C6  UNL     1      23.240  -0.477  53.950  1.00  0.00     0.037 C 
HETATM    9  C7  UNL     1      22.186   0.040  53.125  1.00  0.00     0.159 A 
HETATM   10  C8  UNL     1      21.738   0.853  52.245  1.00  0.00     0.088 A 
HETATM   11 CL1  UNL     1      20.297  -0.080  52.570  1.00  0.00    -0.153 Cl
HETATM   12  N1  UNL     1      21.790   1.899  51.354  1.00  0.00    -0.334 N 
HETATM   13  C9  UNL     1      22.002   2.440  50.102  1.00  0.00     0.137 A 
HETATM   14  N2  UNL     1      20.957   1.822  49.677  1.00  0.00    -0.224 NA
HETATM   15  C10 UNL     1      20.635   2.044  48.281  1.00  0.00     0.229 A 
HETATM   16  N3  UNL     1      21.348   2.810  47.557  1.00  0.00    -0.278 NA
HETATM   17  C11 UNL     1      22.507   3.552  47.937  1.00  0.00     0.192 A 
HETATM   18  C12 UNL     1      22.877   3.268  49.336  1.00  0.00     0.004 A 
HETATM   19  C13 UNL     1      24.032   3.770  49.727  1.00  0.00    -0.012 C 
HETATM   20  C14 UNL     1      24.826   3.680  51.001  1.00  0.00     0.047 C 
HETATM   21  C15 UNL     1      26.171   3.195  50.589  1.00  0.00     0.126 C 
HETATM   22  N4  UNL     1      27.144   2.895  51.575  1.00  0.00    -0.361 N 
HETATM   23  H7  UNL     1      21.513   2.581  52.093  1.00  0.00     0.168 HD
HETATM   24  H16 UNL     1      28.082   3.398  51.681  1.00  0.00     0.162 HD
ENDROOT
TORSDOF 0
ENDMDL
MODEL 4
REMARK VINA RESULT:      -8.1      2.917      5.079
REMARK  0 active torsions:
REMARK  status: ('A' for Active; 'I' for Inactive)
ROOT
HETATM    1  O1  UNL     1      20.422   0.646  52.067  1.00  0.00    -0.274 OA
HETATM    2  C1  UNL     1      19.256   0.113  52.019  1.00  0.00     0.217 C 
HETATM    3  C2  UNL     1      19.074  -0.851  53.103  1.00  0.00     0.108 C 
HETATM    4  C3  UNL     1      20.286  -1.129  53.915  1.00  0.00     0.011 C 
HETATM    5  C4  UNL     1      21.445  -1.273  54.522  1.00  0.00     0.063 C 
HETATM    6  C5  UNL     1      22.854  -0.947  54.528  1.00  0.00     0.097 C 
HETATM    7  F1  UNL     1      22.957  -1.656  55.667  1.00  0.00    -0.211 F 
HETATM    8  C6  UNL     1      23.954  -0.369  54.032  1.00  0.00     0.037 C 
HETATM    9  C7  UNL     1      24.839   0.380  53.186  1.00  0.00     0.159 A 
HETATM   10  C8  UNL     1      25.076   1.086  52.146  1.00  0.00     0.088 A 
HETATM   11 CL1  UNL     1      26.668   1.044  52.865  1.00  0.00    -0.153 Cl
HETATM   12  N1  UNL     1      24.784   1.728  50.965  1.00  0.00    -0.334 N 
HETATM   13  C9  UNL     1      24.383   2.821  50.226  1.00  0.00     0.137 A 
HETATM   14  N2  UNL     1      25.471   3.423  50.556  1.00  0.00    -0.224 NA
HETATM   15  C10 UNL     1      25.632   4.753  50.004  1.00  0.00     0.229 A 
HETATM   16  N3  UNL     1      24.749   5.258  49.240  1.00  0.00    -0.278 NA
HETATM   17  C11 UNL     1      23.525   4.668  48.800  1.00  0.00     0.192 A 
HETATM   18  C12 UNL     1      23.326   3.345  49.421  1.00  0.00     0.004 A 
HETATM   19  C13 UNL     1      22.145   2.797  49.215  1.00  0.00    -0.012 C 
HETATM   20  C14 UNL     1      21.489   1.532  49.696  1.00  0.00     0.047 C 
HETATM   21  C15 UNL     1      20.205   1.968  50.310  1.00  0.00     0.126 C 
HETATM   22  N4  UNL     1      19.380   1.021  50.966  1.00  0.00    -0.361 N 
HETATM   23  H7  UNL     1      25.014   0.874  50.411  1.00  0.00     0.168 HD
HETATM   24  H16 UNL     1      18.387   0.761  50.663  1.00  0.00     0.162 HD
ENDROOT
TORSDOF 0
ENDMDL
MODEL 5
REMARK VINA RESULT:      -8.0      3.896      6.313
REMARK  0 active torsions:
REMARK  status: ('A' for Active; 'I' for Inactive)
ROOT
HETATM    1  O1  UNL     1      22.754   1.538  52.793  1.00  0.00    -0.274 OA
HETATM    2  C1  UNL     1      22.076   0.585  53.318  1.00  0.00     0.217 C 
HETATM    3  C2  UNL     1      22.942  -0.530  53.697  1.00  0.00     0.108 C 
HETATM    4  C3  UNL     1      24.358  -0.407  53.268  1.00  0.00     0.011 C 
HETATM    5  C4  UNL     1      25.564  -0.154  52.803  1.00  0.00     0.063 C 
HETATM    6  C5  UNL     1      26.391   0.721  52.003  1.00  0.00     0.097 C 
HETATM    7  F1  UNL     1      27.438  -0.056  52.333  1.00  0.00    -0.211 F 
HETATM    8  C6  UNL     1      26.601   1.777  51.207  1.00  0.00     0.037 C 
HETATM    9  C7  UNL     1      26.383   2.951  50.413  1.00  0.00     0.159 A 
HETATM   10  C8  UNL     1      25.623   3.851  49.915  1.00  0.00     0.088 A 
HETATM   11 CL1  UNL     1      27.167   4.358  49.273  1.00  0.00    -0.153 Cl
HETATM   12  N1  UNL     1      24.436   4.497  49.657  1.00  0.00    -0.334 N 
HETATM   13  C9  UNL     1      23.458   5.429  49.933  1.00  0.00     0.137 A 
HETATM   14  N2  UNL     1      24.297   6.366  49.662  1.00  0.00    -0.224 NA
HETATM   15  C10 UNL     1      23.775   7.713  49.777  1.00  0.00     0.229 A 
HETATM   16  N3  UNL     1      22.566   7.922  50.112  1.00  0.00    -0.278 NA
HETATM   17  C11 UNL     1      21.557   6.958  50.413  1.00  0.00     0.192 A 
HETATM   18  C12 UNL     1      22.107   5.590  50.368  1.00  0.00     0.004 A 
HETATM   19  C13 UNL     1      21.298   4.643  50.801  1.00  0.00    -0.012 C 
HETATM   20  C14 UNL     1      21.450   3.160  51.001  1.00  0.00     0.047 C 
HETATM   21  C15 UNL     1      21.069   2.918  52.419  1.00  0.00     0.126 C 
HETATM   22  N4  UNL     1      21.206   1.620  52.973  1.00  0.00    -0.361 N 
HETATM   23  H7  UNL     1      24.273   3.919  48.804  1.00  0.00     0.168 HD
HETATM   24  H16 UNL     1      20.397   1.025  53.342  1.00  0.00     0.162 HD
ENDROOT
TORSDOF 0
ENDMDL
MODEL 6
REMARK VINA RESULT:      -8.0      3.146      4.975
REMARK  0 active torsions:
REMARK  status: ('A' for Active; 'I' for Inactive)
ROOT
HETATM    1  O1  UNL     1      23.333   4.118  50.730  1.00  0.00    -0.274 OA
HETATM    2  C1  UNL     1      23.095   4.937  49.772  1.00  0.00     0.217 C 
HETATM    3  C2  UNL     1      21.658   5.153  49.610  1.00  0.00     0.108 C 
HETATM    4  C3  UNL     1      20.789   4.289  50.448  1.00  0.00     0.011 C 
HETATM    5  C4  UNL     1      20.165   3.443  51.241  1.00  0.00     0.063 C 
HETATM    6  C5  UNL     1      20.286   2.327  52.152  1.00  0.00     0.097 C 
HETATM    7  F1  UNL     1      18.955   2.400  52.332  1.00  0.00    -0.211 F 
HETATM    8  C6  UNL     1      20.972   1.388  52.813  1.00  0.00     0.037 C 
HETATM    9  C7  UNL     1      22.047   0.570  53.297  1.00  0.00     0.159 A 
HETATM   10  C8  UNL     1      23.281   0.235  53.333  1.00  0.00     0.088 A 
HETATM   11 CL1  UNL     1      22.612  -0.915  54.467  1.00  0.00    -0.153 Cl
HETATM   12  N1  UNL     1      24.612   0.289  52.992  1.00  0.00    -0.334 N 
HETATM   13  C9  UNL     1      25.904   0.747  53.146  1.00  0.00     0.137 A 
HETATM   14  N2  UNL     1      25.976   0.118  54.266  1.00  0.00    -0.224 NA
HETATM   15  C10 UNL     1      27.245   0.232  54.957  1.00  0.00     0.229 A 
HETATM   16  N3  UNL     1      28.204   0.904  54.461  1.00  0.00    -0.278 NA
HETATM   17  C11 UNL     1      28.232   1.617  53.224  1.00  0.00     0.192 A 
HETATM   18  C12 UNL     1      26.918   1.562  52.557  1.00  0.00     0.004 A 
HETATM   19  C13 UNL     1      26.791   2.335  51.495  1.00  0.00    -0.012 C 
HETATM   20  C14 UNL     1      25.648   2.650  50.570  1.00  0.00     0.047 C 
HETATM   21  C15 UNL     1      25.537   4.133  50.579  1.00  0.00     0.126 C 
HETATM   22  N4  UNL     1      24.475   4.765  49.885  1.00  0.00    -0.361 N 
HETATM   23  H7  UNL     1      24.472  -0.396  52.218  1.00  0.00     0.168 HD
HETATM   24  H16 UNL     1      24.598   5.436  49.061  1.00  0.00     0.162 HD
ENDROOT
TORSDOF 0
ENDMDL
MODEL 7
REMARK VINA RESULT:      -7.7      2.725      4.354
REMARK  0 active torsions:
REMARK  status: ('A' for Active; 'I' for Inactive)
ROOT
HETATM    1  O1  UNL     1      19.442   1.280  50.634  1.00  0.00    -0.274 OA
HETATM    2  C1  UNL     1      18.562   1.445  49.716  1.00  0.00     0.217 C 
HETATM    3  C2  UNL     1      17.310   0.775  50.064  1.00  0.00     0.108 C 
HETATM    4  C3  UNL     1      17.358  -0.065  51.287  1.00  0.00     0.011 C 
HETATM    5  C4  UNL     1      17.572  -0.775  52.375  1.00  0.00     0.063 C 
HETATM    6  C5  UNL     1      18.542  -1.246  53.339  1.00  0.00     0.097 C 
HETATM    7  F1  UNL     1      17.526  -1.848  53.984  1.00  0.00    -0.211 F 
HETATM    8  C6  UNL     1      19.777  -1.363  53.839  1.00  0.00     0.037 C 
HETATM    9  C7  UNL     1      21.196  -1.237  54.013  1.00  0.00     0.159 A 
HETATM   10  C8  UNL     1      22.345  -0.813  53.643  1.00  0.00     0.088 A 
HETATM   11 CL1  UNL     1      22.782  -1.661  55.108  1.00  0.00    -0.153 Cl
HETATM   12  N1  UNL     1      23.249  -0.169  52.831  1.00  0.00    -0.334 N 
HETATM   13  C9  UNL     1      23.969   0.935  52.425  1.00  0.00     0.137 A 
HETATM   14  N2  UNL     1      24.637   0.882  53.523  1.00  0.00    -0.224 NA
HETATM   15  C10 UNL     1      25.661   1.898  53.670  1.00  0.00     0.229 A 
HETATM   16  N3  UNL     1      25.868   2.758  52.756  1.00  0.00    -0.278 NA
HETATM   17  C11 UNL     1      25.199   2.888  51.502  1.00  0.00     0.192 A 
HETATM   18  C12 UNL     1      24.108   1.902  51.384  1.00  0.00     0.004 A 
HETATM   19  C13 UNL     1      23.321   2.056  50.338  1.00  0.00    -0.012 C 
HETATM   20  C14 UNL     1      22.078   1.355  49.862  1.00  0.00     0.047 C 
HETATM   21  C15 UNL     1      21.068   2.434  49.680  1.00  0.00     0.126 C 
HETATM   22  N4  UNL     1      19.735   2.100  49.337  1.00  0.00    -0.361 N 
HETATM   23  H7  UNL     1      23.417  -1.039  52.280  1.00  0.00     0.168 HD
HETATM   24  H16 UNL     1      19.244   2.393  48.432  1.00  0.00     0.162 HD
ENDROOT
TORSDOF 0
ENDMDL
MODEL 8
REMARK VINA RESULT:      -7.6      3.691      7.215
REMARK  0 active torsions:
REMARK  status: ('A' for Active; 'I' for Inactive)
ROOT
HETATM    1  O1  UNL     1      25.750   2.252  51.326  1.00  0.00    -0.274 OA
HETATM    2  C1  UNL     1      26.912   2.501  51.808  1.00  0.00     0.217 C 
HETATM    3  C2  UNL     1      27.231   1.591  52.907  1.00  0.00     0.108 C 
HETATM    4  C3  UNL     1      26.123   0.701  53.335  1.00  0.00     0.011 C 
HETATM    5  C4  UNL     1      25.041  -0.000  53.602  1.00  0.00     0.063 C 
HETATM    6  C5  UNL     1      23.636  -0.205  53.328  1.00  0.00     0.097 C 
HETATM    7  F1  UNL     1      23.674  -1.236  54.192  1.00  0.00    -0.211 F 
HETATM    8  C6  UNL     1      22.477   0.082  52.723  1.00  0.00     0.037 C 
HETATM    9  C7  UNL     1      21.491   0.713  51.894  1.00  0.00     0.159 A 
HETATM   10  C8  UNL     1      21.126   1.610  51.058  1.00  0.00     0.088 A 
HETATM   11 CL1  UNL     1      19.625   0.737  51.254  1.00  0.00    -0.153 Cl
HETATM   12  N1  UNL     1      21.273   2.712  50.249  1.00  0.00    -0.334 N 
HETATM   13  C9  UNL     1      21.569   3.328  49.050  1.00  0.00     0.137 A 
HETATM   14  N2  UNL     1      20.515   2.800  48.538  1.00  0.00    -0.224 NA
HETATM   15  C10 UNL     1      20.269   3.137  47.149  1.00  0.00     0.229 A 
HETATM   16  N3  UNL     1      21.053   3.912  46.514  1.00  0.00    -0.278 NA
HETATM   17  C11 UNL     1      22.230   4.560  46.995  1.00  0.00     0.192 A 
HETATM   18  C12 UNL     1      22.521   4.159  48.384  1.00  0.00     0.004 A 
HETATM   19  C13 UNL     1      23.681   4.567  48.858  1.00  0.00    -0.012 C 
HETATM   20  C14 UNL     1      24.410   4.344  50.155  1.00  0.00     0.047 C 
HETATM   21  C15 UNL     1      25.745   3.816  49.765  1.00  0.00     0.126 C 
HETATM   22  N4  UNL     1      26.655   3.394  50.767  1.00  0.00    -0.361 N 
HETATM   23  H7  UNL     1      20.998   3.354  51.024  1.00  0.00     0.168 HD
HETATM   24  H16 UNL     1      27.613   3.836  50.948  1.00  0.00     0.162 HD
ENDROOT
TORSDOF 0
ENDMDL
MODEL 9
REMARK VINA RESULT:      -7.3      3.945      7.059
REMARK  0 active torsions:
REMARK  status: ('A' for Active; 'I' for Inactive)
ROOT
HETATM    1  O1  UNL     1      23.815   2.565  52.288  1.00  0.00    -0.274 OA
HETATM    2  C1  UNL     1      24.984   2.658  52.806  1.00  0.00     0.217 C 
HETATM    3  C2  UNL     1      25.397   1.388  53.401  1.00  0.00     0.108 C 
HETATM    4  C3  UNL     1      24.355   0.331  53.428  1.00  0.00     0.011 C 
HETATM    5  C4  UNL     1      23.322  -0.484  53.389  1.00  0.00     0.063 C 
HETATM    6  C5  UNL     1      21.918  -0.642  53.082  1.00  0.00     0.097 C 
HETATM    7  F1  UNL     1      22.046  -1.938  53.418  1.00  0.00    -0.211 F 
HETATM    8  C6  UNL     1      20.720  -0.198  52.682  1.00  0.00     0.037 C 
HETATM    9  C7  UNL     1      19.667   0.662  52.225  1.00  0.00     0.159 A 
HETATM   10  C8  UNL     1      19.221   1.805  51.862  1.00  0.00     0.088 A 
HETATM   11 CL1  UNL     1      17.775   0.839  51.694  1.00  0.00    -0.153 Cl
HETATM   12  N1  UNL     1      19.277   3.154  51.602  1.00  0.00    -0.334 N 
HETATM   13  C9  UNL     1      19.487   4.241  50.778  1.00  0.00     0.137 A 
HETATM   14  N2  UNL     1      18.438   3.917  50.110  1.00  0.00    -0.224 NA
HETATM   15  C10 UNL     1      18.113   4.799  49.006  1.00  0.00     0.229 A 
HETATM   16  N3  UNL     1      18.828   5.819  48.750  1.00  0.00    -0.278 NA
HETATM   17  C11 UNL     1      19.992   6.273  49.439  1.00  0.00     0.192 A 
HETATM   18  C12 UNL     1      20.365   5.336  50.515  1.00  0.00     0.004 A 
HETATM   19  C13 UNL     1      21.525   5.575  51.095  1.00  0.00    -0.012 C 
HETATM   20  C14 UNL     1      22.322   4.867  52.156  1.00  0.00     0.047 C 
HETATM   21  C15 UNL     1      23.663   4.642  51.551  1.00  0.00     0.126 C 
HETATM   22  N4  UNL     1      24.637   3.892  52.255  1.00  0.00    -0.361 N 
HETATM   23  H7  UNL     1      19.006   3.384  52.583  1.00  0.00     0.168 HD
HETATM   24  H16 UNL     1      25.579   4.274  52.590  1.00  0.00     0.162 HD
ENDROOT
TORSDOF 0
ENDMDL
