MODEL 1
REMARK VINA RESULT:      -8.7      0.000      0.000
REMARK  3 active torsions:
REMARK  status: ('A' for Active; 'I' for Inactive)
REMARK    1  A    between atoms: C2_2  and  C3_3 
REMARK    2  A    between atoms: C4_5  and  C5_6 
REMARK    3  A    between atoms: C12_17  and  O1_18 
ROOT
HETATM    1  C5  UNL     1      26.232  -0.071  54.693  1.00  0.00     0.047 C 
HETATM    2  C6  UNL     1      25.119  -0.776  54.996  1.00  0.00     0.055 C 
HETATM    3  C7  UNL     1      23.945  -0.718  54.204  1.00  0.00     0.042 A 
HETATM    4  N1  UNL     1      24.254  -0.271  53.077  1.00  0.00    -0.329 N 
HETATM    5  C8  UNL     1      25.421   0.121  52.477  1.00  0.00     0.206 C 
HETATM    6  N2  UNL     1      26.457   0.832  52.003  1.00  0.00    -0.263 NA
HETATM    7  C9  UNL     1      26.146   2.272  52.402  1.00  0.00     0.298 C 
HETATM    8  N3  UNL     1      24.957   1.960  53.255  1.00  0.00    -0.272 N 
HETATM    9  N4  UNL     1      25.562   1.149  54.201  1.00  0.00    -0.299 N 
HETATM   10  C10 UNL     1      23.721   2.454  52.837  1.00  0.00     0.065 A 
HETATM   11  C11 UNL     1      23.815   3.806  52.704  1.00  0.00     0.068 A 
HETATM   12  C12 UNL     1      22.742   4.552  52.279  1.00  0.00     0.068 A 
HETATM   13  C13 UNL     1      21.585   3.871  51.997  1.00  0.00     0.037 A 
HETATM   14  C14 UNL     1      21.526   2.501  52.142  1.00  0.00     0.016 A 
HETATM   15  C15 UNL     1      22.604   1.708  52.576  1.00  0.00    -0.009 A 
HETATM   16  C16 UNL     1      22.119   0.343  52.651  1.00  0.00     0.018 C 
HETATM   17  C17 UNL     1      22.753  -0.622  53.377  1.00  0.00     0.164 A 
HETATM   18  H9  UNL     1      25.338   1.943  54.857  1.00  0.00     0.187 HD
ENDROOT
BRANCH   1  19
HETATM   19  C4  UNL     1      27.537   0.604  54.535  1.00  0.00     0.191 A 
HETATM   20  C3  UNL     1      28.665  -0.036  54.178  1.00  0.00     0.036 A 
HETATM   21 CL1  UNL     1      29.384   1.579  54.297  1.00  0.00    -0.203 Cl
BRANCH  20  22
HETATM   22  C2  UNL     1      29.765  -0.927  53.783  1.00  0.00     0.011 C 
HETATM   23  C1  UNL     1      29.842  -2.158  53.388  1.00  0.00     0.007 C 
ENDBRANCH  20  22
ENDBRANCH   1  19
BRANCH  12  24
HETATM   24  O1  UNL     1      22.789   5.937  52.129  1.00  0.00    -0.361 OA
HETATM   25  H11 UNL     1      23.590   6.486  52.406  1.00  0.00     0.217 HD
ENDBRANCH  12  24
TORSDOF 3
ENDMDL
MODEL 2
REMARK VINA RESULT:      -8.4      3.285      5.378
REMARK  3 active torsions:
REMARK  status: ('A' for Active; 'I' for Inactive)
REMARK    1  A    between atoms: C2_2  and  C3_3 
REMARK    2  A    between atoms: C4_5  and  C5_6 
REMARK    3  A    between atoms: C12_17  and  O1_18 
ROOT
HETATM    1  C5  UNL     1      23.425   3.344  49.604  1.00  0.00     0.047 C 
HETATM    2  C6  UNL     1      22.633   2.315  49.228  1.00  0.00     0.055 C 
HETATM    3  C7  UNL     1      22.063   1.416  50.164  1.00  0.00     0.042 A 
HETATM    4  N1  UNL     1      22.093   1.953  51.293  1.00  0.00    -0.329 N 
HETATM    5  C8  UNL     1      22.507   3.164  51.779  1.00  0.00     0.206 C 
HETATM    6  N2  UNL     1      23.217   4.166  52.321  1.00  0.00    -0.263 NA
HETATM    7  C9  UNL     1      24.561   3.535  52.674  1.00  0.00     0.298 C 
HETATM    8  N3  UNL     1      24.312   2.219  52.006  1.00  0.00    -0.272 N 
HETATM    9  N4  UNL     1      24.130   2.655  50.704  1.00  0.00    -0.299 N 
HETATM   10  C10 UNL     1      24.257   1.087  52.821  1.00  0.00     0.065 A 
HETATM   11  C11 UNL     1      25.420   1.002  53.525  1.00  0.00     0.068 A 
HETATM   12  C12 UNL     1      25.627  -0.012  54.428  1.00  0.00     0.068 A 
HETATM   13  C13 UNL     1      24.613  -0.923  54.583  1.00  0.00     0.037 A 
HETATM   14  C14 UNL     1      23.450  -0.805  53.854  1.00  0.00     0.016 A 
HETATM   15  C15 UNL     1      23.205   0.220  52.921  1.00  0.00    -0.009 A 
HETATM   16  C16 UNL     1      21.906  -0.047  52.334  1.00  0.00     0.018 C 
HETATM   17  C17 UNL     1      21.509   0.502  51.150  1.00  0.00     0.164 A 
HETATM   18  H9  UNL     1      25.029   2.135  50.526  1.00  0.00     0.187 HD
ENDROOT
BRANCH   1  19
HETATM   19  C4  UNL     1      24.299   4.518  49.805  1.00  0.00     0.191 A 
HETATM   20  C3  UNL     1      25.595   4.550  49.444  1.00  0.00     0.036 A 
HETATM   21 CL1  UNL     1      25.527   6.202  50.081  1.00  0.00    -0.203 Cl
BRANCH  20  22
HETATM   22  C2  UNL     1      26.976   4.366  48.978  1.00  0.00     0.011 C 
HETATM   23  C1  UNL     1      27.917   5.163  48.582  1.00  0.00     0.007 C 
ENDBRANCH  20  22
ENDBRANCH   1  19
BRANCH  12  24
HETATM   24  O1  UNL     1      26.800  -0.143  55.170  1.00  0.00    -0.361 OA
HETATM   25  H11 UNL     1      27.086   0.539  55.858  1.00  0.00     0.217 HD
ENDBRANCH  12  24
TORSDOF 3
ENDMDL
MODEL 3
REMARK VINA RESULT:      -8.2      3.432      5.850
REMARK  3 active torsions:
REMARK  status: ('A' for Active; 'I' for Inactive)
REMARK    1  A    between atoms: C2_2  and  C3_3 
REMARK    2  A    between atoms: C4_5  and  C5_6 
REMARK    3  A    between atoms: C12_17  and  O1_18 
ROOT
HETATM    1  C5  UNL     1      22.841   2.180  49.863  1.00  0.00     0.047 C 
HETATM    2  C6  UNL     1      21.739   1.440  49.608  1.00  0.00     0.055 C 
HETATM    3  C7  UNL     1      20.930   0.903  50.642  1.00  0.00     0.042 A 
HETATM    4  N1  UNL     1      21.174   1.530  51.696  1.00  0.00    -0.329 N 
HETATM    5  C8  UNL     1      21.984   2.580  52.033  1.00  0.00     0.206 C 
HETATM    6  N2  UNL     1      23.006   3.343  52.456  1.00  0.00    -0.263 NA
HETATM    7  C9  UNL     1      24.071   2.343  52.898  1.00  0.00     0.298 C 
HETATM    8  N3  UNL     1      23.376   1.118  52.395  1.00  0.00    -0.272 N 
HETATM    9  N4  UNL     1      23.309   1.431  51.047  1.00  0.00    -0.299 N 
HETATM   10  C10 UNL     1      22.971   0.176  53.342  1.00  0.00     0.065 A 
HETATM   11  C11 UNL     1      24.059  -0.210  54.063  1.00  0.00     0.068 A 
HETATM   12  C12 UNL     1      23.944  -1.119  55.086  1.00  0.00     0.068 A 
HETATM   13  C13 UNL     1      22.689  -1.612  55.342  1.00  0.00     0.037 A 
HETATM   14  C14 UNL     1      21.610  -1.197  54.591  1.00  0.00     0.016 A 
HETATM   15  C15 UNL     1      21.692  -0.269  53.536  1.00  0.00    -0.009 A 
HETATM   16  C16 UNL     1      20.361  -0.152  52.973  1.00  0.00     0.018 C 
HETATM   17  C17 UNL     1      20.134   0.353  51.727  1.00  0.00     0.164 A 
HETATM   18  H9  UNL     1      23.977   0.622  50.944  1.00  0.00     0.187 HD
ENDROOT
BRANCH   1  19
HETATM   19  C4  UNL     1      24.063   3.007  49.927  1.00  0.00     0.191 A 
HETATM   20  C3  UNL     1      24.178   4.210  49.334  1.00  0.00     0.036 A 
HETATM   21 CL1  UNL     1      25.803   4.183  50.038  1.00  0.00    -0.203 Cl
BRANCH  20  22
HETATM   22  C2  UNL     1      24.083   5.488  48.614  1.00  0.00     0.011 C 
HETATM   23  C1  UNL     1      23.205   6.027  47.830  1.00  0.00     0.007 C 
ENDBRANCH  20  22
ENDBRANCH   1  19
BRANCH  12  24
HETATM   24  O1  UNL     1      25.028  -1.547  55.851  1.00  0.00    -0.361 OA
HETATM   25  H11 UNL     1      25.610  -2.326  55.579  1.00  0.00     0.217 HD
ENDBRANCH  12  24
TORSDOF 3
ENDMDL
MODEL 4
REMARK VINA RESULT:      -8.1      2.275      3.616
REMARK  3 active torsions:
REMARK  status: ('A' for Active; 'I' for Inactive)
REMARK    1  A    between atoms: C2_2  and  C3_3 
REMARK    2  A    between atoms: C4_5  and  C5_6 
REMARK    3  A    between atoms: C12_17  and  O1_18 
ROOT
HETATM    1  C5  UNL     1      27.211   1.586  51.966  1.00  0.00     0.047 C 
HETATM    2  C6  UNL     1      26.480   2.068  50.937  1.00  0.00     0.055 C 
HETATM    3  C7  UNL     1      25.117   2.434  51.079  1.00  0.00     0.042 A 
HETATM    4  N1  UNL     1      24.880   2.599  52.296  1.00  0.00    -0.329 N 
HETATM    5  C8  UNL     1      25.623   2.534  53.445  1.00  0.00     0.206 C 
HETATM    6  N2  UNL     1      26.220   2.132  54.578  1.00  0.00    -0.263 NA
HETATM    7  C9  UNL     1      25.756   0.690  54.765  1.00  0.00     0.298 C 
HETATM    8  N3  UNL     1      25.068   0.560  53.442  1.00  0.00    -0.272 N 
HETATM    9  N4  UNL     1      26.146   0.783  52.601  1.00  0.00    -0.299 N 
HETATM   10  C10 UNL     1      23.686   0.362  53.455  1.00  0.00     0.065 A 
HETATM   11  C11 UNL     1      23.413  -0.747  54.196  1.00  0.00     0.068 A 
HETATM   12  C12 UNL     1      22.119  -1.163  54.395  1.00  0.00     0.068 A 
HETATM   13  C13 UNL     1      21.128  -0.410  53.817  1.00  0.00     0.037 A 
HETATM   14  C14 UNL     1      21.443   0.707  53.075  1.00  0.00     0.016 A 
HETATM   15  C15 UNL     1      22.756   1.161  52.849  1.00  0.00    -0.009 A 
HETATM   16  C16 UNL     1      22.658   2.317  51.979  1.00  0.00     0.018 C 
HETATM   17  C17 UNL     1      23.717   2.782  51.257  1.00  0.00     0.164 A 
HETATM   18  H9  UNL     1      26.003  -0.227  52.338  1.00  0.00     0.187 HD
ENDROOT
BRANCH   1  19
HETATM   19  C4  UNL     1      28.174   1.054  52.952  1.00  0.00     0.191 A 
HETATM   20  C3  UNL     1      28.466  -0.254  53.075  1.00  0.00     0.036 A 
HETATM   21 CL1  UNL     1      29.560   0.312  54.348  1.00  0.00    -0.203 Cl
BRANCH  20  22
HETATM   22  C2  UNL     1      28.630  -1.714  53.036  1.00  0.00     0.011 C 
HETATM   23  C1  UNL     1      27.850  -2.710  52.758  1.00  0.00     0.007 C 
ENDBRANCH  20  22
ENDBRANCH   1  19
BRANCH  12  24
HETATM   24  O1  UNL     1      21.789  -2.292  55.143  1.00  0.00    -0.361 OA
HETATM   25  H11 UNL     1      21.916  -3.231  54.794  1.00  0.00     0.217 HD
ENDBRANCH  12  24
TORSDOF 3
ENDMDL
MODEL 5
REMARK VINA RESULT:      -7.9      2.222      3.514
REMARK  3 active torsions:
REMARK  status: ('A' for Active; 'I' for Inactive)
REMARK    1  A    between atoms: C2_2  and  C3_3 
REMARK    2  A    between atoms: C4_5  and  C5_6 
REMARK    3  A    between atoms: C12_17  and  O1_18 
ROOT
HETATM    1  C5  UNL     1      26.404   1.011  51.679  1.00  0.00     0.047 C 
HETATM    2  C6  UNL     1      26.314   2.270  51.195  1.00  0.00     0.055 C 
HETATM    3  C7  UNL     1      25.289   3.164  51.593  1.00  0.00     0.042 A 
HETATM    4  N1  UNL     1      24.798   2.746  52.665  1.00  0.00    -0.329 N 
HETATM    5  C8  UNL     1      25.050   1.689  53.498  1.00  0.00     0.206 C 
HETATM    6  N2  UNL     1      25.032   0.499  54.120  1.00  0.00    -0.263 NA
HETATM    7  C9  UNL     1      23.938  -0.289  53.404  1.00  0.00     0.298 C 
HETATM    8  N3  UNL     1      23.698   0.704  52.312  1.00  0.00    -0.272 N 
HETATM    9  N4  UNL     1      24.958   0.721  51.736  1.00  0.00    -0.299 N 
HETATM   10  C10 UNL     1      22.442   1.312  52.264  1.00  0.00     0.065 A 
HETATM   11  C11 UNL     1      21.492   0.340  52.181  1.00  0.00     0.068 A 
HETATM   12  C12 UNL     1      20.156   0.658  52.143  1.00  0.00     0.068 A 
HETATM   13  C13 UNL     1      19.833   1.991  52.193  1.00  0.00     0.037 A 
HETATM   14  C14 UNL     1      20.822   2.947  52.277  1.00  0.00     0.016 A 
HETATM   15  C15 UNL     1      22.199   2.657  52.317  1.00  0.00    -0.009 A 
HETATM   16  C16 UNL     1      22.896   3.928  52.344  1.00  0.00     0.018 C 
HETATM   17  C17 UNL     1      24.213   4.049  52.011  1.00  0.00     0.164 A 
HETATM   18  H9  UNL     1      24.462   0.282  50.916  1.00  0.00     0.187 HD
ENDROOT
BRANCH   1  19
HETATM   19  C4  UNL     1      26.681  -0.382  52.086  1.00  0.00     0.191 A 
HETATM   20  C3  UNL     1      27.797  -0.757  52.738  1.00  0.00     0.036 A 
HETATM   21 CL1  UNL     1      27.056  -2.365  52.676  1.00  0.00    -0.203 Cl
BRANCH  20  22
HETATM   22  C2  UNL     1      29.076  -0.941  53.437  1.00  0.00     0.011 C 
HETATM   23  C1  UNL     1      30.131  -0.210  53.612  1.00  0.00     0.007 C 
ENDBRANCH  20  22
ENDBRANCH   1  19
BRANCH  12  24
HETATM   24  O1  UNL     1      19.147  -0.300  52.056  1.00  0.00    -0.361 OA
HETATM   25  H11 UNL     1      18.264  -0.202  52.535  1.00  0.00     0.217 HD
ENDBRANCH  12  24
TORSDOF 3
ENDMDL
MODEL 6
REMARK VINA RESULT:      -7.6      3.749      6.560
REMARK  3 active torsions:
REMARK  status: ('A' for Active; 'I' for Inactive)
REMARK    1  A    between atoms: C2_2  and  C3_3 
REMARK    2  A    between atoms: C4_5  and  C5_6 
REMARK    3  A    between atoms: C12_17  and  O1_18 
ROOT
HETATM    1  C5  UNL     1      23.195   3.973  51.628  1.00  0.00     0.047 C 
HETATM    2  C6  UNL     1      24.183   3.684  52.505  1.00  0.00     0.055 C 
HETATM    3  C7  UNL     1      24.480   2.356  52.902  1.00  0.00     0.042 A 
HETATM    4  N1  UNL     1      23.986   1.574  52.059  1.00  0.00    -0.329 N 
HETATM    5  C8  UNL     1      23.289   1.725  50.890  1.00  0.00     0.206 C 
HETATM    6  N2  UNL     1      22.321   1.834  49.966  1.00  0.00    -0.263 NA
HETATM    7  C9  UNL     1      21.023   1.679  50.753  1.00  0.00     0.298 C 
HETATM    8  N3  UNL     1      21.644   1.697  52.114  1.00  0.00    -0.272 N 
HETATM    9  N4  UNL     1      22.228   2.953  52.081  1.00  0.00    -0.299 N 
HETATM   10  C10 UNL     1      21.534   0.539  52.884  1.00  0.00     0.065 A 
HETATM   11  C11 UNL     1      20.215   0.228  53.015  1.00  0.00     0.068 A 
HETATM   12  C12 UNL     1      19.816  -0.887  53.711  1.00  0.00     0.068 A 
HETATM   13  C13 UNL     1      20.805  -1.664  54.260  1.00  0.00     0.037 A 
HETATM   14  C14 UNL     1      22.131  -1.318  54.106  1.00  0.00     0.016 A 
HETATM   15  C15 UNL     1      22.574  -0.184  53.401  1.00  0.00    -0.009 A 
HETATM   16  C16 UNL     1      24.018  -0.149  53.525  1.00  0.00     0.018 C 
HETATM   17  C17 UNL     1      24.746   0.983  53.300  1.00  0.00     0.164 A 
HETATM   18  H9  UNL     1      21.519   3.176  52.827  1.00  0.00     0.187 HD
ENDROOT
BRANCH   1  19
HETATM   19  C4  UNL     1      22.179   4.495  50.692  1.00  0.00     0.191 A 
HETATM   20  C3  UNL     1      21.797   5.785  50.653  1.00  0.00     0.036 A 
HETATM   21 CL1  UNL     1      20.742   5.228  49.344  1.00  0.00    -0.203 Cl
BRANCH  20  22
HETATM   22  C2  UNL     1      21.534   7.224  50.785  1.00  0.00     0.011 C 
HETATM   23  C1  UNL     1      21.163   8.160  49.970  1.00  0.00     0.007 C 
ENDBRANCH  20  22
ENDBRANCH   1  19
BRANCH  12  24
HETATM   24  O1  UNL     1      18.479  -1.245  53.875  1.00  0.00    -0.361 OA
HETATM   25  H11 UNL     1      18.048  -1.990  53.346  1.00  0.00     0.217 HD
ENDBRANCH  12  24
TORSDOF 3
ENDMDL
MODEL 7
REMARK VINA RESULT:      -7.4      7.899      9.610
REMARK  3 active torsions:
REMARK  status: ('A' for Active; 'I' for Inactive)
REMARK    1  A    between atoms: C2_2  and  C3_3 
REMARK    2  A    between atoms: C4_5  and  C5_6 
REMARK    3  A    between atoms: C12_17  and  O1_18 
ROOT
HETATM    1  C5  UNL     1      30.428   8.539  48.598  1.00  0.00     0.047 C 
HETATM    2  C6  UNL     1      30.780   7.235  48.662  1.00  0.00     0.055 C 
HETATM    3  C7  UNL     1      29.854   6.187  48.431  1.00  0.00     0.042 A 
HETATM    4  N1  UNL     1      28.873   6.658  47.816  1.00  0.00    -0.329 N 
HETATM    5  C8  UNL     1      28.540   7.892  47.324  1.00  0.00     0.206 C 
HETATM    6  N2  UNL     1      28.043   9.128  47.160  1.00  0.00    -0.263 NA
HETATM    7  C9  UNL     1      27.269   9.403  48.446  1.00  0.00     0.298 C 
HETATM    8  N3  UNL     1      27.716   8.178  49.180  1.00  0.00    -0.272 N 
HETATM    9  N4  UNL     1      29.082   8.406  49.192  1.00  0.00    -0.299 N 
HETATM   10  C10 UNL     1      26.739   7.238  49.514  1.00  0.00     0.065 A 
HETATM   11  C11 UNL     1      25.776   7.857  50.252  1.00  0.00     0.068 A 
HETATM   12  C12 UNL     1      24.676   7.167  50.699  1.00  0.00     0.068 A 
HETATM   13  C13 UNL     1      24.597   5.838  50.365  1.00  0.00     0.037 A 
HETATM   14  C14 UNL     1      25.591   5.246  49.616  1.00  0.00     0.016 A 
HETATM   15  C15 UNL     1      26.731   5.922  49.143  1.00  0.00    -0.009 A 
HETATM   16  C16 UNL     1      27.548   4.940  48.458  1.00  0.00     0.018 C 
HETATM   17  C17 UNL     1      28.874   5.136  48.205  1.00  0.00     0.164 A 
HETATM   18  H9  UNL     1      28.940   8.504  50.232  1.00  0.00     0.187 HD
ENDROOT
BRANCH   1  19
HETATM   19  C4  UNL     1      30.250  10.005  48.569  1.00  0.00     0.191 A 
HETATM   20  C3  UNL     1      31.158  10.853  48.053  1.00  0.00     0.036 A 
HETATM   21 CL1  UNL     1      29.978  12.089  48.520  1.00  0.00    -0.203 Cl
BRANCH  20  22
HETATM   22  C2  UNL     1      32.276  11.587  47.444  1.00  0.00     0.011 C 
HETATM   23  C1  UNL     1      32.857  11.564  46.287  1.00  0.00     0.007 C 
ENDBRANCH  20  22
ENDBRANCH   1  19
BRANCH  12  24
HETATM   24  O1  UNL     1      23.665   7.755  51.458  1.00  0.00    -0.361 OA
HETATM   25  H11 UNL     1      23.282   8.664  51.241  1.00  0.00     0.217 HD
ENDBRANCH  12  24
TORSDOF 3
ENDMDL
MODEL 8
REMARK VINA RESULT:      -7.3      3.584      7.096
REMARK  3 active torsions:
REMARK  status: ('A' for Active; 'I' for Inactive)
REMARK    1  A    between atoms: C2_2  and  C3_3 
REMARK    2  A    between atoms: C4_5  and  C5_6 
REMARK    3  A    between atoms: C12_17  and  O1_18 
ROOT
HETATM    1  C5  UNL     1      22.245   4.278  51.138  1.00  0.00     0.047 C 
HETATM    2  C6  UNL     1      23.370   4.980  50.874  1.00  0.00     0.055 C 
HETATM    3  C7  UNL     1      24.607   4.351  50.583  1.00  0.00     0.042 A 
HETATM    4  N1  UNL     1      24.376   3.170  50.244  1.00  0.00    -0.329 N 
HETATM    5  C8  UNL     1      23.247   2.413  50.077  1.00  0.00     0.206 C 
HETATM    6  N2  UNL     1      22.215   1.572  50.253  1.00  0.00    -0.263 NA
HETATM    7  C9  UNL     1      22.389   1.047  51.675  1.00  0.00     0.298 C 
HETATM    8  N3  UNL     1      23.511   1.960  52.059  1.00  0.00    -0.272 N 
HETATM    9  N4  UNL     1      22.875   3.181  51.899  1.00  0.00    -0.299 N 
HETATM   10  C10 UNL     1      24.745   1.374  52.344  1.00  0.00     0.065 A 
HETATM   11  C11 UNL     1      24.573   0.460  53.338  1.00  0.00     0.068 A 
HETATM   12  C12 UNL     1      25.628  -0.286  53.803  1.00  0.00     0.068 A 
HETATM   13  C13 UNL     1      26.850  -0.067  53.219  1.00  0.00     0.037 A 
HETATM   14  C14 UNL     1      26.986   0.867  52.214  1.00  0.00     0.016 A 
HETATM   15  C15 UNL     1      25.928   1.649  51.716  1.00  0.00    -0.009 A 
HETATM   16  C16 UNL     1      26.495   2.538  50.720  1.00  0.00     0.018 C 
HETATM   17  C17 UNL     1      25.862   3.673  50.305  1.00  0.00     0.164 A 
HETATM   18  H9  UNL     1      22.983   3.243  52.946  1.00  0.00     0.187 HD
ENDROOT
BRANCH   1  19
HETATM   19  C4  UNL     1      20.919   3.703  51.441  1.00  0.00     0.191 A 
HETATM   20  C3  UNL     1      19.775   4.140  50.885  1.00  0.00     0.036 A 
HETATM   21 CL1  UNL     1      19.040   2.864  51.870  1.00  0.00    -0.203 Cl
BRANCH  20  22
HETATM   22  C2  UNL     1      18.660   4.773  50.166  1.00  0.00     0.011 C 
HETATM   23  C1  UNL     1      18.357   4.931  48.917  1.00  0.00     0.007 C 
ENDBRANCH  20  22
ENDBRANCH   1  19
BRANCH  12  24
HETATM   24  O1  UNL     1      25.502  -1.232  54.819  1.00  0.00    -0.361 OA
HETATM   25  H11 UNL     1      24.609  -1.487  55.216  1.00  0.00     0.217 HD
ENDBRANCH  12  24
TORSDOF 3
ENDMDL
MODEL 9
REMARK VINA RESULT:      -7.3      8.944     10.629
REMARK  3 active torsions:
REMARK  status: ('A' for Active; 'I' for Inactive)
REMARK    1  A    between atoms: C2_2  and  C3_3 
REMARK    2  A    between atoms: C4_5  and  C5_6 
REMARK    3  A    between atoms: C12_17  and  O1_18 
ROOT
HETATM    1  C5  UNL     1      33.515   7.295  46.679  1.00  0.00     0.047 C 
HETATM    2  C6  UNL     1      32.942   7.963  45.653  1.00  0.00     0.055 C 
HETATM    3  C7  UNL     1      31.657   8.554  45.756  1.00  0.00     0.042 A 
HETATM    4  N1  UNL     1      31.380   8.682  46.969  1.00  0.00    -0.329 N 
HETATM    5  C8  UNL     1      32.030   8.414  48.144  1.00  0.00     0.206 C 
HETATM    6  N2  UNL     1      32.479   7.842  49.273  1.00  0.00    -0.263 NA
HETATM    7  C9  UNL     1      31.762   6.497  49.332  1.00  0.00     0.298 C 
HETATM    8  N3  UNL     1      31.142   6.574  47.972  1.00  0.00    -0.272 N 
HETATM    9  N4  UNL     1      32.291   6.655  47.202  1.00  0.00    -0.299 N 
HETATM   10  C10 UNL     1      29.749   6.624  47.904  1.00  0.00     0.065 A 
HETATM   11  C11 UNL     1      29.243   5.536  48.549  1.00  0.00     0.068 A 
HETATM   12  C12 UNL     1      27.887   5.344  48.656  1.00  0.00     0.068 A 
HETATM   13  C13 UNL     1      27.078   6.296  48.087  1.00  0.00     0.037 A 
HETATM   14  C14 UNL     1      27.626   7.385  47.443  1.00  0.00     0.016 A 
HETATM   15  C15 UNL     1      29.009   7.611  47.314  1.00  0.00    -0.009 A 
HETATM   16  C16 UNL     1      29.166   8.819  46.527  1.00  0.00     0.018 C 
HETATM   17  C17 UNL     1      30.331   9.134  45.892  1.00  0.00     0.164 A 
HETATM   18  H9  UNL     1      31.990   5.705  46.860  1.00  0.00     0.187 HD
ENDROOT
BRANCH   1  19
HETATM   19  C4  UNL     1      34.310   6.539  47.668  1.00  0.00     0.191 A 
HETATM   20  C3  UNL     1      34.645   5.244  47.519  1.00  0.00     0.036 A 
HETATM   21 CL1  UNL     1      35.458   5.480  49.076  1.00  0.00    -0.203 Cl
BRANCH  20  22
HETATM   22  C2  UNL     1      34.892   3.842  47.156  1.00  0.00     0.011 C 
HETATM   23  C1  UNL     1      34.917   3.182  46.042  1.00  0.00     0.007 C 
ENDBRANCH  20  22
ENDBRANCH   1  19
BRANCH  12  24
HETATM   24  O1  UNL     1      27.322   4.247  49.303  1.00  0.00    -0.361 OA
HETATM   25  H11 UNL     1      26.647   3.643  48.857  1.00  0.00     0.217 HD
ENDBRANCH  12  24
TORSDOF 3
ENDMDL
