MODEL 1
REMARK VINA RESULT:      -8.9      0.000      0.000
REMARK  5 active torsions:
REMARK  status: ('A' for Active; 'I' for Inactive)
REMARK    1  A    between atoms: C1_2  and  C2_3 
REMARK    2  A    between atoms: C1_2  and  C16_19 
REMARK    3  A    between atoms: N1_7  and  C6_8 
REMARK    4  A    between atoms: C6_8  and  C7_9 
REMARK    5  A    between atoms: C8_10  and  C9_11 
ROOT
HETATM    1  C2  UNL     1      24.916   1.554  52.760  1.00  0.00     0.011 A 
HETATM    2  C3  UNL     1      24.069   0.951  51.951  1.00  0.00     0.014 A 
HETATM    3  C4  UNL     1      22.854   1.406  51.303  1.00  0.00     0.018 A 
HETATM    4  C5  UNL     1      22.475   2.663  51.538  1.00  0.00     0.086 A 
HETATM    5  N1  UNL     1      23.331   3.372  52.404  1.00  0.00    -0.380 N 
HETATM    6  C15 UNL     1      24.530   2.975  53.010  1.00  0.00     0.165 A 
ENDROOT
BRANCH   5   7
HETATM    7  C6  UNL     1      22.857   4.718  52.698  1.00  0.00     0.181 C 
BRANCH   7   8
HETATM    8  C7  UNL     1      23.393   5.703  51.728  1.00  0.00     0.055 A 
HETATM    9  C8  UNL     1      24.275   6.121  50.782  1.00  0.00     0.067 A 
HETATM   10  N2  UNL     1      23.233   7.007  51.158  1.00  0.00    -0.354 N 
HETATM   11  H11 UNL     1      22.696   7.901  51.116  1.00  0.00     0.166 HD
BRANCH   9  12
HETATM   12  C9  UNL     1      25.455   5.803  49.987  1.00  0.00    -0.007 A 
HETATM   13  C10 UNL     1      26.217   6.714  49.289  1.00  0.00     0.014 A 
HETATM   14  C11 UNL     1      27.336   6.283  48.568  1.00  0.00     0.001 A 
HETATM   15  C12 UNL     1      27.682   4.949  48.551  1.00  0.00     0.000 A 
HETATM   16  C13 UNL     1      26.955   3.968  49.236  1.00  0.00     0.001 A 
HETATM   17  C14 UNL     1      25.856   4.475  49.930  1.00  0.00     0.014 A 
ENDBRANCH   9  12
ENDBRANCH   7   8
ENDBRANCH   5   7
BRANCH   1  18
HETATM   18  C1  UNL     1      26.112   1.108  53.404  1.00  0.00     0.190 C 
HETATM   19  O1  UNL     1      26.440   1.927  54.344  1.00  0.00    -0.287 OA
BRANCH  18  20
HETATM   20  C16 UNL     1      27.050   0.020  53.308  1.00  0.00     0.015 A 
HETATM   21  C17 UNL     1      26.855  -1.239  52.800  1.00  0.00     0.015 A 
HETATM   22  C18 UNL     1      27.728  -2.288  52.698  1.00  0.00     0.001 A 
HETATM   23  C19 UNL     1      28.985  -2.013  53.187  1.00  0.00     0.000 A 
HETATM   24  C20 UNL     1      29.327  -0.794  53.728  1.00  0.00     0.001 A 
HETATM   25  C21 UNL     1      28.352   0.151  53.761  1.00  0.00     0.015 A 
ENDBRANCH  18  20
ENDBRANCH   1  18
TORSDOF 5
ENDMDL
MODEL 2
REMARK VINA RESULT:      -8.8      2.368      5.212
REMARK  5 active torsions:
REMARK  status: ('A' for Active; 'I' for Inactive)
REMARK    1  A    between atoms: C1_2  and  C2_3 
REMARK    2  A    between atoms: C1_2  and  C16_19 
REMARK    3  A    between atoms: N1_7  and  C6_8 
REMARK    4  A    between atoms: C6_8  and  C7_9 
REMARK    5  A    between atoms: C8_10  and  C9_11 
ROOT
HETATM    1  C2  UNL     1      24.937   3.296  50.680  1.00  0.00     0.011 A 
HETATM    2  C3  UNL     1      24.698   3.670  49.439  1.00  0.00     0.014 A 
HETATM    3  C4  UNL     1      23.576   4.358  48.830  1.00  0.00     0.018 A 
HETATM    4  C5  UNL     1      22.566   4.698  49.632  1.00  0.00     0.086 A 
HETATM    5  N1  UNL     1      22.746   4.324  50.978  1.00  0.00    -0.380 N 
HETATM    6  C15 UNL     1      23.832   3.698  51.602  1.00  0.00     0.165 A 
ENDROOT
BRANCH   5   7
HETATM    7  C6  UNL     1      21.598   4.644  51.817  1.00  0.00     0.181 C 
BRANCH   7   8
HETATM    8  C7  UNL     1      20.792   3.436  52.113  1.00  0.00     0.055 A 
HETATM    9  C8  UNL     1      20.622   2.175  52.593  1.00  0.00     0.067 A 
HETATM   10  N2  UNL     1      19.497   2.830  52.031  1.00  0.00    -0.354 N 
HETATM   11  H11 UNL     1      18.496   2.902  51.745  1.00  0.00     0.166 HD
BRANCH   9  12
HETATM   12  C9  UNL     1      21.239   1.018  53.231  1.00  0.00    -0.007 A 
HETATM   13  C10 UNL     1      20.737   0.347  54.324  1.00  0.00     0.014 A 
HETATM   14  C11 UNL     1      21.421  -0.758  54.841  1.00  0.00     0.001 A 
HETATM   15  C12 UNL     1      22.598  -1.183  54.262  1.00  0.00     0.000 A 
HETATM   16  C13 UNL     1      23.167  -0.550  53.150  1.00  0.00     0.001 A 
HETATM   17  C14 UNL     1      22.427   0.542  52.694  1.00  0.00     0.014 A 
ENDBRANCH   9  12
ENDBRANCH   7   8
ENDBRANCH   5   7
BRANCH   1  18
HETATM   18  C1  UNL     1      26.039   2.614  51.284  1.00  0.00     0.190 C 
HETATM   19  O1  UNL     1      27.151   3.077  50.826  1.00  0.00    -0.287 OA
BRANCH  18  20
HETATM   20  C16 UNL     1      26.265   1.568  52.246  1.00  0.00     0.015 A 
HETATM   21  C17 UNL     1      26.208   1.633  53.615  1.00  0.00     0.015 A 
HETATM   22  C18 UNL     1      26.418   0.656  54.549  1.00  0.00     0.001 A 
HETATM   23  C19 UNL     1      26.734  -0.570  54.007  1.00  0.00     0.000 A 
HETATM   24  C20 UNL     1      26.829  -0.786  52.652  1.00  0.00     0.001 A 
HETATM   25  C21 UNL     1      26.591   0.283  51.847  1.00  0.00     0.015 A 
ENDBRANCH  18  20
ENDBRANCH   1  18
TORSDOF 5
ENDMDL
MODEL 3
REMARK VINA RESULT:      -8.8      1.982      5.033
REMARK  5 active torsions:
REMARK  status: ('A' for Active; 'I' for Inactive)
REMARK    1  A    between atoms: C1_2  and  C2_3 
REMARK    2  A    between atoms: C1_2  and  C16_19 
REMARK    3  A    between atoms: N1_7  and  C6_8 
REMARK    4  A    between atoms: C6_8  and  C7_9 
REMARK    5  A    between atoms: C8_10  and  C9_11 
ROOT
HETATM    1  C2  UNL     1      26.238   2.229  52.117  1.00  0.00     0.011 A 
HETATM    2  C3  UNL     1      26.543   2.633  50.900  1.00  0.00     0.014 A 
HETATM    3  C4  UNL     1      25.871   3.525  49.975  1.00  0.00     0.018 A 
HETATM    4  C5  UNL     1      24.720   4.064  50.380  1.00  0.00     0.086 A 
HETATM    5  N1  UNL     1      24.323   3.672  51.674  1.00  0.00    -0.380 N 
HETATM    6  C15 UNL     1      24.969   2.848  52.604  1.00  0.00     0.165 A 
ENDROOT
BRANCH   5   7
HETATM    7  C6  UNL     1      23.030   4.220  52.063  1.00  0.00     0.181 C 
BRANCH   7   8
HETATM    8  C7  UNL     1      21.979   3.174  52.065  1.00  0.00     0.055 A 
HETATM    9  C8  UNL     1      21.460   1.972  52.434  1.00  0.00     0.067 A 
HETATM   10  N2  UNL     1      20.687   2.795  51.577  1.00  0.00    -0.354 N 
HETATM   11  H11 UNL     1      19.849   3.030  51.001  1.00  0.00     0.166 HD
BRANCH   9  12
HETATM   12  C9  UNL     1      21.648   0.744  53.196  1.00  0.00    -0.007 A 
HETATM   13  C10 UNL     1      20.639  -0.037  53.715  1.00  0.00     0.014 A 
HETATM   14  C11 UNL     1      20.949  -1.202  54.424  1.00  0.00     0.001 A 
HETATM   15  C12 UNL     1      22.263  -1.576  54.609  1.00  0.00     0.000 A 
HETATM   16  C13 UNL     1      23.340  -0.832  54.111  1.00  0.00     0.001 A 
HETATM   17  C14 UNL     1      22.950   0.313  53.417  1.00  0.00     0.014 A 
ENDBRANCH   9  12
ENDBRANCH   7   8
ENDBRANCH   5   7
BRANCH   1  18
HETATM   18  C1  UNL     1      26.895   1.347  53.030  1.00  0.00     0.190 C 
HETATM   19  O1  UNL     1      26.973   1.893  54.195  1.00  0.00    -0.287 OA
BRANCH  18  20
HETATM   20  C16 UNL     1      27.490   0.036  53.026  1.00  0.00     0.015 A 
HETATM   21  C17 UNL     1      28.751  -0.335  53.419  1.00  0.00     0.015 A 
HETATM   22  C18 UNL     1      29.339  -1.570  53.425  1.00  0.00     0.001 A 
HETATM   23  C19 UNL     1      28.521  -2.577  52.962  1.00  0.00     0.000 A 
HETATM   24  C20 UNL     1      27.232  -2.354  52.533  1.00  0.00     0.001 A 
HETATM   25  C21 UNL     1      26.786  -1.072  52.587  1.00  0.00     0.015 A 
ENDBRANCH  18  20
ENDBRANCH   1  18
TORSDOF 5
ENDMDL
MODEL 4
REMARK VINA RESULT:      -8.7      2.910      5.131
REMARK  5 active torsions:
REMARK  status: ('A' for Active; 'I' for Inactive)
REMARK    1  A    between atoms: C1_2  and  C2_3 
REMARK    2  A    between atoms: C1_2  and  C16_19 
REMARK    3  A    between atoms: N1_7  and  C6_8 
REMARK    4  A    between atoms: C6_8  and  C7_9 
REMARK    5  A    between atoms: C8_10  and  C9_11 
ROOT
HETATM    1  C2  UNL     1      21.848   1.187  50.362  1.00  0.00     0.011 A 
HETATM    2  C3  UNL     1      21.683   1.135  49.056  1.00  0.00     0.014 A 
HETATM    3  C4  UNL     1      22.230   1.932  47.975  1.00  0.00     0.018 A 
HETATM    4  C5  UNL     1      23.060   2.921  48.310  1.00  0.00     0.086 A 
HETATM    5  N1  UNL     1      23.281   3.045  49.696  1.00  0.00    -0.380 N 
HETATM    6  C15 UNL     1      22.802   2.267  50.758  1.00  0.00     0.165 A 
ENDROOT
BRANCH   5   7
HETATM    7  C6  UNL     1      24.135   4.175  50.038  1.00  0.00     0.181 C 
BRANCH   7   8
HETATM    8  C7  UNL     1      25.535   3.743  50.267  1.00  0.00     0.055 A 
HETATM    9  C8  UNL     1      26.490   2.986  50.869  1.00  0.00     0.067 A 
HETATM   10  N2  UNL     1      26.905   3.935  49.901  1.00  0.00    -0.354 N 
HETATM   11  H11 UNL     1      27.610   4.442  49.320  1.00  0.00     0.166 HD
BRANCH   9  12
HETATM   12  C9  UNL     1      26.787   1.939  51.838  1.00  0.00    -0.007 A 
HETATM   13  C10 UNL     1      27.312   2.139  53.096  1.00  0.00     0.014 A 
HETATM   14  C11 UNL     1      27.545   1.048  53.939  1.00  0.00     0.001 A 
HETATM   15  C12 UNL     1      27.252  -0.232  53.519  1.00  0.00     0.000 A 
HETATM   16  C13 UNL     1      26.717  -0.511  52.256  1.00  0.00     0.001 A 
HETATM   17  C14 UNL     1      26.514   0.627  51.475  1.00  0.00     0.014 A 
ENDBRANCH   9  12
ENDBRANCH   7   8
ENDBRANCH   5   7
BRANCH   1  18
HETATM   18  C1  UNL     1      21.308   0.407  51.432  1.00  0.00     0.190 C 
HETATM   19  O1  UNL     1      20.058   0.172  51.222  1.00  0.00    -0.287 OA
BRANCH  18  20
HETATM   20  C16 UNL     1      21.752  -0.188  52.665  1.00  0.00     0.015 A 
HETATM   21  C17 UNL     1      21.013  -0.844  53.617  1.00  0.00     0.015 A 
HETATM   22  C18 UNL     1      21.409  -1.417  54.794  1.00  0.00     0.001 A 
HETATM   23  C19 UNL     1      22.760  -1.303  55.039  1.00  0.00     0.000 A 
HETATM   24  C20 UNL     1      23.625  -0.671  54.175  1.00  0.00     0.001 A 
HETATM   25  C21 UNL     1      23.083  -0.151  53.043  1.00  0.00     0.015 A 
ENDBRANCH  18  20
ENDBRANCH   1  18
TORSDOF 5
ENDMDL
MODEL 5
REMARK VINA RESULT:      -8.6      2.577      3.484
REMARK  5 active torsions:
REMARK  status: ('A' for Active; 'I' for Inactive)
REMARK    1  A    between atoms: C1_2  and  C2_3 
REMARK    2  A    between atoms: C1_2  and  C16_19 
REMARK    3  A    between atoms: N1_7  and  C6_8 
REMARK    4  A    between atoms: C6_8  and  C7_9 
REMARK    5  A    between atoms: C8_10  and  C9_11 
ROOT
HETATM    1  C2  UNL     1      22.818  -0.805  54.314  1.00  0.00     0.011 A 
HETATM    2  C3  UNL     1      21.785  -1.610  54.460  1.00  0.00     0.014 A 
HETATM    3  C4  UNL     1      20.402  -1.504  54.036  1.00  0.00     0.018 A 
HETATM    4  C5  UNL     1      20.055  -0.400  53.371  1.00  0.00     0.086 A 
HETATM    5  N1  UNL     1      21.109   0.515  53.182  1.00  0.00    -0.380 N 
HETATM    6  C15 UNL     1      22.460   0.422  53.541  1.00  0.00     0.165 A 
ENDROOT
BRANCH   5   7
HETATM    7  C6  UNL     1      20.686   1.740  52.515  1.00  0.00     0.181 C 
BRANCH   7   8
HETATM    8  C7  UNL     1      21.366   1.905  51.207  1.00  0.00     0.055 A 
HETATM    9  C8  UNL     1      22.438   2.195  50.422  1.00  0.00     0.067 A 
HETATM   10  N2  UNL     1      21.225   1.832  49.784  1.00  0.00    -0.354 N 
HETATM   11  H11 UNL     1      20.616   1.639  48.958  1.00  0.00     0.166 HD
BRANCH   9  12
HETATM   12  C9  UNL     1      23.838   2.596  50.368  1.00  0.00    -0.007 A 
HETATM   13  C10 UNL     1      24.403   3.394  49.398  1.00  0.00     0.014 A 
HETATM   14  C11 UNL     1      25.763   3.716  49.461  1.00  0.00     0.001 A 
HETATM   15  C12 UNL     1      26.546   3.237  50.491  1.00  0.00     0.000 A 
HETATM   16  C13 UNL     1      26.040   2.421  51.510  1.00  0.00     0.001 A 
HETATM   17  C14 UNL     1      24.679   2.146  51.377  1.00  0.00     0.014 A 
ENDBRANCH   9  12
ENDBRANCH   7   8
ENDBRANCH   5   7
BRANCH   1  18
HETATM   18  C1  UNL     1      24.181  -0.904  54.734  1.00  0.00     0.190 C 
HETATM   19  O1  UNL     1      24.241  -1.359  55.939  1.00  0.00    -0.287 OA
BRANCH  18  20
HETATM   20  C16 UNL     1      25.495  -0.645  54.207  1.00  0.00     0.015 A 
HETATM   21  C17 UNL     1      26.032  -1.036  53.006  1.00  0.00     0.015 A 
HETATM   22  C18 UNL     1      27.274  -0.803  52.483  1.00  0.00     0.001 A 
HETATM   23  C19 UNL     1      28.092  -0.061  53.307  1.00  0.00     0.000 A 
HETATM   24  C20 UNL     1      27.691   0.399  54.540  1.00  0.00     0.001 A 
HETATM   25  C21 UNL     1      26.425   0.088  54.924  1.00  0.00     0.015 A 
ENDBRANCH  18  20
ENDBRANCH   1  18
TORSDOF 5
ENDMDL
MODEL 6
REMARK VINA RESULT:      -8.6      1.234      1.748
REMARK  5 active torsions:
REMARK  status: ('A' for Active; 'I' for Inactive)
REMARK    1  A    between atoms: C1_2  and  C2_3 
REMARK    2  A    between atoms: C1_2  and  C16_19 
REMARK    3  A    between atoms: N1_7  and  C6_8 
REMARK    4  A    between atoms: C6_8  and  C7_9 
REMARK    5  A    between atoms: C8_10  and  C9_11 
ROOT
HETATM    1  C2  UNL     1      24.921   0.678  52.977  1.00  0.00     0.011 A 
HETATM    2  C3  UNL     1      23.815   0.078  53.366  1.00  0.00     0.014 A 
HETATM    3  C4  UNL     1      22.464   0.091  52.838  1.00  0.00     0.018 A 
HETATM    4  C5  UNL     1      22.244   0.839  51.756  1.00  0.00     0.086 A 
HETATM    5  N1  UNL     1      23.383   1.521  51.283  1.00  0.00    -0.380 N 
HETATM    6  C15 UNL     1      24.705   1.495  51.745  1.00  0.00     0.165 A 
ENDROOT
BRANCH   5   7
HETATM    7  C6  UNL     1      23.098   2.384  50.144  1.00  0.00     0.181 C 
BRANCH   7   8
HETATM    8  C7  UNL     1      23.634   3.751  50.356  1.00  0.00     0.055 A 
HETATM    9  C8  UNL     1      24.541   4.745  50.162  1.00  0.00     0.067 A 
HETATM   10  N2  UNL     1      23.439   5.007  51.016  1.00  0.00    -0.354 N 
HETATM   11  H11 UNL     1      22.862   5.599  51.653  1.00  0.00     0.166 HD
BRANCH   9  12
HETATM   12  C9  UNL     1      25.774   5.161  49.506  1.00  0.00    -0.007 A 
HETATM   13  C10 UNL     1      26.836   4.337  49.205  1.00  0.00     0.014 A 
HETATM   14  C11 UNL     1      27.965   4.857  48.563  1.00  0.00     0.001 A 
HETATM   15  C12 UNL     1      28.024   6.193  48.230  1.00  0.00     0.000 A 
HETATM   16  C13 UNL     1      26.983   7.089  48.505  1.00  0.00     0.001 A 
HETATM   17  C14 UNL     1      25.895   6.496  49.144  1.00  0.00     0.014 A 
ENDBRANCH   9  12
ENDBRANCH   7   8
ENDBRANCH   5   7
BRANCH   1  18
HETATM   18  C1  UNL     1      26.253   0.670  53.497  1.00  0.00     0.190 C 
HETATM   19  O1  UNL     1      26.453   1.720  54.218  1.00  0.00    -0.287 OA
BRANCH  18  20
HETATM   20  C16 UNL     1      27.427  -0.161  53.448  1.00  0.00     0.015 A 
HETATM   21  C17 UNL     1      27.538  -1.467  53.042  1.00  0.00     0.015 A 
HETATM   22  C18 UNL     1      28.639  -2.277  52.986  1.00  0.00     0.001 A 
HETATM   23  C19 UNL     1      29.799  -1.666  53.407  1.00  0.00     0.000 A 
HETATM   24  C20 UNL     1      29.841  -0.361  53.843  1.00  0.00     0.001 A 
HETATM   25  C21 UNL     1      28.664   0.319  53.841  1.00  0.00     0.015 A 
ENDBRANCH  18  20
ENDBRANCH   1  18
TORSDOF 5
ENDMDL
MODEL 7
REMARK VINA RESULT:      -8.5      1.485      2.372
REMARK  5 active torsions:
REMARK  status: ('A' for Active; 'I' for Inactive)
REMARK    1  A    between atoms: C1_2  and  C2_3 
REMARK    2  A    between atoms: C1_2  and  C16_19 
REMARK    3  A    between atoms: N1_7  and  C6_8 
REMARK    4  A    between atoms: C6_8  and  C7_9 
REMARK    5  A    between atoms: C8_10  and  C9_11 
ROOT
HETATM    1  C2  UNL     1      26.038   2.146  52.836  1.00  0.00     0.011 A 
HETATM    2  C3  UNL     1      24.941   2.579  53.422  1.00  0.00     0.014 A 
HETATM    3  C4  UNL     1      23.749   3.222  52.901  1.00  0.00     0.018 A 
HETATM    4  C5  UNL     1      23.705   3.443  51.586  1.00  0.00     0.086 A 
HETATM    5  N1  UNL     1      24.851   3.011  50.889  1.00  0.00    -0.380 N 
HETATM    6  C15 UNL     1      25.995   2.352  51.357  1.00  0.00     0.165 A 
ENDROOT
BRANCH   5   7
HETATM    7  C6  UNL     1      24.806   3.327  49.468  1.00  0.00     0.181 C 
BRANCH   7   8
HETATM    8  C7  UNL     1      25.085   4.763  49.226  1.00  0.00     0.055 A 
HETATM    9  C8  UNL     1      25.881   5.801  48.851  1.00  0.00     0.067 A 
HETATM   10  N2  UNL     1      24.557   6.094  49.269  1.00  0.00    -0.354 N 
HETATM   11  H11 UNL     1      23.754   6.727  49.475  1.00  0.00     0.166 HD
BRANCH   9  12
HETATM   12  C9  UNL     1      27.189   6.223  48.366  1.00  0.00    -0.007 A 
HETATM   13  C10 UNL     1      27.475   7.446  47.801  1.00  0.00     0.014 A 
HETATM   14  C11 UNL     1      28.777   7.736  47.381  1.00  0.00     0.001 A 
HETATM   15  C12 UNL     1      29.781   6.802  47.529  1.00  0.00     0.000 A 
HETATM   16  C13 UNL     1      29.564   5.540  48.094  1.00  0.00     0.001 A 
HETATM   17  C14 UNL     1      28.242   5.327  48.487  1.00  0.00     0.014 A 
ENDBRANCH   9  12
ENDBRANCH   7   8
ENDBRANCH   5   7
BRANCH   1  18
HETATM   18  C1  UNL     1      27.216   1.516  53.346  1.00  0.00     0.190 C 
HETATM   19  O1  UNL     1      27.894   2.353  54.053  1.00  0.00    -0.287 OA
BRANCH  18  20
HETATM   20  C16 UNL     1      27.860   0.229  53.298  1.00  0.00     0.015 A 
HETATM   21  C17 UNL     1      29.151  -0.098  53.626  1.00  0.00     0.015 A 
HETATM   22  C18 UNL     1      29.785  -1.309  53.589  1.00  0.00     0.001 A 
HETATM   23  C19 UNL     1      28.984  -2.341  53.152  1.00  0.00     0.000 A 
HETATM   24  C20 UNL     1      27.669  -2.163  52.787  1.00  0.00     0.001 A 
HETATM   25  C21 UNL     1      27.178  -0.900  52.878  1.00  0.00     0.015 A 
ENDBRANCH  18  20
ENDBRANCH   1  18
TORSDOF 5
ENDMDL
MODEL 8
REMARK VINA RESULT:      -8.4      2.308      6.152
REMARK  5 active torsions:
REMARK  status: ('A' for Active; 'I' for Inactive)
REMARK    1  A    between atoms: C1_2  and  C2_3 
REMARK    2  A    between atoms: C1_2  and  C16_19 
REMARK    3  A    between atoms: N1_7  and  C6_8 
REMARK    4  A    between atoms: C6_8  and  C7_9 
REMARK    5  A    between atoms: C8_10  and  C9_11 
ROOT
HETATM    1  C2  UNL     1      22.861   2.288  51.452  1.00  0.00     0.011 A 
HETATM    2  C3  UNL     1      22.234   1.638  50.493  1.00  0.00     0.014 A 
HETATM    3  C4  UNL     1      21.341   0.496  50.515  1.00  0.00     0.018 A 
HETATM    4  C5  UNL     1      21.071  -0.040  51.706  1.00  0.00     0.086 A 
HETATM    5  N1  UNL     1      21.714   0.599  52.785  1.00  0.00    -0.380 N 
HETATM    6  C15 UNL     1      22.546   1.725  52.800  1.00  0.00     0.165 A 
ENDROOT
BRANCH   5   7
HETATM    7  C6  UNL     1      21.458  -0.050  54.065  1.00  0.00     0.181 C 
BRANCH   7   8
HETATM    8  C7  UNL     1      22.696  -0.640  54.628  1.00  0.00     0.055 A 
HETATM    9  C8  UNL     1      24.046  -0.789  54.707  1.00  0.00     0.067 A 
HETATM   10  N2  UNL     1      23.239  -1.558  55.583  1.00  0.00    -0.354 N 
HETATM   11  H11 UNL     1      23.074  -2.255  56.343  1.00  0.00     0.166 HD
BRANCH   9  12
HETATM   12  C9  UNL     1      25.350  -0.387  54.195  1.00  0.00    -0.007 A 
HETATM   13  C10 UNL     1      26.446  -0.068  54.965  1.00  0.00     0.014 A 
HETATM   14  C11 UNL     1      27.650   0.297  54.353  1.00  0.00     0.001 A 
HETATM   15  C12 UNL     1      27.747   0.339  52.978  1.00  0.00     0.000 A 
HETATM   16  C13 UNL     1      26.675   0.028  52.133  1.00  0.00     0.001 A 
HETATM   17  C14 UNL     1      25.512  -0.325  52.818  1.00  0.00     0.014 A 
ENDBRANCH   9  12
ENDBRANCH   7   8
ENDBRANCH   5   7
BRANCH   1  18
HETATM   18  C1  UNL     1      23.745   3.411  51.434  1.00  0.00     0.190 C 
HETATM   19  O1  UNL     1      23.551   4.144  52.477  1.00  0.00    -0.287 OA
BRANCH  18  20
HETATM   20  C16 UNL     1      24.780   3.958  50.596  1.00  0.00     0.015 A 
HETATM   21  C17 UNL     1      24.907   5.234  50.110  1.00  0.00     0.015 A 
HETATM   22  C18 UNL     1      25.878   5.777  49.314  1.00  0.00     0.001 A 
HETATM   23  C19 UNL     1      26.867   4.886  48.960  1.00  0.00     0.000 A 
HETATM   24  C20 UNL     1      26.872   3.573  49.372  1.00  0.00     0.001 A 
HETATM   25  C21 UNL     1      25.839   3.179  50.162  1.00  0.00     0.015 A 
ENDBRANCH  18  20
ENDBRANCH   1  18
TORSDOF 5
ENDMDL
MODEL 9
REMARK VINA RESULT:      -8.0      2.616      5.532
REMARK  5 active torsions:
REMARK  status: ('A' for Active; 'I' for Inactive)
REMARK    1  A    between atoms: C1_2  and  C2_3 
REMARK    2  A    between atoms: C1_2  and  C16_19 
REMARK    3  A    between atoms: N1_7  and  C6_8 
REMARK    4  A    between atoms: C6_8  and  C7_9 
REMARK    5  A    between atoms: C8_10  and  C9_11 
ROOT
HETATM    1  C2  UNL     1      24.891   3.331  50.137  1.00  0.00     0.011 A 
HETATM    2  C3  UNL     1      24.608   4.571  49.794  1.00  0.00     0.014 A 
HETATM    3  C4  UNL     1      23.531   5.140  49.007  1.00  0.00     0.018 A 
HETATM    4  C5  UNL     1      22.630   4.291  48.509  1.00  0.00     0.086 A 
HETATM    5  N1  UNL     1      22.871   2.940  48.829  1.00  0.00    -0.380 N 
HETATM    6  C15 UNL     1      23.875   2.366  49.619  1.00  0.00     0.165 A 
ENDROOT
BRANCH   5   7
HETATM    7  C6  UNL     1      21.913   2.030  48.215  1.00  0.00     0.181 C 
BRANCH   7   8
HETATM    8  C7  UNL     1      20.988   1.460  49.224  1.00  0.00     0.055 A 
HETATM    9  C8  UNL     1      20.695   0.922  50.438  1.00  0.00     0.067 A 
HETATM   10  N2  UNL     1      19.634   1.097  49.514  1.00  0.00    -0.354 N 
HETATM   11  H11 UNL     1      18.640   1.041  49.200  1.00  0.00     0.166 HD
BRANCH   9  12
HETATM   12  C9  UNL     1      21.198   0.495  51.737  1.00  0.00    -0.007 A 
HETATM   13  C10 UNL     1      22.470   0.030  51.988  1.00  0.00     0.014 A 
HETATM   14  C11 UNL     1      22.836  -0.343  53.286  1.00  0.00     0.001 A 
HETATM   15  C12 UNL     1      21.929  -0.249  54.320  1.00  0.00     0.000 A 
HETATM   16  C13 UNL     1      20.620   0.214  54.139  1.00  0.00     0.001 A 
HETATM   17  C14 UNL     1      20.332   0.566  52.820  1.00  0.00     0.014 A 
ENDBRANCH   9  12
ENDBRANCH   7   8
ENDBRANCH   5   7
BRANCH   1  18
HETATM   18  C1  UNL     1      25.954   2.766  50.909  1.00  0.00     0.190 C 
HETATM   19  O1  UNL     1      27.066   3.352  50.628  1.00  0.00    -0.287 OA
BRANCH  18  20
HETATM   20  C16 UNL     1      26.141   1.739  51.901  1.00  0.00     0.015 A 
HETATM   21  C17 UNL     1      26.461   0.418  51.720  1.00  0.00     0.015 A 
HETATM   22  C18 UNL     1      26.644  -0.575  52.643  1.00  0.00     0.001 A 
HETATM   23  C19 UNL     1      26.473  -0.159  53.945  1.00  0.00     0.000 A 
HETATM   24  C20 UNL     1      26.149   1.135  54.280  1.00  0.00     0.001 A 
HETATM   25  C21 UNL     1      26.001   2.011  53.251  1.00  0.00     0.015 A 
ENDBRANCH  18  20
ENDBRANCH   1  18
TORSDOF 5
ENDMDL
