MODEL 1
REMARK VINA RESULT:      -7.8      0.000      0.000
REMARK  6 active torsions:
REMARK  status: ('A' for Active; 'I' for Inactive)
REMARK    1  A    between atoms: C4_4  and  C5_5 
REMARK    2  A    between atoms: C8_8  and  O1_9 
REMARK    3  A    between atoms: N1_10  and  C9_11 
REMARK    4  A    between atoms: C9_11  and  C10_12 
REMARK    5  A    between atoms: C15_17  and  O2_18 
REMARK    6  A    between atoms: N2_19  and  O3_20 
ROOT
HETATM    1  C1  UNL     1      28.533  -1.177  53.173  1.00  0.00     0.047 C 
HETATM    2  C2  UNL     1      27.395  -0.537  53.227  1.00  0.00     0.074 A 
HETATM    3  C3  UNL     1      26.115  -1.130  53.570  1.00  0.00     0.065 A 
HETATM    4  C4  UNL     1      25.168  -0.215  53.521  1.00  0.00     0.069 A 
HETATM    5  N1  UNL     1      25.607   1.078  53.163  1.00  0.00    -0.261 N 
HETATM    6  N2  UNL     1      27.017   0.818  52.989  1.00  0.00    -0.160 N 
ENDROOT
BRANCH   5   7
HETATM    7  C9  UNL     1      25.282   2.427  52.942  1.00  0.00     0.193 C 
BRANCH   7   8
HETATM    8  C10 UNL     1      25.007   2.921  51.601  1.00  0.00    -0.005 A 
HETATM    9  C11 UNL     1      23.634   2.742  51.339  1.00  0.00     0.012 A 
HETATM   10  C12 UNL     1      23.026   3.007  50.121  1.00  0.00     0.001 A 
HETATM   11  C13 UNL     1      23.771   3.480  49.051  1.00  0.00     0.003 A 
HETATM   12  C14 UNL     1      25.116   3.673  49.256  1.00  0.00     0.037 A 
HETATM   13  C15 UNL     1      25.658   3.394  50.484  1.00  0.00     0.073 A 
BRANCH  13  14
HETATM   14  O2  UNL     1      27.013   3.572  50.791  1.00  0.00    -0.360 OA
HETATM   15  H13 UNL     1      27.681   2.908  50.372  1.00  0.00     0.217 HD
ENDBRANCH  13  14
ENDBRANCH   7   8
ENDBRANCH   5   7
BRANCH   4  16
HETATM   16  C5  UNL     1      23.769  -0.432  53.801  1.00  0.00     0.025 A 
HETATM   17  C6  UNL     1      22.537  -0.234  53.402  1.00  0.00     0.019 A 
HETATM   18  C7  UNL     1      21.866  -0.913  54.500  1.00  0.00     0.038 A 
HETATM   19  C8  UNL     1      23.109  -1.122  54.917  1.00  0.00     0.078 A 
BRANCH  19  20
HETATM   20  O1  UNL     1      23.547  -1.799  56.078  1.00  0.00    -0.360 OA
HETATM   21  H6  UNL     1      24.511  -1.680  56.379  1.00  0.00     0.217 HD
ENDBRANCH  19  20
ENDBRANCH   4  16
BRANCH   6  22
HETATM   22  O3  UNL     1      28.085   1.621  52.652  1.00  0.00    -0.263 OA
HETATM   23  C16 UNL     1      28.566   2.294  53.759  1.00  0.00     0.240 C 
ENDBRANCH   6  22
TORSDOF 6
ENDMDL
MODEL 2
REMARK VINA RESULT:      -7.4      1.673      4.393
REMARK  6 active torsions:
REMARK  status: ('A' for Active; 'I' for Inactive)
REMARK    1  A    between atoms: C4_4  and  C5_5 
REMARK    2  A    between atoms: C8_8  and  O1_9 
REMARK    3  A    between atoms: N1_10  and  C9_11 
REMARK    4  A    between atoms: C9_11  and  C10_12 
REMARK    5  A    between atoms: C15_17  and  O2_18 
REMARK    6  A    between atoms: N2_19  and  O3_20 
ROOT
HETATM    1  C1  UNL     1      23.240   2.866  49.362  1.00  0.00     0.047 C 
HETATM    2  C2  UNL     1      23.504   2.361  50.538  1.00  0.00     0.074 A 
HETATM    3  C3  UNL     1      22.707   1.355  51.217  1.00  0.00     0.065 A 
HETATM    4  C4  UNL     1      23.242   1.074  52.388  1.00  0.00     0.069 A 
HETATM    5  N1  UNL     1      24.421   1.788  52.692  1.00  0.00    -0.261 N 
HETATM    6  N2  UNL     1      24.540   2.584  51.493  1.00  0.00    -0.160 N 
ENDROOT
BRANCH   5   7
HETATM    7  C9  UNL     1      25.473   2.022  53.594  1.00  0.00     0.193 C 
BRANCH   7   8
HETATM    8  C10 UNL     1      26.732   1.301  53.480  1.00  0.00    -0.005 A 
HETATM    9  C11 UNL     1      26.447  -0.028  53.108  1.00  0.00     0.012 A 
HETATM   10  C12 UNL     1      27.396  -1.034  53.002  1.00  0.00     0.001 A 
HETATM   11  C13 UNL     1      28.731  -0.772  53.270  1.00  0.00     0.003 A 
HETATM   12  C14 UNL     1      29.062   0.511  53.636  1.00  0.00     0.037 A 
HETATM   13  C15 UNL     1      28.078   1.462  53.722  1.00  0.00     0.073 A 
BRANCH  13  14
HETATM   14  O2  UNL     1      28.320   2.796  54.072  1.00  0.00    -0.360 OA
HETATM   15  H13 UNL     1      27.802   3.520  53.551  1.00  0.00     0.217 HD
ENDBRANCH  13  14
ENDBRANCH   7   8
ENDBRANCH   5   7
BRANCH   4  16
HETATM   16  C5  UNL     1      22.729   0.121  53.343  1.00  0.00     0.025 A 
HETATM   17  C6  UNL     1      23.025  -0.813  54.214  1.00  0.00     0.019 A 
HETATM   18  C7  UNL     1      21.667  -1.133  54.623  1.00  0.00     0.038 A 
HETATM   19  C8  UNL     1      21.351  -0.189  53.745  1.00  0.00     0.078 A 
BRANCH  19  20
HETATM   20  O1  UNL     1      20.070   0.288  53.385  1.00  0.00    -0.360 OA
HETATM   21  H6  UNL     1      19.980   0.866  52.553  1.00  0.00     0.217 HD
ENDBRANCH  19  20
ENDBRANCH   4  16
BRANCH   6  22
HETATM   22  O3  UNL     1      25.466   3.513  51.071  1.00  0.00    -0.263 OA
HETATM   23  C16 UNL     1      26.465   2.913  50.328  1.00  0.00     0.240 C 
ENDBRANCH   6  22
TORSDOF 6
ENDMDL
MODEL 3
REMARK VINA RESULT:      -7.3      1.729      5.925
REMARK  6 active torsions:
REMARK  status: ('A' for Active; 'I' for Inactive)
REMARK    1  A    between atoms: C4_4  and  C5_5 
REMARK    2  A    between atoms: C8_8  and  O1_9 
REMARK    3  A    between atoms: N1_10  and  C9_11 
REMARK    4  A    between atoms: C9_11  and  C10_12 
REMARK    5  A    between atoms: C15_17  and  O2_18 
REMARK    6  A    between atoms: N2_19  and  O3_20 
ROOT
HETATM    1  C1  UNL     1      20.929   0.851  53.465  1.00  0.00     0.047 C 
HETATM    2  C2  UNL     1      22.196   0.762  53.158  1.00  0.00     0.074 A 
HETATM    3  C3  UNL     1      22.952   1.756  52.416  1.00  0.00     0.065 A 
HETATM    4  C4  UNL     1      24.198   1.354  52.268  1.00  0.00     0.069 A 
HETATM    5  N1  UNL     1      24.493   0.101  52.846  1.00  0.00    -0.261 N 
HETATM    6  N2  UNL     1      23.198  -0.227  53.393  1.00  0.00    -0.160 N 
ENDROOT
BRANCH   5   7
HETATM    7  C9  UNL     1      25.453  -0.888  53.120  1.00  0.00     0.193 C 
BRANCH   7   8
HETATM    8  C10 UNL     1      26.804  -0.529  53.526  1.00  0.00    -0.005 A 
HETATM    9  C11 UNL     1      27.703  -1.411  52.895  1.00  0.00     0.012 A 
HETATM   10  C12 UNL     1      29.071  -1.435  53.122  1.00  0.00     0.001 A 
HETATM   11  C13 UNL     1      29.648  -0.553  54.024  1.00  0.00     0.003 A 
HETATM   12  C14 UNL     1      28.814   0.330  54.666  1.00  0.00     0.037 A 
HETATM   13  C15 UNL     1      27.470   0.304  54.396  1.00  0.00     0.073 A 
BRANCH  13  14
HETATM   14  O2  UNL     1      26.545   1.173  54.990  1.00  0.00    -0.360 OA
HETATM   15  H13 UNL     1      25.612   1.235  54.554  1.00  0.00     0.217 HD
ENDBRANCH  13  14
ENDBRANCH   7   8
ENDBRANCH   5   7
BRANCH   4  16
HETATM   16  C5  UNL     1      25.243   2.079  51.585  1.00  0.00     0.025 A 
HETATM   17  C6  UNL     1      26.509   2.418  51.583  1.00  0.00     0.019 A 
HETATM   18  C7  UNL     1      26.493   3.215  50.367  1.00  0.00     0.038 A 
HETATM   19  C8  UNL     1      25.209   2.880  50.354  1.00  0.00     0.078 A 
BRANCH  19  20
HETATM   20  O1  UNL     1      24.214   3.235  49.415  1.00  0.00    -0.360 OA
HETATM   21  H6  UNL     1      23.750   2.496  48.893  1.00  0.00     0.217 HD
ENDBRANCH  19  20
ENDBRANCH   4  16
BRANCH   6  22
HETATM   22  O3  UNL     1      22.728  -1.303  54.115  1.00  0.00    -0.263 OA
HETATM   23  C16 UNL     1      23.077  -1.193  55.448  1.00  0.00     0.240 C 
ENDBRANCH   6  22
TORSDOF 6
ENDMDL
MODEL 4
REMARK VINA RESULT:      -7.2      1.260      5.167
REMARK  6 active torsions:
REMARK  status: ('A' for Active; 'I' for Inactive)
REMARK    1  A    between atoms: C4_4  and  C5_5 
REMARK    2  A    between atoms: C8_8  and  O1_9 
REMARK    3  A    between atoms: N1_10  and  C9_11 
REMARK    4  A    between atoms: C9_11  and  C10_12 
REMARK    5  A    between atoms: C15_17  and  O2_18 
REMARK    6  A    between atoms: N2_19  and  O3_20 
ROOT
HETATM    1  C1  UNL     1      29.655   1.921  54.513  1.00  0.00     0.047 C 
HETATM    2  C2  UNL     1      28.582   1.639  53.823  1.00  0.00     0.074 A 
HETATM    3  C3  UNL     1      27.904   2.550  52.918  1.00  0.00     0.065 A 
HETATM    4  C4  UNL     1      26.851   1.959  52.392  1.00  0.00     0.069 A 
HETATM    5  N1  UNL     1      26.641   0.629  52.814  1.00  0.00    -0.261 N 
HETATM    6  N2  UNL     1      27.760   0.478  53.714  1.00  0.00    -0.160 N 
ENDROOT
BRANCH   5   7
HETATM    7  C9  UNL     1      25.872  -0.543  52.719  1.00  0.00     0.193 C 
BRANCH   7   8
HETATM    8  C10 UNL     1      24.685  -0.729  53.541  1.00  0.00    -0.005 A 
HETATM    9  C11 UNL     1      23.553  -0.457  52.749  1.00  0.00     0.012 A 
HETATM   10  C12 UNL     1      22.249  -0.435  53.222  1.00  0.00     0.001 A 
HETATM   11  C13 UNL     1      21.983  -0.690  54.559  1.00  0.00     0.003 A 
HETATM   12  C14 UNL     1      23.054  -0.963  55.375  1.00  0.00     0.037 A 
HETATM   13  C15 UNL     1      24.319  -0.971  54.846  1.00  0.00     0.073 A 
BRANCH  13  14
HETATM   14  O2  UNL     1      25.469  -1.252  55.595  1.00  0.00    -0.360 OA
HETATM   15  H13 UNL     1      26.043  -2.054  55.292  1.00  0.00     0.217 HD
ENDBRANCH  13  14
ENDBRANCH   7   8
ENDBRANCH   5   7
BRANCH   4  16
HETATM   16  C5  UNL     1      25.934   2.552  51.447  1.00  0.00     0.025 A 
HETATM   17  C6  UNL     1      24.688   2.643  51.052  1.00  0.00     0.019 A 
HETATM   18  C7  UNL     1      24.903   3.564  49.947  1.00  0.00     0.038 A 
HETATM   19  C8  UNL     1      26.169   3.483  50.336  1.00  0.00     0.078 A 
BRANCH  19  20
HETATM   20  O1  UNL     1      27.303   4.124  49.787  1.00  0.00    -0.360 OA
HETATM   21  H6  UNL     1      27.581   5.028  50.161  1.00  0.00     0.217 HD
ENDBRANCH  19  20
ENDBRANCH   4  16
BRANCH   6  22
HETATM   22  O3  UNL     1      28.210  -0.570  54.486  1.00  0.00    -0.263 OA
HETATM   23  C16 UNL     1      29.157  -1.313  53.807  1.00  0.00     0.240 C 
ENDBRANCH   6  22
TORSDOF 6
ENDMDL
MODEL 5
REMARK VINA RESULT:      -7.1      1.842      5.962
REMARK  6 active torsions:
REMARK  status: ('A' for Active; 'I' for Inactive)
REMARK    1  A    between atoms: C4_4  and  C5_5 
REMARK    2  A    between atoms: C8_8  and  O1_9 
REMARK    3  A    between atoms: N1_10  and  C9_11 
REMARK    4  A    between atoms: C9_11  and  C10_12 
REMARK    5  A    between atoms: C15_17  and  O2_18 
REMARK    6  A    between atoms: N2_19  and  O3_20 
ROOT
HETATM    1  C1  UNL     1      21.046   1.025  50.611  1.00  0.00     0.047 C 
HETATM    2  C2  UNL     1      22.234   1.473  50.921  1.00  0.00     0.074 A 
HETATM    3  C3  UNL     1      23.112   2.210  50.030  1.00  0.00     0.065 A 
HETATM    4  C4  UNL     1      24.237   2.503  50.648  1.00  0.00     0.069 A 
HETATM    5  N1  UNL     1      24.320   2.050  51.983  1.00  0.00    -0.261 N 
HETATM    6  N2  UNL     1      23.032   1.408  52.103  1.00  0.00    -0.160 N 
ENDROOT
BRANCH   5   7
HETATM    7  C9  UNL     1      25.062   1.982  53.174  1.00  0.00     0.193 C 
BRANCH   7   8
HETATM    8  C10 UNL     1      26.357   1.319  53.213  1.00  0.00    -0.005 A 
HETATM    9  C11 UNL     1      26.191   0.000  52.746  1.00  0.00     0.012 A 
HETATM   10  C12 UNL     1      27.191  -0.961  52.736  1.00  0.00     0.001 A 
HETATM   11  C13 UNL     1      28.460  -0.660  53.206  1.00  0.00     0.003 A 
HETATM   12  C14 UNL     1      28.674   0.615  53.673  1.00  0.00     0.037 A 
HETATM   13  C15 UNL     1      27.645   1.521  53.655  1.00  0.00     0.073 A 
BRANCH  13  14
HETATM   14  O2  UNL     1      27.771   2.844  54.095  1.00  0.00    -0.360 OA
HETATM   15  H13 UNL     1      27.958   3.562  53.378  1.00  0.00     0.217 HD
ENDBRANCH  13  14
ENDBRANCH   7   8
ENDBRANCH   5   7
BRANCH   4  16
HETATM   16  C5  UNL     1      25.348   3.229  50.081  1.00  0.00     0.025 A 
HETATM   17  C6  UNL     1      26.455   3.153  49.383  1.00  0.00     0.019 A 
HETATM   18  C7  UNL     1      26.798   4.566  49.412  1.00  0.00     0.038 A 
HETATM   19  C8  UNL     1      25.680   4.660  50.120  1.00  0.00     0.078 A 
BRANCH  19  20
HETATM   20  O1  UNL     1      25.088   5.812  50.686  1.00  0.00    -0.360 OA
HETATM   21  H6  UNL     1      25.503   6.214  51.522  1.00  0.00     0.217 HD
ENDBRANCH  19  20
ENDBRANCH   4  16
BRANCH   6  22
HETATM   22  O3  UNL     1      22.402   0.751  53.138  1.00  0.00    -0.263 OA
HETATM   23  C16 UNL     1      22.681  -0.602  53.107  1.00  0.00     0.240 C 
ENDBRANCH   6  22
TORSDOF 6
ENDMDL
MODEL 6
REMARK VINA RESULT:      -7.0      2.270      4.488
REMARK  6 active torsions:
REMARK  status: ('A' for Active; 'I' for Inactive)
REMARK    1  A    between atoms: C4_4  and  C5_5 
REMARK    2  A    between atoms: C8_8  and  O1_9 
REMARK    3  A    between atoms: N1_10  and  C9_11 
REMARK    4  A    between atoms: C9_11  and  C10_12 
REMARK    5  A    between atoms: C15_17  and  O2_18 
REMARK    6  A    between atoms: N2_19  and  O3_20 
ROOT
HETATM    1  C1  UNL     1      21.546  -1.737  54.509  1.00  0.00     0.047 C 
HETATM    2  C2  UNL     1      22.170  -0.749  53.924  1.00  0.00     0.074 A 
HETATM    3  C3  UNL     1      23.594  -0.703  53.646  1.00  0.00     0.065 A 
HETATM    4  C4  UNL     1      23.900   0.436  53.059  1.00  0.00     0.069 A 
HETATM    5  N1  UNL     1      22.811   1.308  52.843  1.00  0.00    -0.261 N 
HETATM    6  N2  UNL     1      21.746   0.512  53.407  1.00  0.00    -0.160 N 
ENDROOT
BRANCH   5   7
HETATM    7  C9  UNL     1      22.348   2.529  52.326  1.00  0.00     0.193 C 
BRANCH   7   8
HETATM    8  C10 UNL     1      23.188   3.344  51.461  1.00  0.00    -0.005 A 
HETATM    9  C11 UNL     1      23.168   2.780  50.170  1.00  0.00     0.012 A 
HETATM   10  C12 UNL     1      23.933   3.230  49.104  1.00  0.00     0.001 A 
HETATM   11  C13 UNL     1      24.795   4.305  49.262  1.00  0.00     0.003 A 
HETATM   12  C14 UNL     1      24.851   4.891  50.504  1.00  0.00     0.037 A 
HETATM   13  C15 UNL     1      24.068   4.401  51.517  1.00  0.00     0.073 A 
BRANCH  13  14
HETATM   14  O2  UNL     1      24.047   4.941  52.809  1.00  0.00    -0.360 OA
HETATM   15  H13 UNL     1      24.932   4.930  53.338  1.00  0.00     0.217 HD
ENDBRANCH  13  14
ENDBRANCH   7   8
ENDBRANCH   5   7
BRANCH   4  16
HETATM   16  C5  UNL     1      25.220   0.838  52.632  1.00  0.00     0.025 A 
HETATM   17  C6  UNL     1      26.211   0.612  51.806  1.00  0.00     0.019 A 
HETATM   18  C7  UNL     1      27.099   1.664  52.278  1.00  0.00     0.038 A 
HETATM   19  C8  UNL     1      26.103   1.905  53.121  1.00  0.00     0.078 A 
BRANCH  19  20
HETATM   20  O1  UNL     1      26.020   2.893  54.129  1.00  0.00    -0.360 OA
HETATM   21  H6  UNL     1      25.462   2.701  54.956  1.00  0.00     0.217 HD
ENDBRANCH  19  20
ENDBRANCH   4  16
BRANCH   6  22
HETATM   22  O3  UNL     1      20.390   0.715  53.537  1.00  0.00    -0.263 OA
HETATM   23  C16 UNL     1      19.714   0.272  52.415  1.00  0.00     0.240 C 
ENDBRANCH   6  22
TORSDOF 6
ENDMDL
MODEL 7
REMARK VINA RESULT:      -6.9      2.293      5.295
REMARK  6 active torsions:
REMARK  status: ('A' for Active; 'I' for Inactive)
REMARK    1  A    between atoms: C4_4  and  C5_5 
REMARK    2  A    between atoms: C8_8  and  O1_9 
REMARK    3  A    between atoms: N1_10  and  C9_11 
REMARK    4  A    between atoms: C9_11  and  C10_12 
REMARK    5  A    between atoms: C15_17  and  O2_18 
REMARK    6  A    between atoms: N2_19  and  O3_20 
ROOT
HETATM    1  C1  UNL     1      25.777   4.775  49.010  1.00  0.00     0.047 C 
HETATM    2  C2  UNL     1      25.721   4.014  50.071  1.00  0.00     0.074 A 
HETATM    3  C3  UNL     1      26.768   3.109  50.511  1.00  0.00     0.065 A 
HETATM    4  C4  UNL     1      26.389   2.483  51.606  1.00  0.00     0.069 A 
HETATM    5  N1  UNL     1      25.105   2.829  52.078  1.00  0.00    -0.261 N 
HETATM    6  N2  UNL     1      24.729   3.796  51.074  1.00  0.00    -0.160 N 
ENDROOT
BRANCH   5   7
HETATM    7  C9  UNL     1      24.110   2.662  53.056  1.00  0.00     0.193 C 
BRANCH   7   8
HETATM    8  C10 UNL     1      23.089   1.634  52.920  1.00  0.00    -0.005 A 
HETATM    9  C11 UNL     1      23.591   0.439  53.472  1.00  0.00     0.012 A 
HETATM   10  C12 UNL     1      22.933  -0.781  53.432  1.00  0.00     0.001 A 
HETATM   11  C13 UNL     1      21.695  -0.892  52.817  1.00  0.00     0.003 A 
HETATM   12  C14 UNL     1      21.161   0.246  52.263  1.00  0.00     0.037 A 
HETATM   13  C15 UNL     1      21.860   1.423  52.337  1.00  0.00     0.073 A 
BRANCH  13  14
HETATM   14  O2  UNL     1      21.391   2.636  51.815  1.00  0.00    -0.360 OA
HETATM   15  H13 UNL     1      21.685   2.880  50.857  1.00  0.00     0.217 HD
ENDBRANCH  13  14
ENDBRANCH   7   8
ENDBRANCH   5   7
BRANCH   4  16
HETATM   16  C5  UNL     1      27.168   1.508  52.333  1.00  0.00     0.025 A 
HETATM   17  C6  UNL     1      27.272   0.254  52.700  1.00  0.00     0.019 A 
HETATM   18  C7  UNL     1      28.506   0.377  53.459  1.00  0.00     0.038 A 
HETATM   19  C8  UNL     1      28.415   1.651  53.096  1.00  0.00     0.078 A 
BRANCH  19  20
HETATM   20  O1  UNL     1      29.288   2.720  53.400  1.00  0.00    -0.360 OA
HETATM   21  H6  UNL     1      28.944   3.483  53.977  1.00  0.00     0.217 HD
ENDBRANCH  19  20
ENDBRANCH   4  16
BRANCH   6  22
HETATM   22  O3  UNL     1      23.604   4.571  50.890  1.00  0.00    -0.263 OA
HETATM   23  C16 UNL     1      23.710   5.766  51.577  1.00  0.00     0.240 C 
ENDBRANCH   6  22
TORSDOF 6
ENDMDL
MODEL 8
REMARK VINA RESULT:      -6.8      1.595      2.013
REMARK  6 active torsions:
REMARK  status: ('A' for Active; 'I' for Inactive)
REMARK    1  A    between atoms: C4_4  and  C5_5 
REMARK    2  A    between atoms: C8_8  and  O1_9 
REMARK    3  A    between atoms: N1_10  and  C9_11 
REMARK    4  A    between atoms: C9_11  and  C10_12 
REMARK    5  A    between atoms: C15_17  and  O2_18 
REMARK    6  A    between atoms: N2_19  and  O3_20 
ROOT
HETATM    1  C1  UNL     1      27.946  -0.529  53.751  1.00  0.00     0.047 C 
HETATM    2  C2  UNL     1      26.721  -0.229  53.407  1.00  0.00     0.074 A 
HETATM    3  C3  UNL     1      25.521  -0.751  54.036  1.00  0.00     0.065 A 
HETATM    4  C4  UNL     1      24.453  -0.257  53.443  1.00  0.00     0.069 A 
HETATM    5  N1  UNL     1      24.718   0.631  52.379  1.00  0.00    -0.261 N 
HETATM    6  N2  UNL     1      26.162   0.613  52.399  1.00  0.00    -0.160 N 
ENDROOT
BRANCH   5   7
HETATM    7  C9  UNL     1      24.209   1.488  51.389  1.00  0.00     0.193 C 
BRANCH   7   8
HETATM    8  C10 UNL     1      23.284   2.559  51.728  1.00  0.00    -0.005 A 
HETATM    9  C11 UNL     1      22.073   2.327  51.046  1.00  0.00     0.012 A 
HETATM   10  C12 UNL     1      20.991   3.195  51.050  1.00  0.00     0.001 A 
HETATM   11  C13 UNL     1      21.050   4.388  51.753  1.00  0.00     0.003 A 
HETATM   12  C14 UNL     1      22.211   4.662  52.436  1.00  0.00     0.037 A 
HETATM   13  C15 UNL     1      23.245   3.763  52.395  1.00  0.00     0.073 A 
BRANCH  13  14
HETATM   14  O2  UNL     1      24.458   3.947  53.069  1.00  0.00    -0.360 OA
HETATM   15  H13 UNL     1      24.407   4.234  54.059  1.00  0.00     0.217 HD
ENDBRANCH  13  14
ENDBRANCH   7   8
ENDBRANCH   5   7
BRANCH   4  16
HETATM   16  C5  UNL     1      23.083  -0.547  53.795  1.00  0.00     0.025 A 
HETATM   17  C6  UNL     1      21.822  -0.394  53.473  1.00  0.00     0.019 A 
HETATM   18  C7  UNL     1      21.248  -1.136  54.585  1.00  0.00     0.038 A 
HETATM   19  C8  UNL     1      22.521  -1.300  54.924  1.00  0.00     0.078 A 
BRANCH  19  20
HETATM   20  O1  UNL     1      23.056  -1.991  56.035  1.00  0.00    -0.360 OA
HETATM   21  H6  UNL     1      22.966  -1.575  56.958  1.00  0.00     0.217 HD
ENDBRANCH  19  20
ENDBRANCH   4  16
BRANCH   6  22
HETATM   22  O3  UNL     1      27.120   1.258  51.648  1.00  0.00    -0.263 OA
HETATM   23  C16 UNL     1      27.509   2.439  52.252  1.00  0.00     0.240 C 
ENDBRANCH   6  22
TORSDOF 6
ENDMDL
MODEL 9
REMARK VINA RESULT:      -6.7      2.803      3.981
REMARK  6 active torsions:
REMARK  status: ('A' for Active; 'I' for Inactive)
REMARK    1  A    between atoms: C4_4  and  C5_5 
REMARK    2  A    between atoms: C8_8  and  O1_9 
REMARK    3  A    between atoms: N1_10  and  C9_11 
REMARK    4  A    between atoms: C9_11  and  C10_12 
REMARK    5  A    between atoms: C15_17  and  O2_18 
REMARK    6  A    between atoms: N2_19  and  O3_20 
ROOT
HETATM    1  C1  UNL     1      23.410  -1.528  55.658  1.00  0.00     0.047 C 
HETATM    2  C2  UNL     1      22.870  -0.926  54.632  1.00  0.00     0.074 A 
HETATM    3  C3  UNL     1      21.479  -1.038  54.230  1.00  0.00     0.065 A 
HETATM    4  C4  UNL     1      21.265  -0.315  53.150  1.00  0.00     0.069 A 
HETATM    5  N1  UNL     1      22.395   0.372  52.658  1.00  0.00    -0.261 N 
HETATM    6  N2  UNL     1      23.378  -0.048  53.628  1.00  0.00    -0.160 N 
ENDROOT
BRANCH   5   7
HETATM    7  C9  UNL     1      22.931   1.253  51.703  1.00  0.00     0.193 C 
BRANCH   7   8
HETATM    8  C10 UNL     1      22.858   2.695  51.890  1.00  0.00    -0.005 A 
HETATM    9  C11 UNL     1      21.737   3.174  51.184  1.00  0.00     0.012 A 
HETATM   10  C12 UNL     1      21.407   4.515  51.051  1.00  0.00     0.001 A 
HETATM   11  C13 UNL     1      22.200   5.494  51.630  1.00  0.00     0.003 A 
HETATM   12  C14 UNL     1      23.307   5.078  52.330  1.00  0.00     0.037 A 
HETATM   13  C15 UNL     1      23.578   3.738  52.427  1.00  0.00     0.073 A 
BRANCH  13  14
HETATM   14  O2  UNL     1      24.672   3.219  53.131  1.00  0.00    -0.360 OA
HETATM   15  H13 UNL     1      25.602   3.609  52.909  1.00  0.00     0.217 HD
ENDBRANCH  13  14
ENDBRANCH   7   8
ENDBRANCH   5   7
BRANCH   4  16
HETATM   16  C5  UNL     1      20.003  -0.180  52.462  1.00  0.00     0.025 A 
HETATM   17  C6  UNL     1      19.394   0.239  51.380  1.00  0.00     0.019 A 
HETATM   18  C7  UNL     1      18.042  -0.136  51.762  1.00  0.00     0.038 A 
HETATM   19  C8  UNL     1      18.644  -0.565  52.865  1.00  0.00     0.078 A 
BRANCH  19  20
HETATM   20  O1  UNL     1      18.070  -1.178  54.002  1.00  0.00    -0.360 OA
HETATM   21  H6  UNL     1      17.932  -2.186  53.995  1.00  0.00     0.217 HD
ENDBRANCH  19  20
ENDBRANCH   4  16
BRANCH   6  22
HETATM   22  O3  UNL     1      24.716   0.239  53.796  1.00  0.00    -0.263 OA
HETATM   23  C16 UNL     1      25.500  -0.593  53.020  1.00  0.00     0.240 C 
ENDBRANCH   6  22
TORSDOF 6
ENDMDL
