MODEL 1
REMARK VINA RESULT:      -9.7      0.000      0.000
REMARK  3 active torsions:
REMARK  status: ('A' for Active; 'I' for Inactive)
REMARK    1  A    between atoms: C4_5  and  C5_6 
REMARK    2  A    between atoms: C12_14  and  C13_15 
REMARK    3  A    between atoms: C13_15  and  N2_16 
ROOT
HETATM    1  C5  UNL     1      22.036   1.134  52.528  1.00  0.00     0.007 C 
HETATM    2  C6  UNL     1      22.746   0.048  52.777  1.00  0.00     0.061 C 
HETATM    3  C7  UNL     1      22.115  -1.314  53.091  1.00  0.00     0.075 C 
HETATM    4  C8  UNL     1      21.797  -0.953  54.587  1.00  0.00     0.032 C 
HETATM    5  C9  UNL     1      20.801   0.175  54.374  1.00  0.00    -0.019 C 
HETATM    6  C10 UNL     1      20.890   1.194  53.476  1.00  0.00     0.011 C 
HETATM    7  C11 UNL     1      23.107  -0.460  55.148  1.00  0.00     0.125 C 
HETATM    8  N1  UNL     1      24.294  -1.113  54.732  1.00  0.00    -0.394 N 
HETATM    9  C12 UNL     1      25.062  -0.516  53.662  1.00  0.00     0.251 C 
HETATM   10  O2  UNL     1      24.158   0.180  52.758  1.00  0.00    -0.328 OA
HETATM   11  H11 UNL     1      24.211  -2.148  54.630  1.00  0.00     0.155 HD
ENDROOT
BRANCH   1  12
HETATM   12  C4  UNL     1      22.499   1.964  51.470  1.00  0.00     0.024 C 
HETATM   13  C3  UNL     1      22.327   1.499  50.241  1.00  0.00    -0.003 C 
HETATM   14  C2  UNL     1      22.651   2.019  48.871  1.00  0.00     0.112 C 
HETATM   15  C1  UNL     1      22.242   3.464  48.746  1.00  0.00     0.164 C 
HETATM   16  O1  UNL     1      21.467   3.829  47.796  1.00  0.00    -0.292 OA
HETATM   17  C25 UNL     1      22.642   4.577  49.627  1.00  0.00     0.024 A 
HETATM   18  C20 UNL     1      23.071   4.469  50.955  1.00  0.00     0.029 A 
HETATM   19  C24 UNL     1      22.578   5.811  49.033  1.00  0.00     0.016 A 
HETATM   20  C19 UNL     1      23.181   3.217  51.709  1.00  0.00     0.194 C 
HETATM   21  C21 UNL     1      23.442   5.523  51.733  1.00  0.00     0.016 A 
HETATM   22  O3  UNL     1      23.976   3.178  52.721  1.00  0.00    -0.287 OA
HETATM   23  C22 UNL     1      23.375   6.768  51.126  1.00  0.00     0.001 A 
HETATM   24  C23 UNL     1      22.950   6.901  49.802  1.00  0.00     0.001 A 
ENDBRANCH   1  12
BRANCH   9  25
HETATM   25  C13 UNL     1      26.064   0.433  54.255  1.00  0.00     0.325 C 
BRANCH  25  26
HETATM   26  N2  UNL     1      27.378  -0.191  54.253  1.00  0.00     0.092 N 
HETATM   27  C14 UNL     1      27.585  -0.819  52.950  1.00  0.00     0.272 C 
HETATM   28  C15 UNL     1      28.688  -1.838  53.127  1.00  0.00     0.030 C 
HETATM   29  C16 UNL     1      29.915  -1.139  53.677  1.00  0.00     0.003 C 
HETATM   30  C17 UNL     1      29.697   0.338  53.659  1.00  0.00     0.030 C 
HETATM   31  C18 UNL     1      28.455   0.780  54.434  1.00  0.00     0.272 C 
ENDBRANCH  25  26
ENDBRANCH   9  25
TORSDOF 3
ENDMDL
MODEL 2
REMARK VINA RESULT:      -9.4      1.448      2.356
REMARK  3 active torsions:
REMARK  status: ('A' for Active; 'I' for Inactive)
REMARK    1  A    between atoms: C4_5  and  C5_6 
REMARK    2  A    between atoms: C12_14  and  C13_15 
REMARK    3  A    between atoms: C13_15  and  N2_16 
ROOT
HETATM    1  C5  UNL     1      21.944   0.935  53.250  1.00  0.00     0.007 C 
HETATM    2  C6  UNL     1      22.813  -0.054  53.138  1.00  0.00     0.061 C 
HETATM    3  C7  UNL     1      22.410  -1.533  53.178  1.00  0.00     0.075 C 
HETATM    4  C8  UNL     1      22.281  -1.577  54.743  1.00  0.00     0.032 C 
HETATM    5  C9  UNL     1      21.132  -0.600  54.934  1.00  0.00    -0.019 C 
HETATM    6  C10 UNL     1      20.957   0.597  54.312  1.00  0.00     0.011 C 
HETATM    7  C11 UNL     1      23.589  -1.025  55.252  1.00  0.00     0.125 C 
HETATM    8  N1  UNL     1      24.771  -1.372  54.550  1.00  0.00    -0.394 N 
HETATM    9  C12 UNL     1      25.289  -0.434  53.579  1.00  0.00     0.251 C 
HETATM   10  O2  UNL     1      24.178   0.299  52.987  1.00  0.00    -0.328 OA
HETATM   11  H11 UNL     1      24.803  -2.357  54.207  1.00  0.00     0.155 HD
ENDROOT
BRANCH   1  12
HETATM   12  C4  UNL     1      22.135   2.047  52.383  1.00  0.00     0.024 C 
HETATM   13  C3  UNL     1      23.007   2.960  52.784  1.00  0.00    -0.003 C 
HETATM   14  C2  UNL     1      23.506   4.253  52.208  1.00  0.00     0.112 C 
HETATM   15  C1  UNL     1      23.840   4.086  50.749  1.00  0.00     0.164 C 
HETATM   16  O1  UNL     1      25.001   4.404  50.318  1.00  0.00    -0.292 OA
HETATM   17  C25 UNL     1      22.950   3.573  49.690  1.00  0.00     0.024 A 
HETATM   18  C20 UNL     1      21.840   2.740  49.873  1.00  0.00     0.029 A 
HETATM   19  C24 UNL     1      23.283   3.992  48.428  1.00  0.00     0.016 A 
HETATM   20  C19 UNL     1      21.378   2.216  51.163  1.00  0.00     0.194 C 
HETATM   21  C21 UNL     1      21.037   2.295  48.868  1.00  0.00     0.016 A 
HETATM   22  O3  UNL     1      20.149   1.851  51.271  1.00  0.00    -0.287 OA
HETATM   23  C22 UNL     1      21.378   2.723  47.595  1.00  0.00     0.001 A 
HETATM   24  C23 UNL     1      22.482   3.555  47.387  1.00  0.00     0.001 A 
ENDBRANCH   1  12
BRANCH   9  25
HETATM   25  C13 UNL     1      26.243   0.501  54.266  1.00  0.00     0.325 C 
BRANCH  25  26
HETATM   26  N2  UNL     1      27.571  -0.093  54.281  1.00  0.00     0.092 N 
HETATM   27  C14 UNL     1      27.786  -0.766  53.001  1.00  0.00     0.272 C 
HETATM   28  C15 UNL     1      28.913  -1.751  53.211  1.00  0.00     0.030 C 
HETATM   29  C16 UNL     1      30.126  -1.004  53.726  1.00  0.00     0.003 C 
HETATM   30  C17 UNL     1      29.873   0.466  53.652  1.00  0.00     0.030 C 
HETATM   31  C18 UNL     1      28.626   0.909  54.417  1.00  0.00     0.272 C 
ENDBRANCH  25  26
ENDBRANCH   9  25
TORSDOF 3
ENDMDL
MODEL 3
REMARK VINA RESULT:      -9.3      2.586      6.979
REMARK  3 active torsions:
REMARK  status: ('A' for Active; 'I' for Inactive)
REMARK    1  A    between atoms: C4_5  and  C5_6 
REMARK    2  A    between atoms: C12_14  and  C13_15 
REMARK    3  A    between atoms: C13_15  and  N2_16 
ROOT
HETATM    1  C5  UNL     1      23.480  -0.055  53.631  1.00  0.00     0.007 C 
HETATM    2  C6  UNL     1      22.484   0.719  53.240  1.00  0.00     0.061 C 
HETATM    3  C7  UNL     1      21.299   1.083  54.143  1.00  0.00     0.075 C 
HETATM    4  C8  UNL     1      20.563  -0.288  53.929  1.00  0.00     0.032 C 
HETATM    5  C9  UNL     1      21.578  -1.226  54.561  1.00  0.00    -0.019 C 
HETATM    6  C10 UNL     1      22.931  -1.197  54.412  1.00  0.00     0.011 C 
HETATM    7  C11 UNL     1      20.487  -0.453  52.432  1.00  0.00     0.125 C 
HETATM    8  N1  UNL     1      20.239   0.703  51.650  1.00  0.00    -0.394 N 
HETATM    9  C12 UNL     1      21.369   1.377  51.051  1.00  0.00     0.251 C 
HETATM   10  O2  UNL     1      22.532   1.213  51.911  1.00  0.00    -0.328 OA
HETATM   11  H11 UNL     1      19.552   1.372  52.063  1.00  0.00     0.155 HD
ENDROOT
BRANCH   1  12
HETATM   12  C4  UNL     1      24.786   0.348  53.239  1.00  0.00     0.024 C 
HETATM   13  C3  UNL     1      25.013   1.653  53.207  1.00  0.00    -0.003 C 
HETATM   14  C2  UNL     1      26.204   2.499  52.863  1.00  0.00     0.112 C 
HETATM   15  C1  UNL     1      27.444   1.957  53.525  1.00  0.00     0.164 C 
HETATM   16  O1  UNL     1      28.158   2.718  54.265  1.00  0.00    -0.292 OA
HETATM   17  C25 UNL     1      27.973   0.584  53.425  1.00  0.00     0.024 A 
HETATM   18  C20 UNL     1      27.239  -0.565  53.107  1.00  0.00     0.029 A 
HETATM   19  C24 UNL     1      29.319   0.485  53.667  1.00  0.00     0.016 A 
HETATM   20  C19 UNL     1      25.800  -0.600  52.832  1.00  0.00     0.194 C 
HETATM   21  C21 UNL     1      27.769  -1.816  53.016  1.00  0.00     0.016 A 
HETATM   22  O3  UNL     1      25.332  -1.580  52.140  1.00  0.00    -0.287 OA
HETATM   23  C22 UNL     1      29.130  -1.910  53.261  1.00  0.00     0.001 A 
HETATM   24  C23 UNL     1      29.883  -0.777  53.580  1.00  0.00     0.001 A 
ENDBRANCH   1  12
BRANCH   9  25
HETATM   25  C13 UNL     1      21.621   0.791  49.691  1.00  0.00     0.325 C 
BRANCH  25  26
HETATM   26  N2  UNL     1      21.652   1.859  48.705  1.00  0.00     0.092 N 
HETATM   27  C14 UNL     1      20.649   2.855  49.076  1.00  0.00     0.272 C 
HETATM   28  C15 UNL     1      20.362   3.668  47.834  1.00  0.00     0.030 C 
HETATM   29  C16 UNL     1      21.661   4.261  47.326  1.00  0.00     0.003 C 
HETATM   30  C17 UNL     1      22.742   4.023  48.329  1.00  0.00     0.030 C 
HETATM   31  C18 UNL     1      22.942   2.546  48.670  1.00  0.00     0.272 C 
ENDBRANCH  25  26
ENDBRANCH   9  25
TORSDOF 3
ENDMDL
MODEL 4
REMARK VINA RESULT:      -8.8      2.892      7.461
REMARK  3 active torsions:
REMARK  status: ('A' for Active; 'I' for Inactive)
REMARK    1  A    between atoms: C4_5  and  C5_6 
REMARK    2  A    between atoms: C12_14  and  C13_15 
REMARK    3  A    between atoms: C13_15  and  N2_16 
ROOT
HETATM    1  C5  UNL     1      23.185   2.962  49.954  1.00  0.00     0.007 C 
HETATM    2  C6  UNL     1      22.420   2.256  49.141  1.00  0.00     0.061 C 
HETATM    3  C7  UNL     1      22.616   2.227  47.620  1.00  0.00     0.075 C 
HETATM    4  C8  UNL     1      21.910   3.610  47.384  1.00  0.00     0.032 C 
HETATM    5  C9  UNL     1      22.872   4.520  48.131  1.00  0.00    -0.019 C 
HETATM    6  C10 UNL     1      23.446   4.294  49.344  1.00  0.00     0.011 C 
HETATM    7  C11 UNL     1      20.581   3.487  48.086  1.00  0.00     0.125 C 
HETATM    8  N1  UNL     1      19.910   2.240  48.017  1.00  0.00    -0.394 N 
HETATM    9  C12 UNL     1      20.054   1.326  49.129  1.00  0.00     0.251 C 
HETATM   10  O2  UNL     1      21.368   1.509  49.729  1.00  0.00    -0.328 OA
HETATM   11  H11 UNL     1      19.977   1.756  47.095  1.00  0.00     0.155 HD
ENDROOT
BRANCH   1  12
HETATM   12  C4  UNL     1      23.568   2.330  51.170  1.00  0.00     0.024 C 
HETATM   13  C3  UNL     1      22.586   2.015  52.002  1.00  0.00    -0.003 C 
HETATM   14  C2  UNL     1      22.527   1.360  53.351  1.00  0.00     0.112 C 
HETATM   15  C1  UNL     1      23.400   0.132  53.379  1.00  0.00     0.164 C 
HETATM   16  O1  UNL     1      22.907  -0.994  53.729  1.00  0.00    -0.292 OA
HETATM   17  C25 UNL     1      24.832   0.056  53.035  1.00  0.00     0.024 A 
HETATM   18  C20 UNL     1      25.533   0.942  52.208  1.00  0.00     0.029 A 
HETATM   19  C24 UNL     1      25.491  -0.995  53.617  1.00  0.00     0.016 A 
HETATM   20  C19 UNL     1      24.952   2.100  51.522  1.00  0.00     0.194 C 
HETATM   21  C21 UNL     1      26.861   0.841  51.923  1.00  0.00     0.016 A 
HETATM   22  O3  UNL     1      25.733   3.060  51.171  1.00  0.00    -0.287 OA
HETATM   23  C22 UNL     1      27.522  -0.224  52.514  1.00  0.00     0.001 A 
HETATM   24  C23 UNL     1      26.843  -1.121  53.343  1.00  0.00     0.001 A 
ENDBRANCH   1  12
BRANCH   9  25
HETATM   25  C13 UNL     1      18.965   1.599  50.127  1.00  0.00     0.325 C 
BRANCH  25  26
HETATM   26  N2  UNL     1      18.767   0.420  50.956  1.00  0.00     0.092 N 
HETATM   27  C14 UNL     1      19.061   0.780  52.342  1.00  0.00     0.272 C 
HETATM   28  C15 UNL     1      19.321  -0.511  53.082  1.00  0.00     0.030 C 
HETATM   29  C16 UNL     1      18.118  -1.418  52.923  1.00  0.00     0.003 C 
HETATM   30  C17 UNL     1      17.006  -0.659  52.277  1.00  0.00     0.030 C 
HETATM   31  C18 UNL     1      17.385  -0.056  50.924  1.00  0.00     0.272 C 
ENDBRANCH  25  26
ENDBRANCH   9  25
TORSDOF 3
ENDMDL
MODEL 5
REMARK VINA RESULT:      -8.7      2.113      5.342
REMARK  3 active torsions:
REMARK  status: ('A' for Active; 'I' for Inactive)
REMARK    1  A    between atoms: C4_5  and  C5_6 
REMARK    2  A    between atoms: C12_14  and  C13_15 
REMARK    3  A    between atoms: C13_15  and  N2_16 
ROOT
HETATM    1  C5  UNL     1      24.842   2.734  51.590  1.00  0.00     0.007 C 
HETATM    2  C6  UNL     1      24.703   2.117  52.750  1.00  0.00     0.061 C 
HETATM    3  C7  UNL     1      25.831   2.008  53.783  1.00  0.00     0.075 C 
HETATM    4  C8  UNL     1      26.561   0.835  53.035  1.00  0.00     0.032 C 
HETATM    5  C9  UNL     1      26.944   1.548  51.749  1.00  0.00    -0.019 C 
HETATM    6  C10 UNL     1      26.171   2.391  51.013  1.00  0.00     0.011 C 
HETATM    7  C11 UNL     1      25.490  -0.204  52.815  1.00  0.00     0.125 C 
HETATM    8  N1  UNL     1      24.536  -0.401  53.845  1.00  0.00    -0.394 N 
HETATM    9  C12 UNL     1      23.258   0.267  53.727  1.00  0.00     0.251 C 
HETATM   10  O2  UNL     1      23.442   1.526  53.021  1.00  0.00    -0.328 OA
HETATM   11  H11 UNL     1      24.921  -0.353  54.813  1.00  0.00     0.155 HD
ENDROOT
BRANCH   1  12
HETATM   12  C4  UNL     1      23.751   3.543  51.168  1.00  0.00     0.024 C 
HETATM   13  C3  UNL     1      23.298   4.424  52.049  1.00  0.00    -0.003 C 
HETATM   14  C2  UNL     1      22.202   5.448  52.034  1.00  0.00     0.112 C 
HETATM   15  C1  UNL     1      22.237   6.240  50.752  1.00  0.00     0.164 C 
HETATM   16  O1  UNL     1      22.299   7.516  50.791  1.00  0.00    -0.292 OA
HETATM   17  C25 UNL     1      22.206   5.702  49.379  1.00  0.00     0.024 A 
HETATM   18  C20 UNL     1      22.594   4.416  48.985  1.00  0.00     0.029 A 
HETATM   19  C24 UNL     1      21.736   6.586  48.444  1.00  0.00     0.016 A 
HETATM   20  C19 UNL     1      23.117   3.378  49.879  1.00  0.00     0.194 C 
HETATM   21  C21 UNL     1      22.542   3.955  47.705  1.00  0.00     0.016 A 
HETATM   22  O3  UNL     1      23.020   2.148  49.513  1.00  0.00    -0.287 OA
HETATM   23  C22 UNL     1      22.065   4.853  46.764  1.00  0.00     0.001 A 
HETATM   24  C23 UNL     1      21.672   6.142  47.133  1.00  0.00     0.001 A 
ENDBRANCH   1  12
BRANCH   9  25
HETATM   25  C13 UNL     1      22.307  -0.630  52.988  1.00  0.00     0.325 C 
BRANCH  25  26
HETATM   26  N2  UNL     1      21.089   0.106  52.685  1.00  0.00     0.092 N 
HETATM   27  C14 UNL     1      20.899   0.101  51.236  1.00  0.00     0.272 C 
HETATM   28  C15 UNL     1      19.952   1.235  50.917  1.00  0.00     0.030 C 
HETATM   29  C16 UNL     1      18.673   1.041  51.707  1.00  0.00     0.003 C 
HETATM   30  C17 UNL     1      18.693  -0.300  52.364  1.00  0.00     0.030 C 
HETATM   31  C18 UNL     1      19.904  -0.516  53.273  1.00  0.00     0.272 C 
ENDBRANCH  25  26
ENDBRANCH   9  25
TORSDOF 3
ENDMDL
MODEL 6
REMARK VINA RESULT:      -8.7      3.741      7.532
REMARK  3 active torsions:
REMARK  status: ('A' for Active; 'I' for Inactive)
REMARK    1  A    between atoms: C4_5  and  C5_6 
REMARK    2  A    between atoms: C12_14  and  C13_15 
REMARK    3  A    between atoms: C13_15  and  N2_16 
ROOT
HETATM    1  C5  UNL     1      21.859   3.575  47.893  1.00  0.00     0.007 C 
HETATM    2  C6  UNL     1      20.883   4.330  48.364  1.00  0.00     0.061 C 
HETATM    3  C7  UNL     1      19.500   4.420  47.708  1.00  0.00     0.075 C 
HETATM    4  C8  UNL     1      19.969   5.407  46.580  1.00  0.00     0.032 C 
HETATM    5  C9  UNL     1      20.960   4.513  45.852  1.00  0.00    -0.019 C 
HETATM    6  C10 UNL     1      21.890   3.690  46.409  1.00  0.00     0.011 C 
HETATM    7  C11 UNL     1      20.650   6.534  47.315  1.00  0.00     0.125 C 
HETATM    8  N1  UNL     1      20.087   6.957  48.546  1.00  0.00    -0.394 N 
HETATM    9  C12 UNL     1      20.655   6.437  49.770  1.00  0.00     0.251 C 
HETATM   10  O2  UNL     1      21.160   5.093  49.527  1.00  0.00    -0.328 OA
HETATM   11  H11 UNL     1      19.044   6.973  48.568  1.00  0.00     0.155 HD
ENDROOT
BRANCH   1  12
HETATM   12  C4  UNL     1      22.626   2.859  48.853  1.00  0.00     0.024 C 
HETATM   13  C3  UNL     1      23.838   3.332  49.106  1.00  0.00    -0.003 C 
HETATM   14  C2  UNL     1      24.955   2.911  50.015  1.00  0.00     0.112 C 
HETATM   15  C1  UNL     1      24.425   2.589  51.388  1.00  0.00     0.164 C 
HETATM   16  O1  UNL     1      24.917   3.170  52.416  1.00  0.00    -0.292 OA
HETATM   17  C25 UNL     1      23.351   1.635  51.721  1.00  0.00     0.024 A 
HETATM   18  C20 UNL     1      22.332   1.203  50.863  1.00  0.00     0.029 A 
HETATM   19  C24 UNL     1      23.411   1.150  53.001  1.00  0.00     0.016 A 
HETATM   20  C19 UNL     1      22.149   1.644  49.477  1.00  0.00     0.194 C 
HETATM   21  C21 UNL     1      21.362   0.312  51.207  1.00  0.00     0.016 A 
HETATM   22  O3  UNL     1      21.489   0.885  48.674  1.00  0.00    -0.287 OA
HETATM   23  C22 UNL     1      21.429  -0.175  52.503  1.00  0.00     0.001 A 
HETATM   24  C23 UNL     1      22.436   0.240  53.377  1.00  0.00     0.001 A 
ENDBRANCH   1  12
BRANCH   9  25
HETATM   25  C13 UNL     1      21.758   7.351  50.221  1.00  0.00     0.325 C 
BRANCH  25  26
HETATM   26  N2  UNL     1      23.037   6.817  49.780  1.00  0.00     0.092 N 
HETATM   27  C14 UNL     1      23.619   7.755  48.822  1.00  0.00     0.272 C 
HETATM   28  C15 UNL     1      24.657   6.988  48.036  1.00  0.00     0.030 C 
HETATM   29  C16 UNL     1      25.660   6.391  49.002  1.00  0.00     0.003 C 
HETATM   30  C17 UNL     1      25.413   6.931  50.372  1.00  0.00     0.030 C 
HETATM   31  C18 UNL     1      23.992   6.683  50.878  1.00  0.00     0.272 C 
ENDBRANCH  25  26
ENDBRANCH   9  25
TORSDOF 3
ENDMDL
MODEL 7
REMARK VINA RESULT:      -8.6      3.428      6.013
REMARK  3 active torsions:
REMARK  status: ('A' for Active; 'I' for Inactive)
REMARK    1  A    between atoms: C4_5  and  C5_6 
REMARK    2  A    between atoms: C12_14  and  C13_15 
REMARK    3  A    between atoms: C13_15  and  N2_16 
ROOT
HETATM    1  C5  UNL     1      25.504   2.811  51.134  1.00  0.00     0.007 C 
HETATM    2  C6  UNL     1      24.501   2.855  51.992  1.00  0.00     0.061 C 
HETATM    3  C7  UNL     1      24.683   2.684  53.505  1.00  0.00     0.075 C 
HETATM    4  C8  UNL     1      24.797   1.119  53.434  1.00  0.00     0.032 C 
HETATM    5  C9  UNL     1      26.076   0.991  52.622  1.00  0.00    -0.019 C 
HETATM    6  C10 UNL     1      26.427   1.709  51.520  1.00  0.00     0.011 C 
HETATM    7  C11 UNL     1      23.582   0.681  52.656  1.00  0.00     0.125 C 
HETATM    8  N1  UNL     1      22.365   1.371  52.887  1.00  0.00    -0.394 N 
HETATM    9  C12 UNL     1      21.995   2.426  51.969  1.00  0.00     0.251 C 
HETATM   10  O2  UNL     1      23.203   3.058  51.459  1.00  0.00    -0.328 OA
HETATM   11  H11 UNL     1      22.191   1.631  53.882  1.00  0.00     0.155 HD
ENDROOT
BRANCH   1  12
HETATM   12  C4  UNL     1      25.482   3.771  50.085  1.00  0.00     0.024 C 
HETATM   13  C3  UNL     1      24.329   4.391  49.881  1.00  0.00    -0.003 C 
HETATM   14  C2  UNL     1      23.863   5.442  48.916  1.00  0.00     0.112 C 
HETATM   15  C1  UNL     1      24.868   6.561  48.830  1.00  0.00     0.164 C 
HETATM   16  O1  UNL     1      24.499   7.768  49.038  1.00  0.00    -0.292 OA
HETATM   17  C25 UNL     1      26.304   6.439  48.519  1.00  0.00     0.024 A 
HETATM   18  C20 UNL     1      27.095   5.298  48.693  1.00  0.00     0.029 A 
HETATM   19  C24 UNL     1      26.863   7.580  48.003  1.00  0.00     0.016 A 
HETATM   20  C19 UNL     1      26.628   4.019  49.236  1.00  0.00     0.194 C 
HETATM   21  C21 UNL     1      28.419   5.223  48.384  1.00  0.00     0.016 A 
HETATM   22  O3  UNL     1      27.286   2.952  48.946  1.00  0.00    -0.287 OA
HETATM   23  C22 UNL     1      28.978   6.380  47.863  1.00  0.00     0.001 A 
HETATM   24  C23 UNL     1      28.209   7.532  47.680  1.00  0.00     0.001 A 
ENDBRANCH   1  12
BRANCH   9  25
HETATM   25  C13 UNL     1      21.184   1.836  50.851  1.00  0.00     0.325 C 
BRANCH  25  26
HETATM   26  N2  UNL     1      21.557   2.474  49.598  1.00  0.00     0.092 N 
HETATM   27  C14 UNL     1      21.764   1.430  48.596  1.00  0.00     0.272 C 
HETATM   28  C15 UNL     1      22.595   2.043  47.492  1.00  0.00     0.030 C 
HETATM   29  C16 UNL     1      21.878   3.270  46.965  1.00  0.00     0.003 C 
HETATM   30  C17 UNL     1      20.509   3.339  47.558  1.00  0.00     0.030 C 
HETATM   31  C18 UNL     1      20.507   3.352  49.087  1.00  0.00     0.272 C 
ENDBRANCH  25  26
ENDBRANCH   9  25
TORSDOF 3
ENDMDL
MODEL 8
REMARK VINA RESULT:      -8.5      2.239      5.354
REMARK  3 active torsions:
REMARK  status: ('A' for Active; 'I' for Inactive)
REMARK    1  A    between atoms: C4_5  and  C5_6 
REMARK    2  A    between atoms: C12_14  and  C13_15 
REMARK    3  A    between atoms: C13_15  and  N2_16 
ROOT
HETATM    1  C5  UNL     1      24.935   2.735  50.960  1.00  0.00     0.007 C 
HETATM    2  C6  UNL     1      24.453   2.427  52.150  1.00  0.00     0.061 C 
HETATM    3  C7  UNL     1      25.277   2.520  53.440  1.00  0.00     0.075 C 
HETATM    4  C8  UNL     1      26.035   1.167  53.192  1.00  0.00     0.032 C 
HETATM    5  C9  UNL     1      26.795   1.526  51.925  1.00  0.00    -0.019 C 
HETATM    6  C10 UNL     1      26.319   2.199  50.842  1.00  0.00     0.011 C 
HETATM    7  C11 UNL     1      24.945   0.158  52.937  1.00  0.00     0.125 C 
HETATM    8  N1  UNL     1      23.753   0.263  53.698  1.00  0.00    -0.394 N 
HETATM    9  C12 UNL     1      22.622   0.941  53.104  1.00  0.00     0.251 C 
HETATM   10  O2  UNL     1      23.108   1.980  52.206  1.00  0.00    -0.328 OA
HETATM   11  H11 UNL     1      23.894   0.528  54.697  1.00  0.00     0.155 HD
ENDROOT
BRANCH   1  12
HETATM   12  C4  UNL     1      24.073   3.467  50.097  1.00  0.00     0.024 C 
HETATM   13  C3  UNL     1      23.531   2.788  49.096  1.00  0.00    -0.003 C 
HETATM   14  C2  UNL     1      22.594   3.142  47.979  1.00  0.00     0.112 C 
HETATM   15  C1  UNL     1      21.438   3.957  48.500  1.00  0.00     0.164 C 
HETATM   16  O1  UNL     1      20.237   3.577  48.278  1.00  0.00    -0.292 OA
HETATM   17  C25 UNL     1      21.516   5.208  49.276  1.00  0.00     0.024 A 
HETATM   18  C20 UNL     1      22.597   5.631  50.057  1.00  0.00     0.029 A 
HETATM   19  C24 UNL     1      20.398   5.996  49.180  1.00  0.00     0.016 A 
HETATM   20  C19 UNL     1      23.845   4.887  50.251  1.00  0.00     0.194 C 
HETATM   21  C21 UNL     1      22.633   6.801  50.754  1.00  0.00     0.016 A 
HETATM   22  O3  UNL     1      24.900   5.537  50.599  1.00  0.00    -0.287 OA
HETATM   23  C22 UNL     1      21.501   7.594  50.651  1.00  0.00     0.001 A 
HETATM   24  C23 UNL     1      20.408   7.192  49.878  1.00  0.00     0.001 A 
ENDBRANCH   1  12
BRANCH   9  25
HETATM   25  C13 UNL     1      21.788  -0.063  52.361  1.00  0.00     0.325 C 
BRANCH  25  26
HETATM   26  N2  UNL     1      20.433   0.446  52.222  1.00  0.00     0.092 N 
HETATM   27  C14 UNL     1      20.110   0.507  50.797  1.00  0.00     0.272 C 
HETATM   28  C15 UNL     1      18.945   1.459  50.655  1.00  0.00     0.030 C 
HETATM   29  C16 UNL     1      17.804   0.969  51.524  1.00  0.00     0.003 C 
HETATM   30  C17 UNL     1      18.133  -0.386  52.059  1.00  0.00     0.030 C 
HETATM   31  C18 UNL     1      19.443  -0.430  52.845  1.00  0.00     0.272 C 
ENDBRANCH  25  26
ENDBRANCH   9  25
TORSDOF 3
ENDMDL
MODEL 9
REMARK VINA RESULT:      -8.5      9.873     12.366
REMARK  3 active torsions:
REMARK  status: ('A' for Active; 'I' for Inactive)
REMARK    1  A    between atoms: C4_5  and  C5_6 
REMARK    2  A    between atoms: C12_14  and  C13_15 
REMARK    3  A    between atoms: C13_15  and  N2_16 
ROOT
HETATM    1  C5  UNL     1      33.114   5.642  47.570  1.00  0.00     0.007 C 
HETATM    2  C6  UNL     1      32.899   4.971  46.453  1.00  0.00     0.061 C 
HETATM    3  C7  UNL     1      33.136   3.462  46.322  1.00  0.00     0.075 C 
HETATM    4  C8  UNL     1      34.692   3.601  46.158  1.00  0.00     0.032 C 
HETATM    5  C9  UNL     1      35.043   4.184  47.517  1.00  0.00    -0.019 C 
HETATM    6  C10 UNL     1      34.381   5.165  48.188  1.00  0.00     0.011 C 
HETATM    7  C11 UNL     1      34.871   4.602  45.044  1.00  0.00     0.125 C 
HETATM    8  N1  UNL     1      33.967   4.548  43.953  1.00  0.00    -0.394 N 
HETATM    9  C12 UNL     1      32.840   5.454  43.957  1.00  0.00     0.251 C 
HETATM   10  O2  UNL     1      32.439   5.710  45.333  1.00  0.00    -0.328 OA
HETATM   11  H11 UNL     1      33.701   3.586  43.652  1.00  0.00     0.155 HD
ENDROOT
BRANCH   1  12
HETATM   12  C4  UNL     1      32.144   6.623  47.916  1.00  0.00     0.024 C 
HETATM   13  C3  UNL     1      32.538   7.886  47.854  1.00  0.00    -0.003 C 
HETATM   14  C2  UNL     1      31.873   9.204  48.123  1.00  0.00     0.112 C 
HETATM   15  C1  UNL     1      30.509   9.245  47.484  1.00  0.00     0.164 C 
HETATM   16  O1  UNL     1      30.206  10.196  46.683  1.00  0.00    -0.292 OA
HETATM   17  C25 UNL     1      29.413   8.276  47.673  1.00  0.00     0.024 A 
HETATM   18  C20 UNL     1      29.548   6.944  48.080  1.00  0.00     0.029 A 
HETATM   19  C24 UNL     1      28.166   8.787  47.421  1.00  0.00     0.016 A 
HETATM   20  C19 UNL     1      30.817   6.273  48.376  1.00  0.00     0.194 C 
HETATM   21  C21 UNL     1      28.507   6.082  48.251  1.00  0.00     0.016 A 
HETATM   22  O3  UNL     1      30.801   5.238  49.140  1.00  0.00    -0.287 OA
HETATM   23  C22 UNL     1      27.249   6.604  47.996  1.00  0.00     0.001 A 
HETATM   24  C23 UNL     1      27.090   7.931  47.588  1.00  0.00     0.001 A 
ENDBRANCH   1  12
BRANCH   9  25
HETATM   25  C13 UNL     1      33.238   6.729  43.269  1.00  0.00     0.325 C 
BRANCH  25  26
HETATM   26  N2  UNL     1      33.391   7.783  44.259  1.00  0.00     0.092 N 
HETATM   27  C14 UNL     1      34.703   8.399  44.074  1.00  0.00     0.272 C 
HETATM   28  C15 UNL     1      35.033   9.118  45.362  1.00  0.00     0.030 C 
HETATM   29  C16 UNL     1      33.926  10.107  45.667  1.00  0.00     0.003 C 
HETATM   30  C17 UNL     1      32.998  10.191  44.500  1.00  0.00     0.030 C 
HETATM   31  C18 UNL     1      32.397   8.843  44.101  1.00  0.00     0.272 C 
ENDBRANCH  25  26
ENDBRANCH   9  25
TORSDOF 3
ENDMDL
