MODEL 1
REMARK VINA RESULT:      -7.7      0.000      0.000
REMARK  8 active torsions:
REMARK  status: ('A' for Active; 'I' for Inactive)
REMARK    1  A    between atoms: O1_1  and  C1_2 
REMARK    2  A    between atoms: C4_5  and  C5_6 
REMARK    3  A    between atoms: C5_6  and  N1_7 
REMARK    4  A    between atoms: N1_7  and  C6_8 
REMARK    5  A    between atoms: N1_7  and  C8_11 
REMARK    6  A    between atoms: C6_8  and  C7_9 
REMARK    7  A    between atoms: C8_11  and  N2_13 
REMARK    8  A    between atoms: N2_13  and  C9_14 
ROOT
HETATM    1  N1  UNL     1      26.102   2.213  51.745  1.00  0.00    -0.353 N 
ENDROOT
BRANCH   1   2
HETATM    2  C5  UNL     1      27.041   1.898  52.737  1.00  0.00     0.164 C 
BRANCH   2   3
HETATM    3  C4  UNL     1      27.541   0.549  52.906  1.00  0.00    -0.040 A 
HETATM    4  C3  UNL     1      28.756   0.126  53.422  1.00  0.00     0.011 A 
HETATM    5  C2  UNL     1      29.187  -1.173  53.562  1.00  0.00     0.037 A 
HETATM    6  C1  UNL     1      28.288  -2.167  53.133  1.00  0.00     0.065 A 
HETATM    7  C16 UNL     1      27.051  -1.864  52.605  1.00  0.00     0.037 A 
HETATM    8  C15 UNL     1      26.757  -0.535  52.524  1.00  0.00     0.011 A 
BRANCH   6   9
HETATM    9  O1  UNL     1      28.675  -3.503  53.255  1.00  0.00    -0.361 OA
HETATM   10  H1  UNL     1      29.278  -3.810  54.007  1.00  0.00     0.217 HD
ENDBRANCH   6   9
ENDBRANCH   2   3
ENDBRANCH   1   2
BRANCH   1  11
HETATM   11  C6  UNL     1      26.436   2.484  50.382  1.00  0.00     0.140 C 
BRANCH  11  12
HETATM   12  C7  UNL     1      26.223   3.878  49.894  1.00  0.00     0.134 C 
HETATM   13 CL1  UNL     1      27.383   4.551  48.796  1.00  0.00    -0.129 Cl
ENDBRANCH  11  12
ENDBRANCH   1  11
BRANCH   1  14
HETATM   14  C8  UNL     1      24.684   2.250  52.113  1.00  0.00     0.174 C 
HETATM   15  S1  UNL     1      24.122   3.610  52.880  1.00  0.00    -0.041 SA
BRANCH  14  16
HETATM   16  N2  UNL     1      23.581   1.396  51.992  1.00  0.00    -0.333 N 
HETATM   17  H10 UNL     1      23.143   1.070  51.109  1.00  0.00     0.168 HD
BRANCH  16  18
HETATM   18  C9  UNL     1      22.739   0.715  52.915  1.00  0.00     0.034 A 
HETATM   19  C10 UNL     1      23.436  -0.249  53.621  1.00  0.00     0.029 A 
HETATM   20  C11 UNL     1      22.770  -1.024  54.569  1.00  0.00     0.002 A 
HETATM   21  C12 UNL     1      21.435  -0.755  54.728  1.00  0.00     0.000 A 
HETATM   22  C13 UNL     1      20.733   0.211  54.026  1.00  0.00     0.002 A 
HETATM   23  C14 UNL     1      21.403   0.969  53.090  1.00  0.00     0.029 A 
ENDBRANCH  16  18
ENDBRANCH  14  16
ENDBRANCH   1  14
TORSDOF 8
ENDMDL
MODEL 2
REMARK VINA RESULT:      -7.5      2.778      5.528
REMARK  8 active torsions:
REMARK  status: ('A' for Active; 'I' for Inactive)
REMARK    1  A    between atoms: O1_1  and  C1_2 
REMARK    2  A    between atoms: C4_5  and  C5_6 
REMARK    3  A    between atoms: C5_6  and  N1_7 
REMARK    4  A    between atoms: N1_7  and  C6_8 
REMARK    5  A    between atoms: N1_7  and  C8_11 
REMARK    6  A    between atoms: C6_8  and  C7_9 
REMARK    7  A    between atoms: C8_11  and  N2_13 
REMARK    8  A    between atoms: N2_13  and  C9_14 
ROOT
HETATM    1  N1  UNL     1      24.289   2.814  51.736  1.00  0.00    -0.353 N 
ENDROOT
BRANCH   1   2
HETATM    2  C5  UNL     1      23.620   1.647  51.343  1.00  0.00     0.164 C 
BRANCH   2   3
HETATM    3  C4  UNL     1      23.028   0.750  52.314  1.00  0.00    -0.040 A 
HETATM    4  C3  UNL     1      23.636   0.061  53.352  1.00  0.00     0.011 A 
HETATM    5  C2  UNL     1      23.027  -0.782  54.252  1.00  0.00     0.037 A 
HETATM    6  C1  UNL     1      21.640  -0.956  54.089  1.00  0.00     0.065 A 
HETATM    7  C16 UNL     1      20.930  -0.321  53.093  1.00  0.00     0.037 A 
HETATM    8  C15 UNL     1      21.663   0.486  52.273  1.00  0.00     0.011 A 
BRANCH   6   9
HETATM    9  O1  UNL     1      20.973  -1.801  54.977  1.00  0.00    -0.361 OA
HETATM   10  H1  UNL     1      20.225  -2.408  54.666  1.00  0.00     0.217 HD
ENDBRANCH   6   9
ENDBRANCH   2   3
ENDBRANCH   1   2
BRANCH   1  11
HETATM   11  C6  UNL     1      23.702   3.847  52.532  1.00  0.00     0.140 C 
BRANCH  11  12
HETATM   12  C7  UNL     1      22.605   4.643  51.911  1.00  0.00     0.134 C 
HETATM   13 CL1  UNL     1      20.990   4.018  51.985  1.00  0.00    -0.129 Cl
ENDBRANCH  11  12
ENDBRANCH   1  11
BRANCH   1  14
HETATM   14  C8  UNL     1      25.685   2.989  51.328  1.00  0.00     0.174 C 
HETATM   15  S1  UNL     1      25.981   3.382  49.743  1.00  0.00    -0.041 SA
BRANCH  14  16
HETATM   16  N2  UNL     1      26.940   2.912  51.944  1.00  0.00    -0.333 N 
HETATM   17  H10 UNL     1      27.667   3.652  51.966  1.00  0.00     0.168 HD
BRANCH  16  18
HETATM   18  C9  UNL     1      27.624   1.917  52.697  1.00  0.00     0.034 A 
HETATM   19  C10 UNL     1      27.140   0.650  52.420  1.00  0.00     0.029 A 
HETATM   20  C11 UNL     1      27.686  -0.454  53.071  1.00  0.00     0.002 A 
HETATM   21  C12 UNL     1      28.693  -0.183  53.962  1.00  0.00     0.000 A 
HETATM   22  C13 UNL     1      29.183   1.083  54.242  1.00  0.00     0.002 A 
HETATM   23  C14 UNL     1      28.633   2.167  53.592  1.00  0.00     0.029 A 
ENDBRANCH  16  18
ENDBRANCH  14  16
ENDBRANCH   1  14
TORSDOF 8
ENDMDL
MODEL 3
REMARK VINA RESULT:      -7.1      2.384      5.478
REMARK  8 active torsions:
REMARK  status: ('A' for Active; 'I' for Inactive)
REMARK    1  A    between atoms: O1_1  and  C1_2 
REMARK    2  A    between atoms: C4_5  and  C5_6 
REMARK    3  A    between atoms: C5_6  and  N1_7 
REMARK    4  A    between atoms: N1_7  and  C6_8 
REMARK    5  A    between atoms: N1_7  and  C8_11 
REMARK    6  A    between atoms: C6_8  and  C7_9 
REMARK    7  A    between atoms: C8_11  and  N2_13 
REMARK    8  A    between atoms: N2_13  and  C9_14 
ROOT
HETATM    1  N1  UNL     1      25.186   2.044  52.352  1.00  0.00    -0.353 N 
ENDROOT
BRANCH   1   2
HETATM    2  C5  UNL     1      26.532   1.698  52.163  1.00  0.00     0.164 C 
BRANCH   2   3
HETATM    3  C4  UNL     1      27.015   0.360  52.438  1.00  0.00    -0.040 A 
HETATM    4  C3  UNL     1      26.482  -0.859  52.049  1.00  0.00     0.011 A 
HETATM    5  C2  UNL     1      26.981  -2.108  52.337  1.00  0.00     0.037 A 
HETATM    6  C1  UNL     1      28.158  -2.136  53.108  1.00  0.00     0.065 A 
HETATM    7  C16 UNL     1      28.777  -0.987  53.550  1.00  0.00     0.037 A 
HETATM    8  C15 UNL     1      28.171   0.181  53.191  1.00  0.00     0.011 A 
BRANCH   6   9
HETATM    9  O1  UNL     1      28.707  -3.380  53.427  1.00  0.00    -0.361 OA
HETATM   10  H1  UNL     1      29.426  -3.472  54.134  1.00  0.00     0.217 HD
ENDBRANCH   6   9
ENDBRANCH   2   3
ENDBRANCH   1   2
BRANCH   1  11
HETATM   11  C6  UNL     1      24.308   1.384  53.267  1.00  0.00     0.140 C 
BRANCH  11  12
HETATM   12  C7  UNL     1      23.235   0.529  52.684  1.00  0.00     0.134 C 
HETATM   13 CL1  UNL     1      22.560  -0.730  53.666  1.00  0.00    -0.129 Cl
ENDBRANCH  11  12
ENDBRANCH   1  11
BRANCH   1  14
HETATM   14  C8  UNL     1      24.640   3.163  51.580  1.00  0.00     0.174 C 
HETATM   15  S1  UNL     1      23.594   4.195  52.354  1.00  0.00    -0.041 SA
BRANCH  14  16
HETATM   16  N2  UNL     1      24.759   3.648  50.272  1.00  0.00    -0.333 N 
HETATM   17  H10 UNL     1      24.100   3.485  49.487  1.00  0.00     0.168 HD
BRANCH  16  18
HETATM   18  C9  UNL     1      25.707   4.463  49.592  1.00  0.00     0.034 A 
HETATM   19  C10 UNL     1      25.183   5.710  49.296  1.00  0.00     0.029 A 
HETATM   20  C11 UNL     1      25.968   6.644  48.622  1.00  0.00     0.002 A 
HETATM   21  C12 UNL     1      27.236   6.235  48.299  1.00  0.00     0.000 A 
HETATM   22  C13 UNL     1      27.765   4.989  48.594  1.00  0.00     0.002 A 
HETATM   23  C14 UNL     1      26.978   4.074  49.260  1.00  0.00     0.029 A 
ENDBRANCH  16  18
ENDBRANCH  14  16
ENDBRANCH   1  14
TORSDOF 8
ENDMDL
MODEL 4
REMARK VINA RESULT:      -7.1      1.553      2.296
REMARK  8 active torsions:
REMARK  status: ('A' for Active; 'I' for Inactive)
REMARK    1  A    between atoms: O1_1  and  C1_2 
REMARK    2  A    between atoms: C4_5  and  C5_6 
REMARK    3  A    between atoms: C5_6  and  N1_7 
REMARK    4  A    between atoms: N1_7  and  C6_8 
REMARK    5  A    between atoms: N1_7  and  C8_11 
REMARK    6  A    between atoms: C6_8  and  C7_9 
REMARK    7  A    between atoms: C8_11  and  N2_13 
REMARK    8  A    between atoms: N2_13  and  C9_14 
ROOT
HETATM    1  N1  UNL     1      24.040   3.261  52.006  1.00  0.00    -0.353 N 
ENDROOT
BRANCH   1   2
HETATM    2  C5  UNL     1      24.847   2.898  53.093  1.00  0.00     0.164 C 
BRANCH   2   3
HETATM    3  C4  UNL     1      25.645   1.689  53.073  1.00  0.00    -0.040 A 
HETATM    4  C3  UNL     1      25.955   0.864  52.003  1.00  0.00     0.011 A 
HETATM    5  C2  UNL     1      26.721  -0.278  52.035  1.00  0.00     0.037 A 
HETATM    6  C1  UNL     1      27.238  -0.635  53.294  1.00  0.00     0.065 A 
HETATM    7  C16 UNL     1      26.997   0.110  54.428  1.00  0.00     0.037 A 
HETATM    8  C15 UNL     1      26.220   1.218  54.248  1.00  0.00     0.011 A 
BRANCH   6   9
HETATM    9  O1  UNL     1      28.024  -1.786  53.382  1.00  0.00    -0.361 OA
HETATM   10  H1  UNL     1      28.865  -1.807  53.944  1.00  0.00     0.217 HD
ENDBRANCH   6   9
ENDBRANCH   2   3
ENDBRANCH   1   2
BRANCH   1  11
HETATM   11  C6  UNL     1      24.441   4.167  50.976  1.00  0.00     0.140 C 
BRANCH  11  12
HETATM   12  C7  UNL     1      24.904   3.573  49.689  1.00  0.00     0.134 C 
HETATM   13 CL1  UNL     1      26.607   3.359  49.446  1.00  0.00    -0.129 Cl
ENDBRANCH  11  12
ENDBRANCH   1  11
BRANCH   1  14
HETATM   14  C8  UNL     1      22.706   2.666  51.899  1.00  0.00     0.174 C 
HETATM   15  S1  UNL     1      21.402   3.694  51.886  1.00  0.00    -0.041 SA
BRANCH  14  16
HETATM   16  N2  UNL     1      22.175   1.374  51.796  1.00  0.00    -0.333 N 
HETATM   17  H10 UNL     1      21.892   0.887  50.925  1.00  0.00     0.168 HD
BRANCH  16  18
HETATM   18  C9  UNL     1      21.864   0.345  52.729  1.00  0.00     0.034 A 
HETATM   19  C10 UNL     1      20.509   0.067  52.742  1.00  0.00     0.029 A 
HETATM   20  C11 UNL     1      20.016  -0.912  53.603  1.00  0.00     0.002 A 
HETATM   21  C12 UNL     1      20.947  -1.539  54.390  1.00  0.00     0.000 A 
HETATM   22  C13 UNL     1      22.305  -1.266  54.379  1.00  0.00     0.002 A 
HETATM   23  C14 UNL     1      22.780  -0.294  53.524  1.00  0.00     0.029 A 
ENDBRANCH  16  18
ENDBRANCH  14  16
ENDBRANCH   1  14
TORSDOF 8
ENDMDL
MODEL 5
REMARK VINA RESULT:      -6.9      2.031      2.972
REMARK  8 active torsions:
REMARK  status: ('A' for Active; 'I' for Inactive)
REMARK    1  A    between atoms: O1_1  and  C1_2 
REMARK    2  A    between atoms: C4_5  and  C5_6 
REMARK    3  A    between atoms: C5_6  and  N1_7 
REMARK    4  A    between atoms: N1_7  and  C6_8 
REMARK    5  A    between atoms: N1_7  and  C8_11 
REMARK    6  A    between atoms: C6_8  and  C7_9 
REMARK    7  A    between atoms: C8_11  and  N2_13 
REMARK    8  A    between atoms: N2_13  and  C9_14 
ROOT
HETATM    1  N1  UNL     1      26.113   2.254  51.483  1.00  0.00    -0.353 N 
ENDROOT
BRANCH   1   2
HETATM    2  C5  UNL     1      27.024   1.856  52.472  1.00  0.00     0.164 C 
BRANCH   2   3
HETATM    3  C4  UNL     1      27.376   0.464  52.661  1.00  0.00    -0.040 A 
HETATM    4  C3  UNL     1      26.659  -0.673  52.323  1.00  0.00     0.011 A 
HETATM    5  C2  UNL     1      27.039  -1.979  52.524  1.00  0.00     0.037 A 
HETATM    6  C1  UNL     1      28.291  -2.167  53.139  1.00  0.00     0.065 A 
HETATM    7  C16 UNL     1      29.091  -1.111  53.517  1.00  0.00     0.037 A 
HETATM    8  C15 UNL     1      28.588   0.130  53.257  1.00  0.00     0.011 A 
BRANCH   6   9
HETATM    9  O1  UNL     1      28.725  -3.474  53.364  1.00  0.00    -0.361 OA
HETATM   10  H1  UNL     1      28.636  -4.189  52.654  1.00  0.00     0.217 HD
ENDBRANCH   6   9
ENDBRANCH   2   3
ENDBRANCH   1   2
BRANCH   1  11
HETATM   11  C6  UNL     1      26.486   2.650  50.161  1.00  0.00     0.140 C 
BRANCH  11  12
HETATM   12  C7  UNL     1      26.613   4.113  49.900  1.00  0.00     0.134 C 
HETATM   13 CL1  UNL     1      25.320   4.916  49.069  1.00  0.00    -0.129 Cl
ENDBRANCH  11  12
ENDBRANCH   1  11
BRANCH   1  14
HETATM   14  C8  UNL     1      24.685   2.249  51.808  1.00  0.00     0.174 C 
HETATM   15  S1  UNL     1      24.119   3.440  52.817  1.00  0.00    -0.041 SA
BRANCH  14  16
HETATM   16  N2  UNL     1      23.572   1.462  51.483  1.00  0.00    -0.333 N 
HETATM   17  H10 UNL     1      23.251   0.609  51.978  1.00  0.00     0.168 HD
BRANCH  16  18
HETATM   18  C9  UNL     1      22.566   1.523  50.479  1.00  0.00     0.034 A 
HETATM   19  C10 UNL     1      22.947   2.339  49.429  1.00  0.00     0.029 A 
HETATM   20  C11 UNL     1      22.081   2.525  48.352  1.00  0.00     0.002 A 
HETATM   21  C12 UNL     1      20.884   1.860  48.427  1.00  0.00     0.000 A 
HETATM   22  C13 UNL     1      20.499   1.040  49.476  1.00  0.00     0.002 A 
HETATM   23  C14 UNL     1      21.364   0.865  50.535  1.00  0.00     0.029 A 
ENDBRANCH  16  18
ENDBRANCH  14  16
ENDBRANCH   1  14
TORSDOF 8
ENDMDL
MODEL 6
REMARK VINA RESULT:      -6.6      3.688      6.336
REMARK  8 active torsions:
REMARK  status: ('A' for Active; 'I' for Inactive)
REMARK    1  A    between atoms: O1_1  and  C1_2 
REMARK    2  A    between atoms: C4_5  and  C5_6 
REMARK    3  A    between atoms: C5_6  and  N1_7 
REMARK    4  A    between atoms: N1_7  and  C6_8 
REMARK    5  A    between atoms: N1_7  and  C8_11 
REMARK    6  A    between atoms: C6_8  and  C7_9 
REMARK    7  A    between atoms: C8_11  and  N2_13 
REMARK    8  A    between atoms: N2_13  and  C9_14 
ROOT
HETATM    1  N1  UNL     1      22.087   2.338  50.868  1.00  0.00    -0.353 N 
ENDROOT
BRANCH   1   2
HETATM    2  C5  UNL     1      21.761   0.977  50.773  1.00  0.00     0.164 C 
BRANCH   2   3
HETATM    3  C4  UNL     1      20.793   0.366  51.661  1.00  0.00    -0.040 A 
HETATM    4  C3  UNL     1      20.987  -0.187  52.917  1.00  0.00     0.011 A 
HETATM    5  C2  UNL     1      20.031  -0.757  53.724  1.00  0.00     0.037 A 
HETATM    6  C1  UNL     1      18.721  -0.773  53.208  1.00  0.00     0.065 A 
HETATM    7  C16 UNL     1      18.411  -0.251  51.971  1.00  0.00     0.037 A 
HETATM    8  C15 UNL     1      19.458   0.282  51.279  1.00  0.00     0.011 A 
BRANCH   6   9
HETATM    9  O1  UNL     1      17.712  -1.340  53.989  1.00  0.00    -0.361 OA
HETATM   10  H1  UNL     1      17.499  -2.328  53.938  1.00  0.00     0.217 HD
ENDBRANCH   6   9
ENDBRANCH   2   3
ENDBRANCH   1   2
BRANCH   1  11
HETATM   11  C6  UNL     1      21.607   3.342  49.972  1.00  0.00     0.140 C 
BRANCH  11  12
HETATM   12  C7  UNL     1      20.148   3.648  50.012  1.00  0.00     0.134 C 
HETATM   13 CL1  UNL     1      19.387   3.833  51.559  1.00  0.00    -0.129 Cl
ENDBRANCH  11  12
ENDBRANCH   1  11
BRANCH   1  14
HETATM   14  C8  UNL     1      22.959   2.770  51.963  1.00  0.00     0.174 C 
HETATM   15  S1  UNL     1      23.105   4.402  52.233  1.00  0.00    -0.041 SA
BRANCH  14  16
HETATM   16  N2  UNL     1      23.769   2.150  52.922  1.00  0.00    -0.333 N 
HETATM   17  H10 UNL     1      23.819   2.378  53.933  1.00  0.00     0.168 HD
BRANCH  16  18
HETATM   18  C9  UNL     1      24.717   1.088  52.893  1.00  0.00     0.034 A 
HETATM   19  C10 UNL     1      25.718   1.329  51.968  1.00  0.00     0.029 A 
HETATM   20  C11 UNL     1      26.734   0.391  51.795  1.00  0.00     0.002 A 
HETATM   21  C12 UNL     1      26.655  -0.728  52.583  1.00  0.00     0.000 A 
HETATM   22  C13 UNL     1      25.656  -0.972  53.512  1.00  0.00     0.002 A 
HETATM   23  C14 UNL     1      24.655  -0.038  53.672  1.00  0.00     0.029 A 
ENDBRANCH  16  18
ENDBRANCH  14  16
ENDBRANCH   1  14
TORSDOF 8
ENDMDL
MODEL 7
REMARK VINA RESULT:      -6.5      3.013      6.426
REMARK  8 active torsions:
REMARK  status: ('A' for Active; 'I' for Inactive)
REMARK    1  A    between atoms: O1_1  and  C1_2 
REMARK    2  A    between atoms: C4_5  and  C5_6 
REMARK    3  A    between atoms: C5_6  and  N1_7 
REMARK    4  A    between atoms: N1_7  and  C6_8 
REMARK    5  A    between atoms: N1_7  and  C8_11 
REMARK    6  A    between atoms: C6_8  and  C7_9 
REMARK    7  A    between atoms: C8_11  and  N2_13 
REMARK    8  A    between atoms: N2_13  and  C9_14 
ROOT
HETATM    1  N1  UNL     1      24.500   2.403  52.529  1.00  0.00    -0.353 N 
ENDROOT
BRANCH   1   2
HETATM    2  C5  UNL     1      24.075   1.192  51.964  1.00  0.00     0.164 C 
BRANCH   2   3
HETATM    3  C4  UNL     1      22.909   0.491  52.463  1.00  0.00    -0.040 A 
HETATM    4  C3  UNL     1      21.639   0.405  51.914  1.00  0.00     0.011 A 
HETATM    5  C2  UNL     1      20.561  -0.276  52.428  1.00  0.00     0.037 A 
HETATM    6  C1  UNL     1      20.785  -0.953  53.642  1.00  0.00     0.065 A 
HETATM    7  C16 UNL     1      22.007  -0.939  54.279  1.00  0.00     0.037 A 
HETATM    8  C15 UNL     1      22.986  -0.222  53.655  1.00  0.00     0.011 A 
BRANCH   6   9
HETATM    9  O1  UNL     1      19.723  -1.662  54.207  1.00  0.00    -0.361 OA
HETATM   10  H1  UNL     1      19.690  -2.673  54.176  1.00  0.00     0.217 HD
ENDBRANCH   6   9
ENDBRANCH   2   3
ENDBRANCH   1   2
BRANCH   1  11
HETATM   11  C6  UNL     1      25.437   2.502  53.603  1.00  0.00     0.140 C 
BRANCH  11  12
HETATM   12  C7  UNL     1      26.679   1.684  53.500  1.00  0.00     0.134 C 
HETATM   13 CL1  UNL     1      28.206   2.505  53.484  1.00  0.00    -0.129 Cl
ENDBRANCH  11  12
ENDBRANCH   1  11
BRANCH   1  14
HETATM   14  C8  UNL     1      23.970   3.653  51.977  1.00  0.00     0.174 C 
HETATM   15  S1  UNL     1      22.350   3.955  52.172  1.00  0.00    -0.041 SA
BRANCH  14  16
HETATM   16  N2  UNL     1      24.484   4.752  51.278  1.00  0.00    -0.333 N 
HETATM   17  H10 UNL     1      24.175   5.739  51.360  1.00  0.00     0.168 HD
BRANCH  16  18
HETATM   18  C9  UNL     1      25.510   4.927  50.307  1.00  0.00     0.034 A 
HETATM   19  C10 UNL     1      25.530   6.222  49.821  1.00  0.00     0.029 A 
HETATM   20  C11 UNL     1      26.467   6.579  48.853  1.00  0.00     0.002 A 
HETATM   21  C12 UNL     1      27.319   5.582  48.451  1.00  0.00     0.000 A 
HETATM   22  C13 UNL     1      27.304   4.285  48.937  1.00  0.00     0.002 A 
HETATM   23  C14 UNL     1      26.371   3.944  49.893  1.00  0.00     0.029 A 
ENDBRANCH  16  18
ENDBRANCH  14  16
ENDBRANCH   1  14
TORSDOF 8
ENDMDL
MODEL 8
REMARK VINA RESULT:      -6.4      3.468      5.413
REMARK  8 active torsions:
REMARK  status: ('A' for Active; 'I' for Inactive)
REMARK    1  A    between atoms: O1_1  and  C1_2 
REMARK    2  A    between atoms: C4_5  and  C5_6 
REMARK    3  A    between atoms: C5_6  and  N1_7 
REMARK    4  A    between atoms: N1_7  and  C6_8 
REMARK    5  A    between atoms: N1_7  and  C8_11 
REMARK    6  A    between atoms: C6_8  and  C7_9 
REMARK    7  A    between atoms: C8_11  and  N2_13 
REMARK    8  A    between atoms: N2_13  and  C9_14 
ROOT
HETATM    1  N1  UNL     1      25.264   2.770  50.960  1.00  0.00    -0.353 N 
ENDROOT
BRANCH   1   2
HETATM    2  C5  UNL     1      25.346   3.210  49.631  1.00  0.00     0.164 C 
BRANCH   2   3
HETATM    3  C4  UNL     1      26.108   4.387  49.268  1.00  0.00    -0.040 A 
HETATM    4  C3  UNL     1      27.407   4.475  48.792  1.00  0.00     0.011 A 
HETATM    5  C2  UNL     1      28.088   5.622  48.460  1.00  0.00     0.037 A 
HETATM    6  C1  UNL     1      27.380   6.827  48.625  1.00  0.00     0.065 A 
HETATM    7  C16 UNL     1      26.083   6.861  49.091  1.00  0.00     0.037 A 
HETATM    8  C15 UNL     1      25.532   5.648  49.381  1.00  0.00     0.011 A 
BRANCH   6   9
HETATM    9  O1  UNL     1      28.026   8.022  48.301  1.00  0.00    -0.361 OA
HETATM   10  H1  UNL     1      28.979   8.200  48.590  1.00  0.00     0.217 HD
ENDBRANCH   6   9
ENDBRANCH   2   3
ENDBRANCH   1   2
BRANCH   1  11
HETATM   11  C6  UNL     1      26.384   2.325  51.728  1.00  0.00     0.140 C 
BRANCH  11  12
HETATM   12  C7  UNL     1      26.666   0.861  51.736  1.00  0.00     0.134 C 
HETATM   13 CL1  UNL     1      27.637   0.216  53.019  1.00  0.00    -0.129 Cl
ENDBRANCH  11  12
ENDBRANCH   1  11
BRANCH   1  14
HETATM   14  C8  UNL     1      23.956   2.781  51.619  1.00  0.00     0.174 C 
HETATM   15  S1  UNL     1      23.542   4.134  52.488  1.00  0.00    -0.041 SA
BRANCH  14  16
HETATM   16  N2  UNL     1      22.869   1.906  51.733  1.00  0.00    -0.333 N 
HETATM   17  H10 UNL     1      22.159   1.701  51.005  1.00  0.00     0.168 HD
BRANCH  16  18
HETATM   18  C9  UNL     1      22.377   1.053  52.760  1.00  0.00     0.034 A 
HETATM   19  C10 UNL     1      23.357   0.187  53.212  1.00  0.00     0.029 A 
HETATM   20  C11 UNL     1      23.056  -0.731  54.216  1.00  0.00     0.002 A 
HETATM   21  C12 UNL     1      21.769  -0.697  54.689  1.00  0.00     0.000 A 
HETATM   22  C13 UNL     1      20.785   0.169  54.242  1.00  0.00     0.002 A 
HETATM   23  C14 UNL     1      21.095   1.072  53.247  1.00  0.00     0.029 A 
ENDBRANCH  16  18
ENDBRANCH  14  16
ENDBRANCH   1  14
TORSDOF 8
ENDMDL
MODEL 9
REMARK VINA RESULT:      -6.3      2.732      3.657
REMARK  8 active torsions:
REMARK  status: ('A' for Active; 'I' for Inactive)
REMARK    1  A    between atoms: O1_1  and  C1_2 
REMARK    2  A    between atoms: C4_5  and  C5_6 
REMARK    3  A    between atoms: C5_6  and  N1_7 
REMARK    4  A    between atoms: N1_7  and  C6_8 
REMARK    5  A    between atoms: N1_7  and  C8_11 
REMARK    6  A    between atoms: C6_8  and  C7_9 
REMARK    7  A    between atoms: C8_11  and  N2_13 
REMARK    8  A    between atoms: N2_13  and  C9_14 
ROOT
HETATM    1  N1  UNL     1      22.618   2.858  50.111  1.00  0.00    -0.353 N 
ENDROOT
BRANCH   1   2
HETATM    2  C5  UNL     1      23.190   3.351  51.292  1.00  0.00     0.164 C 
BRANCH   2   3
HETATM    3  C4  UNL     1      24.466   2.864  51.777  1.00  0.00    -0.040 A 
HETATM    4  C3  UNL     1      25.632   2.616  51.069  1.00  0.00     0.011 A 
HETATM    5  C2  UNL     1      26.823   2.151  51.578  1.00  0.00     0.037 A 
HETATM    6  C1  UNL     1      26.845   1.907  52.964  1.00  0.00     0.065 A 
HETATM    7  C16 UNL     1      25.745   2.118  53.767  1.00  0.00     0.037 A 
HETATM    8  C15 UNL     1      24.632   2.580  53.128  1.00  0.00     0.011 A 
BRANCH   6   9
HETATM    9  O1  UNL     1      28.031   1.435  53.531  1.00  0.00    -0.361 OA
HETATM   10  H1  UNL     1      28.232   0.445  53.584  1.00  0.00     0.217 HD
ENDBRANCH   6   9
ENDBRANCH   2   3
ENDBRANCH   1   2
BRANCH   1  11
HETATM   11  C6  UNL     1      22.820   3.436  48.820  1.00  0.00     0.140 C 
BRANCH  11  12
HETATM   12  C7  UNL     1      23.120   4.895  48.766  1.00  0.00     0.134 C 
HETATM   13 CL1  UNL     1      24.780   5.396  48.794  1.00  0.00    -0.129 Cl
ENDBRANCH  11  12
ENDBRANCH   1  11
BRANCH   1  14
HETATM   14  C8  UNL     1      21.772   1.665  50.192  1.00  0.00     0.174 C 
HETATM   15  S1  UNL     1      20.407   1.622  49.248  1.00  0.00    -0.041 SA
BRANCH  14  16
HETATM   16  N2  UNL     1      21.790   0.453  50.895  1.00  0.00    -0.333 N 
HETATM   17  H10 UNL     1      21.782  -0.501  50.487  1.00  0.00     0.168 HD
BRANCH  16  18
HETATM   18  C9  UNL     1      21.829   0.099  52.273  1.00  0.00     0.034 A 
HETATM   19  C10 UNL     1      20.747   0.618  52.960  1.00  0.00     0.029 A 
HETATM   20  C11 UNL     1      20.621   0.379  54.327  1.00  0.00     0.002 A 
HETATM   21  C12 UNL     1      21.614  -0.378  54.895  1.00  0.00     0.000 A 
HETATM   22  C13 UNL     1      22.698  -0.902  54.210  1.00  0.00     0.002 A 
HETATM   23  C14 UNL     1      22.812  -0.657  52.858  1.00  0.00     0.029 A 
ENDBRANCH  16  18
ENDBRANCH  14  16
ENDBRANCH   1  14
TORSDOF 8
ENDMDL
