MODEL 1
REMARK VINA RESULT:      -6.9      0.000      0.000
REMARK  6 active torsions:
REMARK  status: ('A' for Active; 'I' for Inactive)
REMARK    1  A    between atoms: C2_2  and  C3_3 
REMARK    2  A    between atoms: C2_2  and  C11_15 
REMARK    3  A    between atoms: C3_3  and  N1_4 
REMARK    4  A    between atoms: N1_4  and  C4_5 
REMARK    5  A    between atoms: C5_6  and  C6_7 
REMARK    6  A    between atoms: C11_15  and  N5_16 
ROOT
HETATM    1  N1  UNL     1      22.554  -1.083  53.586  1.00  0.00    -0.395 N 
HETATM    2  H5  UNL     1      22.293  -1.957  53.078  1.00  0.00     0.159 HD
ENDROOT
BRANCH   1   3
HETATM    3  C3  UNL     1      21.709  -0.216  54.416  1.00  0.00     0.154 C 
BRANCH   3   4
HETATM    4  C2  UNL     1      20.601   0.240  53.550  1.00  0.00    -0.054 C 
HETATM    5  C1  UNL     1      19.579  -0.653  53.486  1.00  0.00     0.017 C 
BRANCH   4   6
HETATM    6  C11 UNL     1      20.346   1.457  52.746  1.00  0.00     0.152 C 
BRANCH   6   7
HETATM    7  N5  UNL     1      21.091   1.539  51.560  1.00  0.00    -0.405 N 
HETATM    8  C12 UNL     1      22.074   2.551  51.456  1.00  0.00     0.143 C 
HETATM    9  C13 UNL     1      23.140   2.011  50.483  1.00  0.00     0.187 C 
HETATM   10  O1  UNL     1      22.489   1.936  49.255  1.00  0.00    -0.388 OA
HETATM   11  C14 UNL     1      21.420   1.079  49.231  1.00  0.00     0.187 C 
HETATM   12  C15 UNL     1      20.408   1.303  50.340  1.00  0.00     0.143 C 
ENDBRANCH   6   7
ENDBRANCH   4   6
ENDBRANCH   3   4
ENDBRANCH   1   3
BRANCH   1  13
HETATM   13  C4  UNL     1      23.885  -0.648  53.484  1.00  0.00     0.085 C 
HETATM   14  C5  UNL     1      24.913  -0.620  54.312  1.00  0.00     0.048 C 
BRANCH  14  15
HETATM   15  C6  UNL     1      26.183  -0.080  53.848  1.00  0.00     0.057 C 
HETATM   16  C7  UNL     1      26.029   0.582  52.715  1.00  0.00     0.026 C 
HETATM   17  C8  UNL     1      26.992   1.291  51.874  1.00  0.00     0.179 C 
HETATM   18  N2  UNL     1      27.735   2.332  52.505  1.00  0.00    -0.281 NA
HETATM   19  C9  UNL     1      28.529   2.388  53.525  1.00  0.00     0.201 C 
HETATM   20  N3  UNL     1      29.019   1.430  54.483  1.00  0.00    -0.346 N 
HETATM   21  C10 UNL     1      28.406   0.216  54.966  1.00  0.00     0.208 C 
HETATM   22  H12 UNL     1      29.950   1.679  54.860  1.00  0.00     0.167 HD
HETATM   23  N4  UNL     1      27.278  -0.395  54.720  1.00  0.00    -0.244 NA
ENDBRANCH  14  15
ENDBRANCH   1  13
TORSDOF 6
ENDMDL
MODEL 2
REMARK VINA RESULT:      -6.6      4.567      6.994
REMARK  6 active torsions:
REMARK  status: ('A' for Active; 'I' for Inactive)
REMARK    1  A    between atoms: C2_2  and  C3_3 
REMARK    2  A    between atoms: C2_2  and  C11_15 
REMARK    3  A    between atoms: C3_3  and  N1_4 
REMARK    4  A    between atoms: N1_4  and  C4_5 
REMARK    5  A    between atoms: C5_6  and  C6_7 
REMARK    6  A    between atoms: C11_15  and  N5_16 
ROOT
HETATM    1  N1  UNL     1      24.700   2.814  50.193  1.00  0.00    -0.395 N 
HETATM    2  H5  UNL     1      24.276   2.124  49.536  1.00  0.00     0.159 HD
ENDROOT
BRANCH   1   3
HETATM    3  C3  UNL     1      24.550   2.908  51.651  1.00  0.00     0.154 C 
BRANCH   3   4
HETATM    4  C2  UNL     1      24.864   1.568  52.190  1.00  0.00    -0.054 C 
HETATM    5  C1  UNL     1      23.856   1.051  52.939  1.00  0.00     0.017 C 
BRANCH   4   6
HETATM    6  C11 UNL     1      26.025   0.654  52.086  1.00  0.00     0.152 C 
BRANCH   6   7
HETATM    7  N5  UNL     1      27.065   0.929  52.986  1.00  0.00    -0.405 N 
HETATM    8  C12 UNL     1      27.016   0.329  54.267  1.00  0.00     0.143 C 
HETATM    9  C13 UNL     1      28.480   0.197  54.731  1.00  0.00     0.187 C 
HETATM   10  O1  UNL     1      28.914   1.508  54.902  1.00  0.00    -0.388 OA
HETATM   11  C14 UNL     1      28.898   2.265  53.760  1.00  0.00     0.187 C 
HETATM   12  C15 UNL     1      27.577   2.250  53.013  1.00  0.00     0.143 C 
ENDBRANCH   6   7
ENDBRANCH   4   6
ENDBRANCH   3   4
ENDBRANCH   1   3
BRANCH   1  13
HETATM   13  C4  UNL     1      25.534   3.802  49.645  1.00  0.00     0.085 C 
HETATM   14  C5  UNL     1      26.804   3.842  49.283  1.00  0.00     0.048 C 
BRANCH  14  15
HETATM   15  C6  UNL     1      27.345   5.076  48.735  1.00  0.00     0.057 C 
HETATM   16  C7  UNL     1      26.408   6.001  48.635  1.00  0.00     0.026 C 
HETATM   17  C8  UNL     1      26.460   7.380  48.151  1.00  0.00     0.179 C 
HETATM   18  N2  UNL     1      27.390   8.242  48.802  1.00  0.00    -0.281 NA
HETATM   19  C9  UNL     1      28.670   8.220  48.988  1.00  0.00     0.201 C 
HETATM   20  N3  UNL     1      29.732   7.317  48.624  1.00  0.00    -0.346 N 
HETATM   21  C10 UNL     1      29.691   5.892  48.398  1.00  0.00     0.208 C 
HETATM   22  H12 UNL     1      30.644   7.793  48.516  1.00  0.00     0.167 HD
HETATM   23  N4  UNL     1      28.747   4.991  48.439  1.00  0.00    -0.244 NA
ENDBRANCH  14  15
ENDBRANCH   1  13
TORSDOF 6
ENDMDL
MODEL 3
REMARK VINA RESULT:      -6.6      2.106      3.811
REMARK  6 active torsions:
REMARK  status: ('A' for Active; 'I' for Inactive)
REMARK    1  A    between atoms: C2_2  and  C3_3 
REMARK    2  A    between atoms: C2_2  and  C11_15 
REMARK    3  A    between atoms: C3_3  and  N1_4 
REMARK    4  A    between atoms: N1_4  and  C4_5 
REMARK    5  A    between atoms: C5_6  and  C6_7 
REMARK    6  A    between atoms: C11_15  and  N5_16 
ROOT
HETATM    1  N1  UNL     1      23.792   3.516  51.594  1.00  0.00    -0.395 N 
HETATM    2  H5  UNL     1      23.904   4.203  50.817  1.00  0.00     0.159 HD
ENDROOT
BRANCH   1   3
HETATM    3  C3  UNL     1      22.585   3.185  52.362  1.00  0.00     0.154 C 
BRANCH   3   4
HETATM    4  C2  UNL     1      21.881   2.132  51.598  1.00  0.00    -0.054 C 
HETATM    5  C1  UNL     1      20.866   2.620  50.839  1.00  0.00     0.017 C 
BRANCH   4   6
HETATM    6  C11 UNL     1      22.041   0.666  51.465  1.00  0.00     0.152 C 
BRANCH   6   7
HETATM    7  N5  UNL     1      21.943  -0.044  52.671  1.00  0.00    -0.405 N 
HETATM    8  C12 UNL     1      20.709  -0.018  53.362  1.00  0.00     0.143 C 
HETATM    9  C13 UNL     1      20.641  -1.335  54.161  1.00  0.00     0.187 C 
HETATM   10  O1  UNL     1      21.652  -1.222  55.110  1.00  0.00    -0.388 OA
HETATM   11  C14 UNL     1      22.914  -1.109  54.585  1.00  0.00     0.187 C 
HETATM   12  C15 UNL     1      23.064  -0.021  53.537  1.00  0.00     0.143 C 
ENDBRANCH   6   7
ENDBRANCH   4   6
ENDBRANCH   3   4
ENDBRANCH   1   3
BRANCH   1  13
HETATM   13  C4  UNL     1      24.929   2.791  51.986  1.00  0.00     0.085 C 
HETATM   14  C5  UNL     1      25.649   1.832  51.433  1.00  0.00     0.048 C 
BRANCH  14  15
HETATM   15  C6  UNL     1      26.797   1.303  52.153  1.00  0.00     0.057 C 
HETATM   16  C7  UNL     1      27.483   2.274  52.729  1.00  0.00     0.026 C 
HETATM   17  C8  UNL     1      28.693   2.246  53.549  1.00  0.00     0.179 C 
HETATM   18  N2  UNL     1      28.639   1.441  54.726  1.00  0.00    -0.281 NA
HETATM   19  C9  UNL     1      28.408   0.190  54.958  1.00  0.00     0.201 C 
HETATM   20  N3  UNL     1      28.099  -0.954  54.139  1.00  0.00    -0.346 N 
HETATM   21  C10 UNL     1      27.428  -1.017  52.863  1.00  0.00     0.208 C 
HETATM   22  H12 UNL     1      28.421  -1.845  54.555  1.00  0.00     0.167 HD
HETATM   23  N4  UNL     1      26.906  -0.126  52.064  1.00  0.00    -0.244 NA
ENDBRANCH  14  15
ENDBRANCH   1  13
TORSDOF 6
ENDMDL
MODEL 4
REMARK VINA RESULT:      -6.5      1.448      2.011
REMARK  6 active torsions:
REMARK  status: ('A' for Active; 'I' for Inactive)
REMARK    1  A    between atoms: C2_2  and  C3_3 
REMARK    2  A    between atoms: C2_2  and  C11_15 
REMARK    3  A    between atoms: C3_3  and  N1_4 
REMARK    4  A    between atoms: N1_4  and  C4_5 
REMARK    5  A    between atoms: C5_6  and  C6_7 
REMARK    6  A    between atoms: C11_15  and  N5_16 
ROOT
HETATM    1  N1  UNL     1      21.937  -0.781  53.239  1.00  0.00    -0.395 N 
HETATM    2  H5  UNL     1      21.618  -1.656  52.770  1.00  0.00     0.159 HD
ENDROOT
BRANCH   1   3
HETATM    3  C3  UNL     1      21.139   0.221  53.957  1.00  0.00     0.154 C 
BRANCH   3   4
HETATM    4  C2  UNL     1      20.391   0.974  52.928  1.00  0.00    -0.054 C 
HETATM    5  C1  UNL     1      19.478   0.211  52.274  1.00  0.00     0.017 C 
BRANCH   4   6
HETATM    6  C11 UNL     1      20.405   2.379  52.457  1.00  0.00     0.152 C 
BRANCH   6   7
HETATM    7  N5  UNL     1      21.652   2.828  51.997  1.00  0.00    -0.405 N 
HETATM    8  C12 UNL     1      22.014   4.171  52.253  1.00  0.00     0.143 C 
HETATM    9  C13 UNL     1      23.554   4.192  52.309  1.00  0.00     0.187 C 
HETATM   10  O1  UNL     1      23.958   3.893  51.011  1.00  0.00    -0.388 OA
HETATM   11  C14 UNL     1      23.567   2.656  50.566  1.00  0.00     0.187 C 
HETATM   12  C15 UNL     1      22.085   2.369  50.728  1.00  0.00     0.143 C 
ENDBRANCH   6   7
ENDBRANCH   4   6
ENDBRANCH   3   4
ENDBRANCH   1   3
BRANCH   1  13
HETATM   13  C4  UNL     1      23.310  -0.489  53.200  1.00  0.00     0.085 C 
HETATM   14  C5  UNL     1      24.034   0.584  53.463  1.00  0.00     0.048 C 
BRANCH  14  15
HETATM   15  C6  UNL     1      25.480   0.519  53.307  1.00  0.00     0.057 C 
HETATM   16  C7  UNL     1      26.044   1.663  53.648  1.00  0.00     0.026 C 
HETATM   17  C8  UNL     1      27.445   2.081  53.664  1.00  0.00     0.179 C 
HETATM   18  N2  UNL     1      28.332   1.287  54.449  1.00  0.00    -0.281 NA
HETATM   19  C9  UNL     1      28.666   0.038  54.453  1.00  0.00     0.201 C 
HETATM   20  N3  UNL     1      28.295  -1.115  53.672  1.00  0.00    -0.346 N 
HETATM   21  C10 UNL     1      27.061  -1.397  52.978  1.00  0.00     0.208 C 
HETATM   22  H12 UNL     1      29.047  -1.823  53.620  1.00  0.00     0.167 HD
HETATM   23  N4  UNL     1      25.935  -0.754  52.826  1.00  0.00    -0.244 NA
ENDBRANCH  14  15
ENDBRANCH   1  13
TORSDOF 6
ENDMDL
MODEL 5
REMARK VINA RESULT:      -6.5      2.585      4.267
REMARK  6 active torsions:
REMARK  status: ('A' for Active; 'I' for Inactive)
REMARK    1  A    between atoms: C2_2  and  C3_3 
REMARK    2  A    between atoms: C2_2  and  C11_15 
REMARK    3  A    between atoms: C3_3  and  N1_4 
REMARK    4  A    between atoms: N1_4  and  C4_5 
REMARK    5  A    between atoms: C5_6  and  C6_7 
REMARK    6  A    between atoms: C11_15  and  N5_16 
ROOT
HETATM    1  N1  UNL     1      26.411   3.643  50.800  1.00  0.00    -0.395 N 
HETATM    2  H5  UNL     1      26.673   4.580  51.177  1.00  0.00     0.159 HD
ENDROOT
BRANCH   1   3
HETATM    3  C3  UNL     1      25.704   3.318  49.555  1.00  0.00     0.154 C 
BRANCH   3   4
HETATM    4  C2  UNL     1      24.308   3.768  49.738  1.00  0.00    -0.054 C 
HETATM    5  C1  UNL     1      23.469   3.292  48.781  1.00  0.00     0.017 C 
BRANCH   4   6
HETATM    6  C11 UNL     1      23.614   4.612  50.738  1.00  0.00     0.152 C 
BRANCH   6   7
HETATM    7  N5  UNL     1      22.476   4.023  51.310  1.00  0.00    -0.405 N 
HETATM    8  C12 UNL     1      21.372   4.855  51.611  1.00  0.00     0.143 C 
HETATM    9  C13 UNL     1      20.125   3.953  51.530  1.00  0.00     0.187 C 
HETATM   10  O1  UNL     1      20.270   3.057  52.584  1.00  0.00    -0.388 OA
HETATM   11  C14 UNL     1      21.379   2.255  52.500  1.00  0.00     0.187 C 
HETATM   12  C15 UNL     1      22.680   3.003  52.273  1.00  0.00     0.143 C 
ENDBRANCH   6   7
ENDBRANCH   4   6
ENDBRANCH   3   4
ENDBRANCH   1   3
BRANCH   1  13
HETATM   13  C4  UNL     1      26.767   2.517  51.559  1.00  0.00     0.085 C 
HETATM   14  C5  UNL     1      26.187   1.360  51.824  1.00  0.00     0.048 C 
BRANCH  14  15
HETATM   15  C6  UNL     1      26.874   0.402  52.678  1.00  0.00     0.057 C 
HETATM   16  C7  UNL     1      26.648  -0.836  52.277  1.00  0.00     0.026 C 
HETATM   17  C8  UNL     1      27.111  -2.119  52.802  1.00  0.00     0.179 C 
HETATM   18  N2  UNL     1      28.524  -2.293  52.889  1.00  0.00    -0.281 NA
HETATM   19  C9  UNL     1      29.479  -1.661  53.491  1.00  0.00     0.201 C 
HETATM   20  N3  UNL     1      29.549  -0.499  54.340  1.00  0.00    -0.346 N 
HETATM   21  C10 UNL     1      28.687   0.657  54.390  1.00  0.00     0.208 C 
HETATM   22  H12 UNL     1      30.346  -0.531  54.999  1.00  0.00     0.167 HD
HETATM   23  N4  UNL     1      27.620   1.026  53.734  1.00  0.00    -0.244 NA
ENDBRANCH  14  15
ENDBRANCH   1  13
TORSDOF 6
ENDMDL
MODEL 6
REMARK VINA RESULT:      -6.5      2.137      3.843
REMARK  6 active torsions:
REMARK  status: ('A' for Active; 'I' for Inactive)
REMARK    1  A    between atoms: C2_2  and  C3_3 
REMARK    2  A    between atoms: C2_2  and  C11_15 
REMARK    3  A    between atoms: C3_3  and  N1_4 
REMARK    4  A    between atoms: N1_4  and  C4_5 
REMARK    5  A    between atoms: C5_6  and  C6_7 
REMARK    6  A    between atoms: C11_15  and  N5_16 
ROOT
HETATM    1  N1  UNL     1      24.967   3.524  51.606  1.00  0.00    -0.395 N 
HETATM    2  H5  UNL     1      25.385   4.005  50.779  1.00  0.00     0.159 HD
ENDROOT
BRANCH   1   3
HETATM    3  C3  UNL     1      23.714   3.825  52.309  1.00  0.00     0.154 C 
BRANCH   3   4
HETATM    4  C2  UNL     1      22.653   3.064  51.615  1.00  0.00    -0.054 C 
HETATM    5  C1  UNL     1      22.786   3.084  50.264  1.00  0.00     0.017 C 
BRANCH   4   6
HETATM    6  C11 UNL     1      21.484   2.271  52.063  1.00  0.00     0.152 C 
BRANCH   6   7
HETATM    7  N5  UNL     1      21.796   1.205  52.919  1.00  0.00    -0.405 N 
HETATM    8  C12 UNL     1      22.733   0.243  52.474  1.00  0.00     0.143 C 
HETATM    9  C13 UNL     1      23.390  -0.330  53.745  1.00  0.00     0.187 C 
HETATM   10  O1  UNL     1      22.366  -1.016  54.392  1.00  0.00    -0.388 OA
HETATM   11  C14 UNL     1      21.311  -0.229  54.777  1.00  0.00     0.187 C 
HETATM   12  C15 UNL     1      20.737   0.639  53.673  1.00  0.00     0.143 C 
ENDBRANCH   6   7
ENDBRANCH   4   6
ENDBRANCH   3   4
ENDBRANCH   1   3
BRANCH   1  13
HETATM   13  C4  UNL     1      25.671   2.435  52.145  1.00  0.00     0.085 C 
HETATM   14  C5  UNL     1      26.482   1.520  51.645  1.00  0.00     0.048 C 
BRANCH  14  15
HETATM   15  C6  UNL     1      27.046   0.513  52.531  1.00  0.00     0.057 C 
HETATM   16  C7  UNL     1      26.635  -0.696  52.195  1.00  0.00     0.026 C 
HETATM   17  C8  UNL     1      26.922  -2.009  52.772  1.00  0.00     0.179 C 
HETATM   18  N2  UNL     1      28.297  -2.380  52.841  1.00  0.00    -0.281 NA
HETATM   19  C9  UNL     1      29.348  -1.866  53.393  1.00  0.00     0.201 C 
HETATM   20  N3  UNL     1      29.606  -0.690  54.184  1.00  0.00    -0.346 N 
HETATM   21  C10 UNL     1      28.920   0.580  54.194  1.00  0.00     0.208 C 
HETATM   22  H12 UNL     1      30.406  -0.807  54.829  1.00  0.00     0.167 HD
HETATM   23  N4  UNL     1      27.900   1.070  53.541  1.00  0.00    -0.244 NA
ENDBRANCH  14  15
ENDBRANCH   1  13
TORSDOF 6
ENDMDL
MODEL 7
REMARK VINA RESULT:      -6.4      3.070      5.064
REMARK  6 active torsions:
REMARK  status: ('A' for Active; 'I' for Inactive)
REMARK    1  A    between atoms: C2_2  and  C3_3 
REMARK    2  A    between atoms: C2_2  and  C11_15 
REMARK    3  A    between atoms: C3_3  and  N1_4 
REMARK    4  A    between atoms: N1_4  and  C4_5 
REMARK    5  A    between atoms: C5_6  and  C6_7 
REMARK    6  A    between atoms: C11_15  and  N5_16 
ROOT
HETATM    1  N1  UNL     1      26.481   3.578  51.045  1.00  0.00    -0.395 N 
HETATM    2  H5  UNL     1      26.507   4.471  51.585  1.00  0.00     0.159 HD
ENDROOT
BRANCH   1   3
HETATM    3  C3  UNL     1      26.144   3.367  49.632  1.00  0.00     0.154 C 
BRANCH   3   4
HETATM    4  C2  UNL     1      25.582   4.643  49.142  1.00  0.00    -0.054 C 
HETATM    5  C1  UNL     1      26.536   5.569  48.865  1.00  0.00     0.017 C 
BRANCH   4   6
HETATM    6  C11 UNL     1      24.211   5.136  48.872  1.00  0.00     0.152 C 
BRANCH   6   7
HETATM    7  N5  UNL     1      23.290   4.890  49.901  1.00  0.00    -0.405 N 
HETATM    8  C12 UNL     1      21.925   4.750  49.556  1.00  0.00     0.143 C 
HETATM    9  C13 UNL     1      21.306   3.840  50.635  1.00  0.00     0.187 C 
HETATM   10  O1  UNL     1      21.364   4.591  51.805  1.00  0.00    -0.388 OA
HETATM   11  C14 UNL     1      22.633   4.920  52.206  1.00  0.00     0.187 C 
HETATM   12  C15 UNL     1      23.484   5.570  51.130  1.00  0.00     0.143 C 
ENDBRANCH   6   7
ENDBRANCH   4   6
ENDBRANCH   3   4
ENDBRANCH   1   3
BRANCH   1  13
HETATM   13  C4  UNL     1      26.806   2.397  51.732  1.00  0.00     0.085 C 
HETATM   14  C5  UNL     1      27.702   2.079  52.649  1.00  0.00     0.048 C 
BRANCH  14  15
HETATM   15  C6  UNL     1      27.751   0.713  53.148  1.00  0.00     0.057 C 
HETATM   16  C7  UNL     1      26.617   0.080  52.906  1.00  0.00     0.026 C 
HETATM   17  C8  UNL     1      26.190  -1.285  53.209  1.00  0.00     0.179 C 
HETATM   18  N2  UNL     1      27.009  -2.332  52.691  1.00  0.00    -0.281 NA
HETATM   19  C9  UNL     1      28.255  -2.654  52.817  1.00  0.00     0.201 C 
HETATM   20  N3  UNL     1      29.378  -2.104  53.534  1.00  0.00    -0.346 N 
HETATM   21  C10 UNL     1      29.641  -0.739  53.923  1.00  0.00     0.208 C 
HETATM   22  H12 UNL     1      30.079  -2.820  53.792  1.00  0.00     0.167 HD
HETATM   23  N4  UNL     1      29.001   0.389  53.775  1.00  0.00    -0.244 NA
ENDBRANCH  14  15
ENDBRANCH   1  13
TORSDOF 6
ENDMDL
MODEL 8
REMARK VINA RESULT:      -6.4      1.687      2.447
REMARK  6 active torsions:
REMARK  status: ('A' for Active; 'I' for Inactive)
REMARK    1  A    between atoms: C2_2  and  C3_3 
REMARK    2  A    between atoms: C2_2  and  C11_15 
REMARK    3  A    between atoms: C3_3  and  N1_4 
REMARK    4  A    between atoms: N1_4  and  C4_5 
REMARK    5  A    between atoms: C5_6  and  C6_7 
REMARK    6  A    between atoms: C11_15  and  N5_16 
ROOT
HETATM    1  N1  UNL     1      22.431  -0.166  53.562  1.00  0.00    -0.395 N 
HETATM    2  H5  UNL     1      22.128  -1.054  54.018  1.00  0.00     0.159 HD
ENDROOT
BRANCH   1   3
HETATM    3  C3  UNL     1      21.602   0.903  52.989  1.00  0.00     0.154 C 
BRANCH   3   4
HETATM    4  C2  UNL     1      22.007   1.031  51.573  1.00  0.00    -0.054 C 
HETATM    5  C1  UNL     1      21.287   0.233  50.744  1.00  0.00     0.017 C 
BRANCH   4   6
HETATM    6  C11 UNL     1      23.014   1.845  50.853  1.00  0.00     0.152 C 
BRANCH   6   7
HETATM    7  N5  UNL     1      22.869   3.230  51.015  1.00  0.00    -0.405 N 
HETATM    8  C12 UNL     1      21.765   3.864  50.397  1.00  0.00     0.143 C 
HETATM    9  C13 UNL     1      21.450   5.104  51.256  1.00  0.00     0.187 C 
HETATM   10  O1  UNL     1      22.553   5.936  51.089  1.00  0.00    -0.388 OA
HETATM   11  C14 UNL     1      23.737   5.404  51.531  1.00  0.00     0.187 C 
HETATM   12  C15 UNL     1      24.046   4.020  50.989  1.00  0.00     0.143 C 
ENDBRANCH   6   7
ENDBRANCH   4   6
ENDBRANCH   3   4
ENDBRANCH   1   3
BRANCH   1  13
HETATM   13  C4  UNL     1      23.811   0.074  53.466  1.00  0.00     0.085 C 
HETATM   14  C5  UNL     1      24.886  -0.501  53.974  1.00  0.00     0.048 C 
BRANCH  14  15
HETATM   15  C6  UNL     1      26.198   0.035  53.646  1.00  0.00     0.057 C 
HETATM   16  C7  UNL     1      26.150   0.764  52.545  1.00  0.00     0.026 C 
HETATM   17  C8  UNL     1      27.191   1.498  51.828  1.00  0.00     0.179 C 
HETATM   18  N2  UNL     1      27.898   2.484  52.577  1.00  0.00    -0.281 NA
HETATM   19  C9  UNL     1      28.606   2.465  53.659  1.00  0.00     0.201 C 
HETATM   20  N3  UNL     1      28.999   1.443  54.596  1.00  0.00    -0.346 N 
HETATM   21  C10 UNL     1      28.327   0.217  54.955  1.00  0.00     0.208 C 
HETATM   22  H12 UNL     1      29.900   1.650  55.060  1.00  0.00     0.167 HD
HETATM   23  N4  UNL     1      27.213  -0.353  54.584  1.00  0.00    -0.244 NA
ENDBRANCH  14  15
ENDBRANCH   1  13
TORSDOF 6
ENDMDL
MODEL 9
REMARK VINA RESULT:      -6.3      5.294      7.798
REMARK  6 active torsions:
REMARK  status: ('A' for Active; 'I' for Inactive)
REMARK    1  A    between atoms: C2_2  and  C3_3 
REMARK    2  A    between atoms: C2_2  and  C11_15 
REMARK    3  A    between atoms: C3_3  and  N1_4 
REMARK    4  A    between atoms: N1_4  and  C4_5 
REMARK    5  A    between atoms: C5_6  and  C6_7 
REMARK    6  A    between atoms: C11_15  and  N5_16 
ROOT
HETATM    1  N1  UNL     1      26.139   4.252  49.722  1.00  0.00    -0.395 N 
HETATM    2  H5  UNL     1      25.147   4.576  49.718  1.00  0.00     0.159 HD
ENDROOT
BRANCH   1   3
HETATM    3  C3  UNL     1      27.237   4.642  48.829  1.00  0.00     0.154 C 
BRANCH   3   4
HETATM    4  C2  UNL     1      27.072   6.088  48.572  1.00  0.00    -0.054 C 
HETATM    5  C1  UNL     1      26.074   6.645  49.306  1.00  0.00     0.017 C 
BRANCH   4   6
HETATM    6  C11 UNL     1      27.758   7.071  47.702  1.00  0.00     0.152 C 
BRANCH   6   7
HETATM    7  N5  UNL     1      28.894   7.663  48.274  1.00  0.00    -0.405 N 
HETATM    8  C12 UNL     1      29.013   9.072  48.219  1.00  0.00     0.143 C 
HETATM    9  C13 UNL     1      29.865   9.475  49.439  1.00  0.00     0.187 C 
HETATM   10  O1  UNL     1      31.124   8.941  49.180  1.00  0.00    -0.388 OA
HETATM   11  C14 UNL     1      31.151   7.574  49.077  1.00  0.00     0.187 C 
HETATM   12  C15 UNL     1      30.134   6.996  48.109  1.00  0.00     0.143 C 
ENDBRANCH   6   7
ENDBRANCH   4   6
ENDBRANCH   3   4
ENDBRANCH   1   3
BRANCH   1  13
HETATM   13  C4  UNL     1      26.509   3.316  50.700  1.00  0.00     0.085 C 
HETATM   14  C5  UNL     1      26.392   2.005  50.816  1.00  0.00     0.048 C 
BRANCH  14  15
HETATM   15  C6  UNL     1      26.909   1.350  52.008  1.00  0.00     0.057 C 
HETATM   16  C7  UNL     1      26.468   0.108  52.095  1.00  0.00     0.026 C 
HETATM   17  C8  UNL     1      26.704  -0.933  53.094  1.00  0.00     0.179 C 
HETATM   18  N2  UNL     1      28.066  -1.289  53.323  1.00  0.00    -0.281 NA
HETATM   19  C9  UNL     1      29.122  -0.640  53.694  1.00  0.00     0.201 C 
HETATM   20  N3  UNL     1      29.401   0.730  54.042  1.00  0.00    -0.346 N 
HETATM   21  C10 UNL     1      28.753   1.941  53.598  1.00  0.00     0.208 C 
HETATM   22  H12 UNL     1      30.186   0.823  54.709  1.00  0.00     0.167 HD
HETATM   23  N4  UNL     1      27.761   2.200  52.790  1.00  0.00    -0.244 NA
ENDBRANCH  14  15
ENDBRANCH   1  13
TORSDOF 6
ENDMDL
