MODEL 1
REMARK VINA RESULT:      -8.0      0.000      0.000
REMARK  3 active torsions:
REMARK  status: ('A' for Active; 'I' for Inactive)
REMARK    1  A    between atoms: O1_3  and  C3_4 
REMARK    2  A    between atoms: C7_10  and  N3_11 
REMARK    3  A    between atoms: N3_11  and  C8_12 
ROOT
HETATM    1  C1  UNL     1      22.102  -1.595  54.763  1.00  0.00     0.045 C 
HETATM    2  C2  UNL     1      21.734  -0.632  54.132  1.00  0.00     0.048 C 
HETATM    3  O1  UNL     1      21.334   0.472  53.400  1.00  0.00    -0.266 OA
ENDROOT
BRANCH   3   4
HETATM    4  C3  UNL     1      22.235   1.145  52.578  1.00  0.00     0.071 A 
HETATM    5  C4  UNL     1      22.059   1.620  51.357  1.00  0.00     0.066 A 
HETATM    6  C5  UNL     1      23.290   2.240  50.915  1.00  0.00     0.071 A 
HETATM    7  N1  UNL     1      23.594   2.852  49.761  1.00  0.00    -0.241 NA
HETATM    8  C14 UNL     1      24.257   2.150  51.888  1.00  0.00     0.023 A 
HETATM    9  C6  UNL     1      24.847   3.342  49.637  1.00  0.00     0.235 A 
HETATM   10  N2  UNL     1      25.802   3.264  50.572  1.00  0.00    -0.224 NA
HETATM   11  C7  UNL     1      25.530   2.660  51.735  1.00  0.00     0.138 A 
HETATM   12  C15 UNL     1      23.600   1.430  53.012  1.00  0.00     0.111 A 
BRANCH  11  13
HETATM   13  N3  UNL     1      26.455   2.514  52.800  1.00  0.00    -0.340 N 
HETATM   14  H4  UNL     1      26.487   3.292  53.519  1.00  0.00     0.167 HD
BRANCH  13  15
HETATM   15  C8  UNL     1      27.354   1.461  53.037  1.00  0.00     0.035 A 
HETATM   16  C9  UNL     1      28.619   1.569  53.567  1.00  0.00     0.032 A 
HETATM   17  C10 UNL     1      29.496   0.533  53.798  1.00  0.00     0.046 A 
HETATM   18  C11 UNL     1      29.092  -0.743  53.476  1.00  0.00     0.138 A 
HETATM   19  F1  UNL     1      29.870  -1.826  53.661  1.00  0.00    -0.204 F 
HETATM   20  C12 UNL     1      27.835  -0.923  52.942  1.00  0.00     0.074 A 
HETATM   21 CL1  UNL     1      27.306  -2.538  52.528  1.00  0.00    -0.081 Cl
HETATM   22  C13 UNL     1      27.010   0.154  52.738  1.00  0.00     0.056 A 
ENDBRANCH  13  15
ENDBRANCH  11  13
ENDBRANCH   3   4
TORSDOF 3
ENDMDL
MODEL 2
REMARK VINA RESULT:      -7.8      3.001      4.185
REMARK  3 active torsions:
REMARK  status: ('A' for Active; 'I' for Inactive)
REMARK    1  A    between atoms: O1_3  and  C3_4 
REMARK    2  A    between atoms: C7_10  and  N3_11 
REMARK    3  A    between atoms: N3_11  and  C8_12 
ROOT
HETATM    1  C1  UNL     1      17.163  -0.206  50.217  1.00  0.00     0.045 C 
HETATM    2  C2  UNL     1      18.185   0.368  50.514  1.00  0.00     0.048 C 
HETATM    3  O1  UNL     1      19.360   1.008  50.869  1.00  0.00    -0.266 OA
ENDROOT
BRANCH   3   4
HETATM    4  C3  UNL     1      20.191   0.475  51.851  1.00  0.00     0.071 A 
HETATM    5  C4  UNL     1      19.868  -0.143  52.974  1.00  0.00     0.066 A 
HETATM    6  C5  UNL     1      21.083  -0.514  53.669  1.00  0.00     0.071 A 
HETATM    7  N1  UNL     1      21.262  -1.152  54.835  1.00  0.00    -0.241 NA
HETATM    8  C14 UNL     1      22.191  -0.116  52.959  1.00  0.00     0.023 A 
HETATM    9  C6  UNL     1      22.537  -1.360  55.232  1.00  0.00     0.235 A 
HETATM   10  N2  UNL     1      23.628  -0.981  54.555  1.00  0.00    -0.224 NA
HETATM   11  C7  UNL     1      23.483  -0.342  53.388  1.00  0.00     0.138 A 
HETATM   12  C15 UNL     1      21.646   0.546  51.743  1.00  0.00     0.111 A 
BRANCH  11  13
HETATM   13  N3  UNL     1      24.557   0.109  52.580  1.00  0.00    -0.340 N 
HETATM   14  H4  UNL     1      24.305   0.592  51.670  1.00  0.00     0.167 HD
BRANCH  13  15
HETATM   15  C8  UNL     1      25.936   0.003  52.823  1.00  0.00     0.035 A 
HETATM   16  C9  UNL     1      26.689  -1.148  52.770  1.00  0.00     0.032 A 
HETATM   17  C10 UNL     1      28.042  -1.247  53.009  1.00  0.00     0.046 A 
HETATM   18  C11 UNL     1      28.729  -0.099  53.333  1.00  0.00     0.138 A 
HETATM   19  F1  UNL     1      30.052  -0.084  53.585  1.00  0.00    -0.204 F 
HETATM   20  C12 UNL     1      28.036   1.089  53.403  1.00  0.00     0.074 A 
HETATM   21 CL1  UNL     1      28.895   2.557  53.814  1.00  0.00    -0.081 Cl
HETATM   22  C13 UNL     1      26.687   1.118  53.153  1.00  0.00     0.056 A 
ENDBRANCH  13  15
ENDBRANCH  11  13
ENDBRANCH   3   4
TORSDOF 3
ENDMDL
MODEL 3
REMARK VINA RESULT:      -7.8      3.920      5.885
REMARK  3 active torsions:
REMARK  status: ('A' for Active; 'I' for Inactive)
REMARK    1  A    between atoms: O1_3  and  C3_4 
REMARK    2  A    between atoms: C7_10  and  N3_11 
REMARK    3  A    between atoms: N3_11  and  C8_12 
ROOT
HETATM    1  C1  UNL     1      29.773  -0.542  53.757  1.00  0.00     0.045 C 
HETATM    2  C2  UNL     1      28.819  -0.085  54.343  1.00  0.00     0.048 C 
HETATM    3  O1  UNL     1      27.714   0.433  54.996  1.00  0.00    -0.266 OA
ENDROOT
BRANCH   3   4
HETATM    4  C3  UNL     1      26.468   0.456  54.376  1.00  0.00     0.071 A 
HETATM    5  C4  UNL     1      25.564  -0.504  54.281  1.00  0.00     0.066 A 
HETATM    6  C5  UNL     1      24.426  -0.001  53.539  1.00  0.00     0.071 A 
HETATM    7  N1  UNL     1      23.277  -0.600  53.193  1.00  0.00    -0.241 NA
HETATM    8  C14 UNL     1      24.628   1.306  53.165  1.00  0.00     0.023 A 
HETATM    9  C6  UNL     1      22.389   0.137  52.489  1.00  0.00     0.235 A 
HETATM   10  N2  UNL     1      22.566   1.410  52.115  1.00  0.00    -0.224 NA
HETATM   11  C7  UNL     1      23.702   2.036  52.446  1.00  0.00     0.138 A 
HETATM   12  C15 UNL     1      25.972   1.652  53.699  1.00  0.00     0.111 A 
BRANCH  11  13
HETATM   13  N3  UNL     1      24.008   3.379  52.109  1.00  0.00    -0.340 N 
HETATM   14  H4  UNL     1      23.542   4.137  52.684  1.00  0.00     0.167 HD
BRANCH  13  15
HETATM   15  C8  UNL     1      24.859   3.852  51.097  1.00  0.00     0.035 A 
HETATM   16  C9  UNL     1      25.857   3.143  50.470  1.00  0.00     0.032 A 
HETATM   17  C10 UNL     1      26.688   3.613  49.477  1.00  0.00     0.046 A 
HETATM   18  C11 UNL     1      26.525   4.913  49.055  1.00  0.00     0.138 A 
HETATM   19  F1  UNL     1      27.283   5.471  48.092  1.00  0.00    -0.204 F 
HETATM   20  C12 UNL     1      25.542   5.679  49.641  1.00  0.00     0.074 A 
HETATM   21 CL1  UNL     1      25.322   7.333  49.115  1.00  0.00    -0.081 Cl
HETATM   22  C13 UNL     1      24.747   5.149  50.626  1.00  0.00     0.056 A 
ENDBRANCH  13  15
ENDBRANCH  11  13
ENDBRANCH   3   4
TORSDOF 3
ENDMDL
MODEL 4
REMARK VINA RESULT:      -7.7      3.862      6.117
REMARK  3 active torsions:
REMARK  status: ('A' for Active; 'I' for Inactive)
REMARK    1  A    between atoms: O1_3  and  C3_4 
REMARK    2  A    between atoms: C7_10  and  N3_11 
REMARK    3  A    between atoms: N3_11  and  C8_12 
ROOT
HETATM    1  C1  UNL     1      28.392   0.643  53.457  1.00  0.00     0.045 C 
HETATM    2  C2  UNL     1      27.645   0.118  54.249  1.00  0.00     0.048 C 
HETATM    3  O1  UNL     1      26.771  -0.480  55.140  1.00  0.00    -0.266 OA
ENDROOT
BRANCH   3   4
HETATM    4  C3  UNL     1      25.416  -0.593  54.841  1.00  0.00     0.071 A 
HETATM    5  C4  UNL     1      24.462  -1.219  55.509  1.00  0.00     0.066 A 
HETATM    6  C5  UNL     1      23.210  -1.053  54.800  1.00  0.00     0.071 A 
HETATM    7  N1  UNL     1      21.979  -1.502  55.085  1.00  0.00    -0.241 NA
HETATM    8  C14 UNL     1      23.391  -0.303  53.662  1.00  0.00     0.023 A 
HETATM    9  C6  UNL     1      20.992  -1.180  54.220  1.00  0.00     0.235 A 
HETATM   10  N2  UNL     1      21.147  -0.451  53.108  1.00  0.00    -0.224 NA
HETATM   11  C7  UNL     1      22.364   0.012  52.796  1.00  0.00     0.138 A 
HETATM   12  C15 UNL     1      24.842   0.025  53.649  1.00  0.00     0.111 A 
BRANCH  11  13
HETATM   13  N3  UNL     1      22.656   0.792  51.648  1.00  0.00    -0.340 N 
HETATM   14  H4  UNL     1      22.563   0.315  50.706  1.00  0.00     0.167 HD
BRANCH  13  15
HETATM   15  C8  UNL     1      23.061   2.136  51.585  1.00  0.00     0.035 A 
HETATM   16  C9  UNL     1      22.527   3.185  52.297  1.00  0.00     0.032 A 
HETATM   17  C10 UNL     1      22.928   4.500  52.233  1.00  0.00     0.046 A 
HETATM   18  C11 UNL     1      23.961   4.823  51.381  1.00  0.00     0.138 A 
HETATM   19  F1  UNL     1      24.430   6.076  51.241  1.00  0.00    -0.204 F 
HETATM   20  C12 UNL     1      24.542   3.819  50.638  1.00  0.00     0.074 A 
HETATM   21 CL1  UNL     1      25.855   4.212  49.551  1.00  0.00    -0.081 Cl
HETATM   22  C13 UNL     1      24.093   2.527  50.751  1.00  0.00     0.056 A 
ENDBRANCH  13  15
ENDBRANCH  11  13
ENDBRANCH   3   4
TORSDOF 3
ENDMDL
MODEL 5
REMARK VINA RESULT:      -7.6      2.806      4.712
REMARK  3 active torsions:
REMARK  status: ('A' for Active; 'I' for Inactive)
REMARK    1  A    between atoms: O1_3  and  C3_4 
REMARK    2  A    between atoms: C7_10  and  N3_11 
REMARK    3  A    between atoms: N3_11  and  C8_12 
ROOT
HETATM    1  C1  UNL     1      28.538   6.335  47.983  1.00  0.00     0.045 C 
HETATM    2  C2  UNL     1      28.126   5.255  48.338  1.00  0.00     0.048 C 
HETATM    3  O1  UNL     1      27.637   4.030  48.757  1.00  0.00    -0.266 OA
ENDROOT
BRANCH   3   4
HETATM    4  C3  UNL     1      26.541   3.956  49.612  1.00  0.00     0.071 A 
HETATM    5  C4  UNL     1      25.597   4.853  49.841  1.00  0.00     0.066 A 
HETATM    6  C5  UNL     1      24.669   4.317  50.815  1.00  0.00     0.071 A 
HETATM    7  N1  UNL     1      23.565   4.852  51.355  1.00  0.00    -0.241 NA
HETATM    8  C14 UNL     1      25.045   3.052  51.200  1.00  0.00     0.023 A 
HETATM    9  C6  UNL     1      22.892   4.097  52.252  1.00  0.00     0.235 A 
HETATM   10  N2  UNL     1      23.242   2.865  52.640  1.00  0.00    -0.224 NA
HETATM   11  C7  UNL     1      24.339   2.303  52.119  1.00  0.00     0.138 A 
HETATM   12  C15 UNL     1      26.284   2.771  50.426  1.00  0.00     0.111 A 
BRANCH  11  13
HETATM   13  N3  UNL     1      24.813   1.007  52.450  1.00  0.00    -0.340 N 
HETATM   14  H4  UNL     1      24.150   0.197  52.283  1.00  0.00     0.167 HD
BRANCH  13  15
HETATM   15  C8  UNL     1      26.061   0.643  52.979  1.00  0.00     0.035 A 
HETATM   16  C9  UNL     1      26.860   1.412  53.793  1.00  0.00     0.032 A 
HETATM   17  C10 UNL     1      28.084   1.050  54.309  1.00  0.00     0.046 A 
HETATM   18  C11 UNL     1      28.578  -0.196  53.996  1.00  0.00     0.138 A 
HETATM   19  F1  UNL     1      29.762  -0.650  54.447  1.00  0.00    -0.204 F 
HETATM   20  C12 UNL     1      27.828  -1.019  53.185  1.00  0.00     0.074 A 
HETATM   21 CL1  UNL     1      28.441  -2.606  52.777  1.00  0.00    -0.081 Cl
HETATM   22  C13 UNL     1      26.614  -0.596  52.703  1.00  0.00     0.056 A 
ENDBRANCH  13  15
ENDBRANCH  11  13
ENDBRANCH   3   4
TORSDOF 3
ENDMDL
MODEL 6
REMARK VINA RESULT:      -7.5      3.678      5.596
REMARK  3 active torsions:
REMARK  status: ('A' for Active; 'I' for Inactive)
REMARK    1  A    between atoms: O1_3  and  C3_4 
REMARK    2  A    between atoms: C7_10  and  N3_11 
REMARK    3  A    between atoms: N3_11  and  C8_12 
ROOT
HETATM    1  C1  UNL     1      21.516  -0.470  53.183  1.00  0.00     0.045 C 
HETATM    2  C2  UNL     1      22.529  -0.740  53.785  1.00  0.00     0.048 C 
HETATM    3  O1  UNL     1      23.700  -1.032  54.463  1.00  0.00    -0.266 OA
ENDROOT
BRANCH   3   4
HETATM    4  C3  UNL     1      24.860  -0.300  54.226  1.00  0.00     0.071 A 
HETATM    5  C4  UNL     1      25.906  -0.114  55.012  1.00  0.00     0.066 A 
HETATM    6  C5  UNL     1      26.865   0.725  54.324  1.00  0.00     0.071 A 
HETATM    7  N1  UNL     1      28.064   1.181  54.714  1.00  0.00    -0.241 NA
HETATM    8  C14 UNL     1      26.403   1.069  53.075  1.00  0.00     0.023 A 
HETATM    9  C6  UNL     1      28.741   1.957  53.838  1.00  0.00     0.235 A 
HETATM   10  N2  UNL     1      28.309   2.303  52.619  1.00  0.00    -0.224 NA
HETATM   11  C7  UNL     1      27.115   1.863  52.200  1.00  0.00     0.138 A 
HETATM   12  C15 UNL     1      25.074   0.410  52.967  1.00  0.00     0.111 A 
BRANCH  11  13
HETATM   13  N3  UNL     1      26.549   2.160  50.935  1.00  0.00    -0.340 N 
HETATM   14  H4  UNL     1      26.677   1.438  50.169  1.00  0.00     0.167 HD
BRANCH  13  15
HETATM   15  C8  UNL     1      25.828   3.301  50.547  1.00  0.00     0.035 A 
HETATM   16  C9  UNL     1      26.101   4.115  49.472  1.00  0.00     0.032 A 
HETATM   17  C10 UNL     1      25.391   5.233  49.096  1.00  0.00     0.046 A 
HETATM   18  C11 UNL     1      24.298   5.593  49.853  1.00  0.00     0.138 A 
HETATM   19  F1  UNL     1      23.536   6.666  49.574  1.00  0.00    -0.204 F 
HETATM   20  C12 UNL     1      23.969   4.820  50.945  1.00  0.00     0.074 A 
HETATM   21 CL1  UNL     1      22.583   5.264  51.917  1.00  0.00    -0.081 Cl
HETATM   22  C13 UNL     1      24.719   3.717  51.264  1.00  0.00     0.056 A 
ENDBRANCH  13  15
ENDBRANCH  11  13
ENDBRANCH   3   4
TORSDOF 3
ENDMDL
MODEL 7
REMARK VINA RESULT:      -7.5      2.529      4.153
REMARK  3 active torsions:
REMARK  status: ('A' for Active; 'I' for Inactive)
REMARK    1  A    between atoms: O1_3  and  C3_4 
REMARK    2  A    between atoms: C7_10  and  N3_11 
REMARK    3  A    between atoms: N3_11  and  C8_12 
ROOT
HETATM    1  C1  UNL     1      26.922   4.079  49.299  1.00  0.00     0.045 C 
HETATM    2  C2  UNL     1      25.716   4.007  49.255  1.00  0.00     0.048 C 
HETATM    3  O1  UNL     1      24.336   3.906  49.218  1.00  0.00    -0.266 OA
ENDROOT
BRANCH   3   4
HETATM    4  C3  UNL     1      23.675   2.922  49.948  1.00  0.00     0.071 A 
HETATM    5  C4  UNL     1      22.523   2.325  49.694  1.00  0.00     0.066 A 
HETATM    6  C5  UNL     1      22.251   1.370  50.748  1.00  0.00     0.071 A 
HETATM    7  N1  UNL     1      21.215   0.536  50.924  1.00  0.00    -0.241 NA
HETATM    8  C14 UNL     1      23.260   1.373  51.682  1.00  0.00     0.023 A 
HETATM    9  C6  UNL     1      21.239  -0.250  52.023  1.00  0.00     0.235 A 
HETATM   10  N2  UNL     1      22.211  -0.262  52.942  1.00  0.00    -0.224 NA
HETATM   11  C7  UNL     1      23.259   0.558  52.795  1.00  0.00     0.138 A 
HETATM   12  C15 UNL     1      24.228   2.390  51.191  1.00  0.00     0.111 A 
BRANCH  11  13
HETATM   13  N3  UNL     1      24.349   0.640  53.699  1.00  0.00    -0.340 N 
HETATM   14  H4  UNL     1      24.166   1.110  54.631  1.00  0.00     0.167 HD
BRANCH  13  15
HETATM   15  C8  UNL     1      25.663   0.175  53.526  1.00  0.00     0.035 A 
HETATM   16  C9  UNL     1      26.040  -1.017  52.952  1.00  0.00     0.032 A 
HETATM   17  C10 UNL     1      27.331  -1.467  52.785  1.00  0.00     0.046 A 
HETATM   18  C11 UNL     1      28.360  -0.666  53.225  1.00  0.00     0.138 A 
HETATM   19  F1  UNL     1      29.657  -1.010  53.110  1.00  0.00    -0.204 F 
HETATM   20  C12 UNL     1      28.053   0.543  53.809  1.00  0.00     0.074 A 
HETATM   21 CL1  UNL     1      29.349   1.573  54.373  1.00  0.00    -0.081 Cl
HETATM   22  C13 UNL     1      26.744   0.932  53.945  1.00  0.00     0.056 A 
ENDBRANCH  13  15
ENDBRANCH  11  13
ENDBRANCH   3   4
TORSDOF 3
ENDMDL
MODEL 8
REMARK VINA RESULT:      -7.5      1.576      1.952
REMARK  3 active torsions:
REMARK  status: ('A' for Active; 'I' for Inactive)
REMARK    1  A    between atoms: O1_3  and  C3_4 
REMARK    2  A    between atoms: C7_10  and  N3_11 
REMARK    3  A    between atoms: N3_11  and  C8_12 
ROOT
HETATM    1  C1  UNL     1      21.986  -1.680  54.935  1.00  0.00     0.045 C 
HETATM    2  C2  UNL     1      21.418  -1.090  54.045  1.00  0.00     0.048 C 
HETATM    3  O1  UNL     1      20.789  -0.406  53.019  1.00  0.00    -0.266 OA
ENDROOT
BRANCH   3   4
HETATM    4  C3  UNL     1      21.519   0.399  52.149  1.00  0.00     0.071 A 
HETATM    5  C4  UNL     1      21.247   0.743  50.902  1.00  0.00     0.066 A 
HETATM    6  C5  UNL     1      22.309   1.596  50.410  1.00  0.00     0.071 A 
HETATM    7  N1  UNL     1      22.473   2.186  49.218  1.00  0.00    -0.241 NA
HETATM    8  C14 UNL     1      23.267   1.787  51.378  1.00  0.00     0.023 A 
HETATM    9  C6  UNL     1      23.584   2.937  49.051  1.00  0.00     0.235 A 
HETATM   10  N2  UNL     1      24.528   3.135  49.979  1.00  0.00    -0.224 NA
HETATM   11  C7  UNL     1      24.393   2.560  51.181  1.00  0.00     0.138 A 
HETATM   12  C15 UNL     1      22.784   1.010  52.550  1.00  0.00     0.111 A 
BRANCH  11  13
HETATM   13  N3  UNL     1      25.322   2.693  52.244  1.00  0.00    -0.340 N 
HETATM   14  H4  UNL     1      25.243   3.563  52.845  1.00  0.00     0.167 HD
BRANCH  13  15
HETATM   15  C8  UNL     1      26.353   1.815  52.618  1.00  0.00     0.035 A 
HETATM   16  C9  UNL     1      26.446   0.480  52.299  1.00  0.00     0.032 A 
HETATM   17  C10 UNL     1      27.459  -0.376  52.667  1.00  0.00     0.046 A 
HETATM   18  C11 UNL     1      28.490   0.129  53.428  1.00  0.00     0.138 A 
HETATM   19  F1  UNL     1      29.529  -0.621  53.842  1.00  0.00    -0.204 F 
HETATM   20  C12 UNL     1      28.459   1.459  53.783  1.00  0.00     0.074 A 
HETATM   21 CL1  UNL     1      29.762   2.115  54.750  1.00  0.00    -0.081 Cl
HETATM   22  C13 UNL     1      27.419   2.258  53.382  1.00  0.00     0.056 A 
ENDBRANCH  13  15
ENDBRANCH  11  13
ENDBRANCH   3   4
TORSDOF 3
ENDMDL
MODEL 9
REMARK VINA RESULT:      -7.2      3.842      5.683
REMARK  3 active torsions:
REMARK  status: ('A' for Active; 'I' for Inactive)
REMARK    1  A    between atoms: O1_3  and  C3_4 
REMARK    2  A    between atoms: C7_10  and  N3_11 
REMARK    3  A    between atoms: N3_11  and  C8_12 
ROOT
HETATM    1  C1  UNL     1      18.562  -0.425  52.179  1.00  0.00     0.045 C 
HETATM    2  C2  UNL     1      19.259  -0.808  53.090  1.00  0.00     0.048 C 
HETATM    3  O1  UNL     1      20.074  -1.237  54.122  1.00  0.00    -0.266 OA
ENDROOT
BRANCH   3   4
HETATM    4  C3  UNL     1      21.442  -0.978  54.103  1.00  0.00     0.071 A 
HETATM    5  C4  UNL     1      22.386  -1.412  54.920  1.00  0.00     0.066 A 
HETATM    6  C5  UNL     1      23.659  -0.868  54.493  1.00  0.00     0.071 A 
HETATM    7  N1  UNL     1      24.889  -1.023  55.003  1.00  0.00    -0.241 NA
HETATM    8  C14 UNL     1      23.501  -0.075  53.380  1.00  0.00     0.023 A 
HETATM    9  C6  UNL     1      25.899  -0.380  54.376  1.00  0.00     0.235 A 
HETATM   10  N2  UNL     1      25.767   0.395  53.293  1.00  0.00    -0.224 NA
HETATM   11  C7  UNL     1      24.551   0.570  52.760  1.00  0.00     0.138 A 
HETATM   12  C15 UNL     1      22.044  -0.120  53.086  1.00  0.00     0.111 A 
BRANCH  11  13
HETATM   13  N3  UNL     1      24.281   1.365  51.617  1.00  0.00    -0.340 N 
HETATM   14  H4  UNL     1      24.252   0.868  50.681  1.00  0.00     0.167 HD
BRANCH  13  15
HETATM   15  C8  UNL     1      24.044   2.748  51.552  1.00  0.00     0.035 A 
HETATM   16  C9  UNL     1      23.660   3.562  52.593  1.00  0.00     0.032 A 
HETATM   17  C10 UNL     1      23.429   4.917  52.523  1.00  0.00     0.046 A 
HETATM   18  C11 UNL     1      23.592   5.542  51.307  1.00  0.00     0.138 A 
HETATM   19  F1  UNL     1      23.393   6.862  51.130  1.00  0.00    -0.204 F 
HETATM   20  C12 UNL     1      23.977   4.786  50.223  1.00  0.00     0.074 A 
HETATM   21 CL1  UNL     1      24.189   5.565  48.671  1.00  0.00    -0.081 Cl
HETATM   22  C13 UNL     1      24.191   3.438  50.361  1.00  0.00     0.056 A 
ENDBRANCH  13  15
ENDBRANCH  11  13
ENDBRANCH   3   4
TORSDOF 3
ENDMDL
