MODEL 1
REMARK VINA RESULT:      -8.2      0.000      0.000
REMARK  3 active torsions:
REMARK  status: ('A' for Active; 'I' for Inactive)
REMARK    1  A    between atoms: O1_2  and  C2_3 
REMARK    2  A    between atoms: C3_4  and  O2_5 
REMARK    3  A    between atoms: C7_9  and  O3_10 
ROOT
HETATM    1  C2  UNL     1      27.494   1.276  53.181  1.00  0.00     0.135 A 
HETATM    2  C3  UNL     1      27.072   0.265  54.020  1.00  0.00     0.104 A 
HETATM    3  C4  UNL     1      25.739  -0.073  54.125  1.00  0.00     0.077 A 
HETATM    4  C5  UNL     1      24.792   0.599  53.389  1.00  0.00     0.091 A 
HETATM    5  C6  UNL     1      25.175   1.617  52.539  1.00  0.00     0.084 A 
HETATM    6  C7  UNL     1      26.534   1.942  52.450  1.00  0.00     0.119 A 
HETATM    7  C8  UNL     1      24.396   2.459  51.680  1.00  0.00     0.194 C 
HETATM    8  O4  UNL     1      24.780   3.515  51.132  1.00  0.00    -0.287 OA
HETATM    9  C9  UNL     1      23.031   2.438  51.163  1.00  0.00    -0.004 C 
HETATM   10  C10 UNL     1      22.467   1.426  50.435  1.00  0.00     0.014 C 
HETATM   11  C11 UNL     1      21.264   0.566  50.721  1.00  0.00     0.037 C 
HETATM   12  C12 UNL     1      21.010   0.692  52.051  1.00  0.00     0.071 C 
HETATM   13  C13 UNL     1      20.430   1.911  52.670  1.00  0.00     0.033 C 
HETATM   14  C14 UNL     1      20.947   3.111  52.310  1.00  0.00    -0.019 C 
HETATM   15  C15 UNL     1      22.080   3.589  51.431  1.00  0.00     0.070 C 
HETATM   16  O5  UNL     1      21.264  -0.314  53.058  1.00  0.00    -0.326 OA
HETATM   17  C16 UNL     1      22.693  -0.713  53.058  1.00  0.00     0.351 C 
HETATM   18  O6  UNL     1      23.428   0.447  53.323  1.00  0.00    -0.325 OA
ENDROOT
BRANCH   1  19
HETATM   19  O1  UNL     1      28.848   1.547  53.139  1.00  0.00    -0.351 OA
HETATM   20  C1  UNL     1      29.529   2.280  54.132  1.00  0.00     0.210 C 
ENDBRANCH   1  19
BRANCH   2  21
HETATM   21  O2  UNL     1      27.941  -0.464  54.795  1.00  0.00    -0.358 OA
HETATM   22  H4  UNL     1      28.735  -0.067  55.261  1.00  0.00     0.217 HD
ENDBRANCH   2  21
BRANCH   6  23
HETATM   23  O3  UNL     1      27.087   2.949  51.635  1.00  0.00    -0.357 OA
HETATM   24  H6  UNL     1      26.525   3.768  51.507  1.00  0.00     0.218 HD
ENDBRANCH   6  23
TORSDOF 3
ENDMDL
MODEL 2
REMARK VINA RESULT:      -7.9      1.262      3.238
REMARK  3 active torsions:
REMARK  status: ('A' for Active; 'I' for Inactive)
REMARK    1  A    between atoms: O1_2  and  C2_3 
REMARK    2  A    between atoms: C3_4  and  O2_5 
REMARK    3  A    between atoms: C7_9  and  O3_10 
ROOT
HETATM    1  C2  UNL     1      27.481   0.646  53.770  1.00  0.00     0.135 A 
HETATM    2  C3  UNL     1      27.904   1.704  52.991  1.00  0.00     0.104 A 
HETATM    3  C4  UNL     1      27.032   2.380  52.163  1.00  0.00     0.077 A 
HETATM    4  C5  UNL     1      25.709   2.010  52.097  1.00  0.00     0.091 A 
HETATM    5  C6  UNL     1      25.249   0.957  52.861  1.00  0.00     0.084 A 
HETATM    6  C7  UNL     1      26.154   0.286  53.693  1.00  0.00     0.119 A 
HETATM    7  C8  UNL     1      23.941   0.383  52.969  1.00  0.00     0.194 C 
HETATM    8  O4  UNL     1      23.656  -0.718  53.490  1.00  0.00    -0.287 OA
HETATM    9  C9  UNL     1      22.594   0.784  52.574  1.00  0.00    -0.004 C 
HETATM   10  C10 UNL     1      21.959   1.934  52.955  1.00  0.00     0.014 C 
HETATM   11  C11 UNL     1      21.416   3.072  52.133  1.00  0.00     0.037 C 
HETATM   12  C12 UNL     1      21.999   2.973  50.908  1.00  0.00     0.071 C 
HETATM   13  C13 UNL     1      21.651   1.931  49.908  1.00  0.00     0.033 C 
HETATM   14  C14 UNL     1      21.549   0.650  50.338  1.00  0.00    -0.019 C 
HETATM   15  C15 UNL     1      21.767  -0.081  51.643  1.00  0.00     0.070 C 
HETATM   16  O5  UNL     1      23.036   3.839  50.395  1.00  0.00    -0.326 OA
HETATM   17  C16 UNL     1      24.216   3.844  51.294  1.00  0.00     0.351 C 
HETATM   18  O6  UNL     1      24.667   2.522  51.362  1.00  0.00    -0.325 OA
ENDROOT
BRANCH   1  19
HETATM   19  O1  UNL     1      28.424   0.026  54.568  1.00  0.00    -0.351 OA
HETATM   20  C1  UNL     1      29.394  -0.872  54.079  1.00  0.00     0.210 C 
ENDBRANCH   1  19
BRANCH   2  21
HETATM   21  O2  UNL     1      29.203   2.148  52.987  1.00  0.00    -0.358 OA
HETATM   22  H4  UNL     1      29.507   2.978  53.463  1.00  0.00     0.217 HD
ENDBRANCH   2  21
BRANCH   6  23
HETATM   23  O3  UNL     1      25.847  -0.803  54.532  1.00  0.00    -0.357 OA
HETATM   24  H6  UNL     1      25.034  -1.334  54.284  1.00  0.00     0.218 HD
ENDBRANCH   6  23
TORSDOF 3
ENDMDL
MODEL 3
REMARK VINA RESULT:      -7.7      1.569      2.085
REMARK  3 active torsions:
REMARK  status: ('A' for Active; 'I' for Inactive)
REMARK    1  A    between atoms: O1_2  and  C2_3 
REMARK    2  A    between atoms: C3_4  and  O2_5 
REMARK    3  A    between atoms: C7_9  and  O3_10 
ROOT
HETATM    1  C2  UNL     1      25.608  -0.455  53.963  1.00  0.00     0.135 A 
HETATM    2  C3  UNL     1      24.697  -0.974  54.859  1.00  0.00     0.104 A 
HETATM    3  C4  UNL     1      23.345  -0.730  54.734  1.00  0.00     0.077 A 
HETATM    4  C5  UNL     1      22.872   0.046  53.701  1.00  0.00     0.091 A 
HETATM    5  C6  UNL     1      23.753   0.583  52.784  1.00  0.00     0.084 A 
HETATM    6  C7  UNL     1      25.120   0.321  52.933  1.00  0.00     0.119 A 
HETATM    7  C8  UNL     1      23.519   1.413  51.639  1.00  0.00     0.194 C 
HETATM    8  O4  UNL     1      24.381   2.060  51.006  1.00  0.00    -0.287 OA
HETATM    9  C9  UNL     1      22.349   1.792  50.852  1.00  0.00    -0.004 C 
HETATM   10  C10 UNL     1      21.500   0.928  50.216  1.00  0.00     0.014 C 
HETATM   11  C11 UNL     1      20.021   0.705  50.385  1.00  0.00     0.037 C 
HETATM   12  C12 UNL     1      19.685   1.253  51.583  1.00  0.00     0.071 C 
HETATM   13  C13 UNL     1      19.610   2.716  51.832  1.00  0.00     0.033 C 
HETATM   14  C14 UNL     1      20.630   3.487  51.381  1.00  0.00    -0.019 C 
HETATM   15  C15 UNL     1      21.956   3.248  50.696  1.00  0.00     0.070 C 
HETATM   16  O5  UNL     1      19.361   0.520  52.786  1.00  0.00    -0.326 OA
HETATM   17  C16 UNL     1      20.471  -0.388  53.167  1.00  0.00     0.351 C 
HETATM   18  O6  UNL     1      21.593   0.422  53.371  1.00  0.00    -0.325 OA
ENDROOT
BRANCH   1  19
HETATM   19  O1  UNL     1      26.942  -0.750  54.166  1.00  0.00    -0.351 OA
HETATM   20  C1  UNL     1      27.839   0.107  54.836  1.00  0.00     0.210 C 
ENDBRANCH   1  19
BRANCH   2  21
HETATM   21  O2  UNL     1      25.070  -1.760  55.922  1.00  0.00    -0.358 OA
HETATM   22  H4  UNL     1      25.752  -1.483  56.603  1.00  0.00     0.217 HD
ENDBRANCH   2  21
BRANCH   6  23
HETATM   23  O3  UNL     1      26.145   0.791  52.089  1.00  0.00    -0.357 OA
HETATM   24  H6  UNL     1      27.011   1.024  52.537  1.00  0.00     0.218 HD
ENDBRANCH   6  23
TORSDOF 3
ENDMDL
MODEL 4
REMARK VINA RESULT:      -7.3      1.623      3.880
REMARK  3 active torsions:
REMARK  status: ('A' for Active; 'I' for Inactive)
REMARK    1  A    between atoms: O1_2  and  C2_3 
REMARK    2  A    between atoms: C3_4  and  O2_5 
REMARK    3  A    between atoms: C7_9  and  O3_10 
ROOT
HETATM    1  C2  UNL     1      25.129  -0.615  54.361  1.00  0.00     0.135 A 
HETATM    2  C3  UNL     1      26.292  -0.052  53.877  1.00  0.00     0.104 A 
HETATM    3  C4  UNL     1      26.285   0.780  52.777  1.00  0.00     0.077 A 
HETATM    4  C5  UNL     1      25.104   1.066  52.131  1.00  0.00     0.091 A 
HETATM    5  C6  UNL     1      23.921   0.521  52.585  1.00  0.00     0.084 A 
HETATM    6  C7  UNL     1      23.954  -0.320  53.703  1.00  0.00     0.119 A 
HETATM    7  C8  UNL     1      22.581   0.659  52.095  1.00  0.00     0.194 C 
HETATM    8  O4  UNL     1      21.603  -0.057  52.404  1.00  0.00    -0.287 OA
HETATM    9  C9  UNL     1      21.900   1.558  51.169  1.00  0.00    -0.004 C 
HETATM   10  C10 UNL     1      21.843   2.921  51.275  1.00  0.00     0.014 C 
HETATM   11  C11 UNL     1      22.320   3.998  50.336  1.00  0.00     0.037 C 
HETATM   12  C12 UNL     1      23.197   3.402  49.484  1.00  0.00     0.071 C 
HETATM   13  C13 UNL     1      22.792   2.474  48.397  1.00  0.00     0.033 C 
HETATM   14  C14 UNL     1      21.899   1.500  48.698  1.00  0.00    -0.019 C 
HETATM   15  C15 UNL     1      21.189   1.019  49.943  1.00  0.00     0.070 C 
HETATM   16  O5  UNL     1      24.633   3.565  49.500  1.00  0.00    -0.326 OA
HETATM   17  C16 UNL     1      25.193   3.192  50.822  1.00  0.00     0.351 C 
HETATM   18  O6  UNL     1      24.847   1.853  51.035  1.00  0.00    -0.325 OA
ENDROOT
BRANCH   1  19
HETATM   19  O1  UNL     1      25.230  -1.436  55.467  1.00  0.00    -0.351 OA
HETATM   20  C1  UNL     1      25.081  -0.982  56.794  1.00  0.00     0.210 C 
ENDBRANCH   1  19
BRANCH   2  21
HETATM   21  O2  UNL     1      27.518  -0.277  54.453  1.00  0.00    -0.358 OA
HETATM   22  H4  UNL     1      28.344  -0.501  53.929  1.00  0.00     0.217 HD
ENDBRANCH   2  21
BRANCH   6  23
HETATM   23  O3  UNL     1      22.841  -0.954  54.290  1.00  0.00    -0.357 OA
HETATM   24  H6  UNL     1      21.942  -0.611  54.010  1.00  0.00     0.218 HD
ENDBRANCH   6  23
TORSDOF 3
ENDMDL
MODEL 5
REMARK VINA RESULT:      -6.9      2.492      5.317
REMARK  3 active torsions:
REMARK  status: ('A' for Active; 'I' for Inactive)
REMARK    1  A    between atoms: O1_2  and  C2_3 
REMARK    2  A    between atoms: C3_4  and  O2_5 
REMARK    3  A    between atoms: C7_9  and  O3_10 
ROOT
HETATM    1  C2  UNL     1      22.295   5.549  51.484  1.00  0.00     0.135 A 
HETATM    2  C3  UNL     1      23.625   5.494  51.850  1.00  0.00     0.104 A 
HETATM    3  C4  UNL     1      24.165   4.363  52.428  1.00  0.00     0.077 A 
HETATM    4  C5  UNL     1      23.380   3.256  52.653  1.00  0.00     0.091 A 
HETATM    5  C6  UNL     1      22.046   3.274  52.301  1.00  0.00     0.084 A 
HETATM    6  C7  UNL     1      21.521   4.433  51.716  1.00  0.00     0.119 A 
HETATM    7  C8  UNL     1      21.032   2.269  52.430  1.00  0.00     0.194 C 
HETATM    8  O4  UNL     1      19.799   2.443  52.317  1.00  0.00    -0.287 OA
HETATM    9  C9  UNL     1      21.019   0.836  52.706  1.00  0.00    -0.004 C 
HETATM   10  C10 UNL     1      21.669  -0.124  51.980  1.00  0.00     0.014 C 
HETATM   11  C11 UNL     1      22.731  -1.111  52.389  1.00  0.00     0.037 C 
HETATM   12  C12 UNL     1      23.252  -0.651  53.558  1.00  0.00     0.071 C 
HETATM   13  C13 UNL     1      22.537  -0.705  54.859  1.00  0.00     0.033 C 
HETATM   14  C14 UNL     1      21.242  -0.306  54.887  1.00  0.00    -0.019 C 
HETATM   15  C15 UNL     1      20.262   0.281  53.898  1.00  0.00     0.070 C 
HETATM   16  O5  UNL     1      24.552  -0.041  53.720  1.00  0.00    -0.326 OA
HETATM   17  C16 UNL     1      24.696   1.142  52.838  1.00  0.00     0.351 C 
HETATM   18  O6  UNL     1      23.684   2.035  53.204  1.00  0.00    -0.325 OA
ENDROOT
BRANCH   1  19
HETATM   19  O1  UNL     1      21.840   6.722  50.912  1.00  0.00    -0.351 OA
HETATM   20  C1  UNL     1      21.880   6.984  49.528  1.00  0.00     0.210 C 
ENDBRANCH   1  19
BRANCH   2  21
HETATM   21  O2  UNL     1      24.488   6.546  51.666  1.00  0.00    -0.358 OA
HETATM   22  H4  UNL     1      24.684   7.232  52.371  1.00  0.00     0.217 HD
ENDBRANCH   2  21
BRANCH   6  23
HETATM   23  O3  UNL     1      20.188   4.613  51.300  1.00  0.00    -0.357 OA
HETATM   24  H6  UNL     1      19.758   3.828  50.850  1.00  0.00     0.218 HD
ENDBRANCH   6  23
TORSDOF 3
ENDMDL
MODEL 6
REMARK VINA RESULT:      -6.8      5.649      8.313
REMARK  3 active torsions:
REMARK  status: ('A' for Active; 'I' for Inactive)
REMARK    1  A    between atoms: O1_2  and  C2_3 
REMARK    2  A    between atoms: C3_4  and  O2_5 
REMARK    3  A    between atoms: C7_9  and  O3_10 
ROOT
HETATM    1  C2  UNL     1      24.168   4.628  50.709  1.00  0.00     0.135 A 
HETATM    2  C3  UNL     1      23.723   5.755  51.370  1.00  0.00     0.104 A 
HETATM    3  C4  UNL     1      24.352   6.973  51.216  1.00  0.00     0.077 A 
HETATM    4  C5  UNL     1      25.448   7.090  50.392  1.00  0.00     0.091 A 
HETATM    5  C6  UNL     1      25.922   5.985  49.716  1.00  0.00     0.084 A 
HETATM    6  C7  UNL     1      25.267   4.760  49.888  1.00  0.00     0.119 A 
HETATM    7  C8  UNL     1      27.029   5.845  48.816  1.00  0.00     0.194 C 
HETATM    8  O4  UNL     1      27.544   4.770  48.438  1.00  0.00    -0.287 OA
HETATM    9  C9  UNL     1      27.888   6.762  48.074  1.00  0.00    -0.004 C 
HETATM   10  C10 UNL     1      27.466   7.702  47.173  1.00  0.00     0.014 C 
HETATM   11  C11 UNL     1      27.625   9.199  47.171  1.00  0.00     0.037 C 
HETATM   12  C12 UNL     1      27.947   9.552  48.445  1.00  0.00     0.071 C 
HETATM   13  C13 UNL     1      29.273   9.296  49.063  1.00  0.00     0.033 C 
HETATM   14  C14 UNL     1      29.817   8.064  48.906  1.00  0.00    -0.019 C 
HETATM   15  C15 UNL     1      29.391   6.757  48.280  1.00  0.00     0.070 C 
HETATM   16  O5  UNL     1      27.070  10.211  49.385  1.00  0.00    -0.326 OA
HETATM   17  C16 UNL     1      25.829   9.425  49.593  1.00  0.00     0.351 C 
HETATM   18  O6  UNL     1      26.228   8.177  50.082  1.00  0.00    -0.325 OA
ENDROOT
BRANCH   1  19
HETATM   19  O1  UNL     1      23.478   3.450  50.923  1.00  0.00    -0.351 OA
HETATM   20  C1  UNL     1      23.770   2.552  51.969  1.00  0.00     0.210 C 
ENDBRANCH   1  19
BRANCH   2  21
HETATM   21  O2  UNL     1      22.639   5.740  52.212  1.00  0.00    -0.358 OA
HETATM   22  H4  UNL     1      21.829   5.167  52.064  1.00  0.00     0.217 HD
ENDBRANCH   2  21
BRANCH   6  23
HETATM   23  O3  UNL     1      25.622   3.543  49.273  1.00  0.00    -0.357 OA
HETATM   24  H6  UNL     1      25.090   3.289  48.463  1.00  0.00     0.218 HD
ENDBRANCH   6  23
TORSDOF 3
ENDMDL
MODEL 7
REMARK VINA RESULT:      -6.7      2.569      4.766
REMARK  3 active torsions:
REMARK  status: ('A' for Active; 'I' for Inactive)
REMARK    1  A    between atoms: O1_2  and  C2_3 
REMARK    2  A    between atoms: C3_4  and  O2_5 
REMARK    3  A    between atoms: C7_9  and  O3_10 
ROOT
HETATM    1  C2  UNL     1      22.472  -0.200  53.676  1.00  0.00     0.135 A 
HETATM    2  C3  UNL     1      21.214   0.357  53.788  1.00  0.00     0.104 A 
HETATM    3  C4  UNL     1      20.873   1.505  53.103  1.00  0.00     0.077 A 
HETATM    4  C5  UNL     1      21.790   2.125  52.286  1.00  0.00     0.091 A 
HETATM    5  C6  UNL     1      23.058   1.597  52.149  1.00  0.00     0.084 A 
HETATM    6  C7  UNL     1      23.380   0.432  52.855  1.00  0.00     0.119 A 
HETATM    7  C8  UNL     1      24.178   2.047  51.375  1.00  0.00     0.194 C 
HETATM    8  O4  UNL     1      25.361   1.661  51.494  1.00  0.00    -0.287 OA
HETATM    9  C9  UNL     1      24.375   3.000  50.288  1.00  0.00    -0.004 C 
HETATM   10  C10 UNL     1      23.738   2.974  49.077  1.00  0.00     0.014 C 
HETATM   11  C11 UNL     1      22.846   3.992  48.417  1.00  0.00     0.037 C 
HETATM   12  C12 UNL     1      22.436   4.838  49.401  1.00  0.00     0.071 C 
HETATM   13  C13 UNL     1      23.315   5.852  50.038  1.00  0.00     0.033 C 
HETATM   14  C14 UNL     1      24.555   5.462  50.423  1.00  0.00    -0.019 C 
HETATM   15  C15 UNL     1      25.333   4.166  50.440  1.00  0.00     0.070 C 
HETATM   16  O5  UNL     1      21.112   4.882  49.978  1.00  0.00    -0.326 OA
HETATM   17  C16 UNL     1      20.734   3.562  50.537  1.00  0.00     0.351 C 
HETATM   18  O6  UNL     1      21.687   3.256  51.513  1.00  0.00    -0.325 OA
ENDROOT
BRANCH   1  19
HETATM   19  O1  UNL     1      22.726  -1.349  54.399  1.00  0.00    -0.351 OA
HETATM   20  C1  UNL     1      23.358  -1.357  55.659  1.00  0.00     0.210 C 
ENDBRANCH   1  19
BRANCH   2  21
HETATM   21  O2  UNL     1      20.231  -0.187  54.577  1.00  0.00    -0.358 OA
HETATM   22  H4  UNL     1      20.413  -0.662  55.441  1.00  0.00     0.217 HD
ENDBRANCH   2  21
BRANCH   6  23
HETATM   23  O3  UNL     1      24.623  -0.231  52.825  1.00  0.00    -0.357 OA
HETATM   24  H6  UNL     1      25.190  -0.064  52.017  1.00  0.00     0.218 HD
ENDBRANCH   6  23
TORSDOF 3
ENDMDL
MODEL 8
REMARK VINA RESULT:      -6.7      2.525      5.920
REMARK  3 active torsions:
REMARK  status: ('A' for Active; 'I' for Inactive)
REMARK    1  A    between atoms: O1_2  and  C2_3 
REMARK    2  A    between atoms: C3_4  and  O2_5 
REMARK    3  A    between atoms: C7_9  and  O3_10 
ROOT
HETATM    1  C2  UNL     1      19.671  -0.293  53.421  1.00  0.00     0.135 A 
HETATM    2  C3  UNL     1      20.820  -0.762  54.026  1.00  0.00     0.104 A 
HETATM    3  C4  UNL     1      22.058  -0.235  53.724  1.00  0.00     0.077 A 
HETATM    4  C5  UNL     1      22.175   0.780  52.802  1.00  0.00     0.091 A 
HETATM    5  C6  UNL     1      21.049   1.275  52.176  1.00  0.00     0.084 A 
HETATM    6  C7  UNL     1      19.804   0.724  52.500  1.00  0.00     0.119 A 
HETATM    7  C8  UNL     1      20.904   2.310  51.195  1.00  0.00     0.194 C 
HETATM    8  O4  UNL     1      19.891   2.531  50.497  1.00  0.00    -0.287 OA
HETATM    9  C9  UNL     1      21.755   3.377  50.677  1.00  0.00    -0.004 C 
HETATM   10  C10 UNL     1      22.335   4.368  51.420  1.00  0.00     0.014 C 
HETATM   11  C11 UNL     1      23.785   4.725  51.615  1.00  0.00     0.037 C 
HETATM   12  C12 UNL     1      24.504   3.640  51.221  1.00  0.00     0.071 C 
HETATM   13  C13 UNL     1      24.675   3.233  49.802  1.00  0.00     0.033 C 
HETATM   14  C14 UNL     1      23.574   3.214  49.012  1.00  0.00    -0.019 C 
HETATM   15  C15 UNL     1      22.094   3.453  49.200  1.00  0.00     0.070 C 
HETATM   16  O5  UNL     1      25.195   2.721  52.097  1.00  0.00    -0.326 OA
HETATM   17  C16 UNL     1      24.261   2.125  53.082  1.00  0.00     0.351 C 
HETATM   18  O6  UNL     1      23.279   1.457  52.344  1.00  0.00    -0.325 OA
ENDROOT
BRANCH   1  19
HETATM   19  O1  UNL     1      18.475  -0.880  53.784  1.00  0.00    -0.351 OA
HETATM   20  C1  UNL     1      17.891  -1.958  53.089  1.00  0.00     0.210 C 
ENDBRANCH   1  19
BRANCH   2  21
HETATM   21  O2  UNL     1      20.807  -1.770  54.958  1.00  0.00    -0.358 OA
HETATM   22  H4  UNL     1      20.768  -1.611  55.947  1.00  0.00     0.217 HD
ENDBRANCH   2  21
BRANCH   6  23
HETATM   23  O3  UNL     1      18.564   1.113  51.955  1.00  0.00    -0.357 OA
HETATM   24  H6  UNL     1      18.393   2.100  51.913  1.00  0.00     0.218 HD
ENDBRANCH   6  23
TORSDOF 3
ENDMDL
MODEL 9
REMARK VINA RESULT:      -6.6      2.352      5.965
REMARK  3 active torsions:
REMARK  status: ('A' for Active; 'I' for Inactive)
REMARK    1  A    between atoms: O1_2  and  C2_3 
REMARK    2  A    between atoms: C3_4  and  O2_5 
REMARK    3  A    between atoms: C7_9  and  O3_10 
ROOT
HETATM    1  C2  UNL     1      21.225   3.047  48.814  1.00  0.00     0.135 A 
HETATM    2  C3  UNL     1      20.472   1.993  49.289  1.00  0.00     0.104 A 
HETATM    3  C4  UNL     1      20.977   1.112  50.222  1.00  0.00     0.077 A 
HETATM    4  C5  UNL     1      22.256   1.267  50.704  1.00  0.00     0.091 A 
HETATM    5  C6  UNL     1      23.040   2.310  50.251  1.00  0.00     0.084 A 
HETATM    6  C7  UNL     1      22.505   3.190  49.304  1.00  0.00     0.119 A 
HETATM    7  C8  UNL     1      24.382   2.682  50.588  1.00  0.00     0.194 C 
HETATM    8  O4  UNL     1      25.107   3.484  49.959  1.00  0.00    -0.287 OA
HETATM    9  C9  UNL     1      25.324   2.333  51.647  1.00  0.00    -0.004 C 
HETATM   10  C10 UNL     1      25.105   2.477  52.990  1.00  0.00     0.014 C 
HETATM   11  C11 UNL     1      25.089   1.454  54.095  1.00  0.00     0.037 C 
HETATM   12  C12 UNL     1      24.951   0.242  53.494  1.00  0.00     0.071 C 
HETATM   13  C13 UNL     1      26.034  -0.431  52.731  1.00  0.00     0.033 C 
HETATM   14  C14 UNL     1      26.734   0.312  51.838  1.00  0.00    -0.019 C 
HETATM   15  C15 UNL     1      26.676   1.729  51.317  1.00  0.00     0.070 C 
HETATM   16  O5  UNL     1      23.754  -0.568  53.492  1.00  0.00    -0.326 OA
HETATM   17  C16 UNL     1      22.607   0.184  52.926  1.00  0.00     0.351 C 
HETATM   18  O6  UNL     1      22.968   0.533  51.621  1.00  0.00    -0.325 OA
ENDROOT
BRANCH   1  19
HETATM   19  O1  UNL     1      20.639   3.879  47.879  1.00  0.00    -0.351 OA
HETATM   20  C1  UNL     1      20.751   3.692  46.486  1.00  0.00     0.210 C 
ENDBRANCH   1  19
BRANCH   2  21
HETATM   21  O2  UNL     1      19.186   1.754  48.871  1.00  0.00    -0.358 OA
HETATM   22  H4  UNL     1      18.905   1.764  47.908  1.00  0.00     0.217 HD
ENDBRANCH   2  21
BRANCH   6  23
HETATM   23  O3  UNL     1      23.169   4.299  48.743  1.00  0.00    -0.357 OA
HETATM   24  H6  UNL     1      22.873   4.569  47.825  1.00  0.00     0.218 HD
ENDBRANCH   6  23
TORSDOF 3
ENDMDL
