MODEL 1
REMARK VINA RESULT:      -9.5      0.000      0.000
REMARK  6 active torsions:
REMARK  status: ('A' for Active; 'I' for Inactive)
REMARK    1  A    between atoms: C1_2  and  C2_5 
REMARK    2  A    between atoms: C6_9  and  N1_10 
REMARK    3  A    between atoms: N1_10  and  C7_11 
REMARK    4  A    between atoms: C11_18  and  C12_19 
REMARK    5  A    between atoms: C12_19  and  C13_20 
REMARK    6  A    between atoms: C13_20  and  C14_21 
ROOT
HETATM    1  C7  UNL     1      25.580  -0.193  53.622  1.00  0.00     0.160 A 
HETATM    2  N2  UNL     1      26.363  -0.444  54.702  1.00  0.00    -0.222 NA
HETATM    3  C8  UNL     1      27.454   0.334  54.953  1.00  0.00     0.237 A 
HETATM    4  N3  UNL     1      27.812   1.367  54.171  1.00  0.00    -0.222 NA
HETATM    5  C9  UNL     1      27.081   1.681  53.074  1.00  0.00     0.157 A 
HETATM    6  C10 UNL     1      25.963   0.872  52.829  1.00  0.00     0.122 A 
HETATM    7  N4  UNL     1      25.370   1.407  51.627  1.00  0.00    -0.363 N 
HETATM    8  C11 UNL     1      25.728   2.843  51.646  1.00  0.00     0.183 C 
HETATM    9  N5  UNL     1      27.142   2.677  52.024  1.00  0.00    -0.352 N 
HETATM   10  H6  UNL     1      24.825   0.809  50.960  1.00  0.00     0.162 HD
HETATM   11  H17 UNL     1      28.141   2.991  51.828  1.00  0.00     0.163 HD
ENDROOT
BRANCH   1  12
HETATM   12  N1  UNL     1      24.458  -0.988  53.356  1.00  0.00    -0.339 N 
HETATM   13  H4  UNL     1      24.825  -1.884  52.980  1.00  0.00     0.167 HD
BRANCH  12  14
HETATM   14  C6  UNL     1      23.084  -0.709  53.532  1.00  0.00     0.034 A 
HETATM   15  C5  UNL     1      22.506  -0.879  54.771  1.00  0.00     0.029 A 
HETATM   16  C4  UNL     1      21.144  -0.596  54.916  1.00  0.00     0.003 A 
HETATM   17  C3  UNL     1      20.465  -0.161  53.782  1.00  0.00     0.016 A 
HETATM   18  C2  UNL     1      21.035   0.013  52.530  1.00  0.00     0.050 A 
HETATM   19  C20 UNL     1      22.386  -0.276  52.429  1.00  0.00     0.045 A 
BRANCH  18  20
HETATM   20  C1  UNL     1      20.233   0.483  51.376  1.00  0.00     0.417 C 
HETATM   21  F1  UNL     1      19.075  -0.251  51.207  1.00  0.00    -0.166 F 
HETATM   22  F2  UNL     1      21.045   0.387  50.250  1.00  0.00    -0.166 F 
HETATM   23  F3  UNL     1      19.950   1.820  51.571  1.00  0.00    -0.166 F 
ENDBRANCH  18  20
ENDBRANCH  12  14
ENDBRANCH   1  12
BRANCH   8  24
HETATM   24  C12 UNL     1      25.551   3.353  50.263  1.00  0.00     0.051 C 
BRANCH  24  25
HETATM   25  C13 UNL     1      26.769   3.492  49.432  1.00  0.00     0.042 C 
BRANCH  25  26
HETATM   26  C14 UNL     1      27.060   4.823  48.897  1.00  0.00    -0.058 A 
HETATM   27  C15 UNL     1      26.046   5.786  48.866  1.00  0.00     0.007 A 
HETATM   28  C16 UNL     1      26.248   7.059  48.376  1.00  0.00     0.001 A 
HETATM   29  C17 UNL     1      27.528   7.335  47.908  1.00  0.00     0.000 A 
HETATM   30  C18 UNL     1      28.583   6.449  47.901  1.00  0.00     0.001 A 
HETATM   31  C19 UNL     1      28.308   5.186  48.410  1.00  0.00     0.007 A 
ENDBRANCH  25  26
ENDBRANCH  24  25
ENDBRANCH   8  24
TORSDOF 6
ENDMDL
MODEL 2
REMARK VINA RESULT:      -9.4      2.759      5.811
REMARK  6 active torsions:
REMARK  status: ('A' for Active; 'I' for Inactive)
REMARK    1  A    between atoms: C1_2  and  C2_5 
REMARK    2  A    between atoms: C6_9  and  N1_10 
REMARK    3  A    between atoms: N1_10  and  C7_11 
REMARK    4  A    between atoms: C11_18  and  C12_19 
REMARK    5  A    between atoms: C12_19  and  C13_20 
REMARK    6  A    between atoms: C13_20  and  C14_21 
ROOT
HETATM    1  C7  UNL     1      23.111   3.980  51.063  1.00  0.00     0.160 A 
HETATM    2  N2  UNL     1      22.659   4.644  49.968  1.00  0.00    -0.222 NA
HETATM    3  C8  UNL     1      23.532   5.046  49.002  1.00  0.00     0.237 A 
HETATM    4  N3  UNL     1      24.856   4.818  49.070  1.00  0.00    -0.222 NA
HETATM    5  C9  UNL     1      25.384   4.162  50.131  1.00  0.00     0.157 A 
HETATM    6  C10 UNL     1      24.474   3.755  51.116  1.00  0.00     0.122 A 
HETATM    7  N4  UNL     1      25.276   3.094  52.117  1.00  0.00    -0.363 N 
HETATM    8  C11 UNL     1      26.428   2.547  51.364  1.00  0.00     0.183 C 
HETATM    9  N5  UNL     1      26.704   3.744  50.553  1.00  0.00    -0.352 N 
HETATM   10  H6  UNL     1      25.000   3.072  53.128  1.00  0.00     0.162 HD
HETATM   11  H17 UNL     1      27.467   4.388  50.180  1.00  0.00     0.163 HD
ENDROOT
BRANCH   1  12
HETATM   12  N1  UNL     1      22.221   3.565  52.061  1.00  0.00    -0.339 N 
HETATM   13  H4  UNL     1      22.091   4.384  52.688  1.00  0.00     0.167 HD
BRANCH  12  14
HETATM   14  C6  UNL     1      21.588   2.317  52.252  1.00  0.00     0.034 A 
HETATM   15  C5  UNL     1      20.345   2.090  51.700  1.00  0.00     0.029 A 
HETATM   16  C4  UNL     1      19.742   0.845  51.906  1.00  0.00     0.003 A 
HETATM   17  C3  UNL     1      20.449  -0.082  52.664  1.00  0.00     0.016 A 
HETATM   18  C2  UNL     1      21.699   0.134  53.225  1.00  0.00     0.050 A 
HETATM   19  C20 UNL     1      22.263   1.378  52.997  1.00  0.00     0.045 A 
BRANCH  18  20
HETATM   20  C1  UNL     1      22.380  -0.916  54.019  1.00  0.00     0.417 C 
HETATM   21  F1  UNL     1      22.287  -0.690  55.378  1.00  0.00    -0.166 F 
HETATM   22  F2  UNL     1      23.711  -0.933  53.614  1.00  0.00    -0.166 F 
HETATM   23  F3  UNL     1      21.826  -2.134  53.679  1.00  0.00    -0.166 F 
ENDBRANCH  18  20
ENDBRANCH  12  14
ENDBRANCH   1  12
BRANCH   8  24
HETATM   24  C12 UNL     1      27.494   2.254  52.356  1.00  0.00     0.051 C 
BRANCH  24  25
HETATM   25  C13 UNL     1      27.176   1.276  53.422  1.00  0.00     0.042 C 
BRANCH  25  26
HETATM   26  C14 UNL     1      27.734  -0.068  53.278  1.00  0.00    -0.058 A 
HETATM   27  C15 UNL     1      26.924  -1.100  52.792  1.00  0.00     0.007 A 
HETATM   28  C16 UNL     1      27.383  -2.390  52.631  1.00  0.00     0.001 A 
HETATM   29  C17 UNL     1      28.710  -2.612  52.982  1.00  0.00     0.000 A 
HETATM   30  C18 UNL     1      29.577  -1.657  53.467  1.00  0.00     0.001 A 
HETATM   31  C19 UNL     1      29.047  -0.381  53.603  1.00  0.00     0.007 A 
ENDBRANCH  25  26
ENDBRANCH  24  25
ENDBRANCH   8  24
TORSDOF 6
ENDMDL
MODEL 3
REMARK VINA RESULT:      -9.0      2.916      6.367
REMARK  6 active torsions:
REMARK  status: ('A' for Active; 'I' for Inactive)
REMARK    1  A    between atoms: C1_2  and  C2_5 
REMARK    2  A    between atoms: C6_9  and  N1_10 
REMARK    3  A    between atoms: N1_10  and  C7_11 
REMARK    4  A    between atoms: C11_18  and  C12_19 
REMARK    5  A    between atoms: C12_19  and  C13_20 
REMARK    6  A    between atoms: C13_20  and  C14_21 
ROOT
HETATM    1  C7  UNL     1      26.403   1.818  53.139  1.00  0.00     0.160 A 
HETATM    2  N2  UNL     1      27.712   1.790  53.500  1.00  0.00    -0.222 NA
HETATM    3  C8  UNL     1      28.164   0.838  54.364  1.00  0.00     0.237 A 
HETATM    4  N3  UNL     1      27.367  -0.104  54.898  1.00  0.00    -0.222 NA
HETATM    5  C9  UNL     1      26.049  -0.143  54.588  1.00  0.00     0.157 A 
HETATM    6  C10 UNL     1      25.599   0.843  53.698  1.00  0.00     0.122 A 
HETATM    7  N4  UNL     1      24.187   0.585  53.537  1.00  0.00    -0.363 N 
HETATM    8  C11 UNL     1      24.052  -0.873  53.752  1.00  0.00     0.183 C 
HETATM    9  N5  UNL     1      24.912  -0.966  54.944  1.00  0.00    -0.352 N 
HETATM   10  H6  UNL     1      23.504   1.348  53.315  1.00  0.00     0.162 HD
HETATM   11  H17 UNL     1      25.010  -1.384  55.919  1.00  0.00     0.163 HD
ENDROOT
BRANCH   1  12
HETATM   12  N1  UNL     1      25.930   2.794  52.252  1.00  0.00    -0.339 N 
HETATM   13  H4  UNL     1      26.773   3.267  51.872  1.00  0.00     0.167 HD
BRANCH  12  14
HETATM   14  C6  UNL     1      24.606   3.130  51.895  1.00  0.00     0.034 A 
HETATM   15  C5  UNL     1      23.865   3.953  52.716  1.00  0.00     0.029 A 
HETATM   16  C4  UNL     1      22.556   4.269  52.337  1.00  0.00     0.003 A 
HETATM   17  C3  UNL     1      22.093   3.720  51.146  1.00  0.00     0.016 A 
HETATM   18  C2  UNL     1      22.828   2.891  50.312  1.00  0.00     0.050 A 
HETATM   19  C20 UNL     1      24.119   2.603  50.721  1.00  0.00     0.045 A 
BRANCH  18  20
HETATM   20  C1  UNL     1      22.251   2.351  49.058  1.00  0.00     0.417 C 
HETATM   21  F1  UNL     1      22.997   2.693  47.947  1.00  0.00    -0.166 F 
HETATM   22  F2  UNL     1      20.958   2.854  48.956  1.00  0.00    -0.166 F 
HETATM   23  F3  UNL     1      22.154   0.980  49.189  1.00  0.00    -0.166 F 
ENDBRANCH  18  20
ENDBRANCH  12  14
ENDBRANCH   1  12
BRANCH   8  24
HETATM   24  C12 UNL     1      22.620  -1.137  54.044  1.00  0.00     0.051 C 
BRANCH  24  25
HETATM   25  C13 UNL     1      21.701   0.025  54.025  1.00  0.00     0.042 C 
BRANCH  25  26
HETATM   26  C14 UNL     1      20.507  -0.085  53.189  1.00  0.00    -0.058 A 
HETATM   27  C15 UNL     1      20.484   0.541  51.937  1.00  0.00     0.007 A 
HETATM   28  C16 UNL     1      19.393   0.479  51.097  1.00  0.00     0.001 A 
HETATM   29  C17 UNL     1      18.304  -0.248  51.566  1.00  0.00     0.000 A 
HETATM   30  C18 UNL     1      18.240  -0.895  52.781  1.00  0.00     0.001 A 
HETATM   31  C19 UNL     1      19.375  -0.790  53.576  1.00  0.00     0.007 A 
ENDBRANCH  25  26
ENDBRANCH  24  25
ENDBRANCH   8  24
TORSDOF 6
ENDMDL
MODEL 4
REMARK VINA RESULT:      -9.0      2.065      6.262
REMARK  6 active torsions:
REMARK  status: ('A' for Active; 'I' for Inactive)
REMARK    1  A    between atoms: C1_2  and  C2_5 
REMARK    2  A    between atoms: C6_9  and  N1_10 
REMARK    3  A    between atoms: N1_10  and  C7_11 
REMARK    4  A    between atoms: C11_18  and  C12_19 
REMARK    5  A    between atoms: C12_19  and  C13_20 
REMARK    6  A    between atoms: C13_20  and  C14_21 
ROOT
HETATM    1  C7  UNL     1      27.237   1.307  52.427  1.00  0.00     0.160 A 
HETATM    2  N2  UNL     1      28.524   1.531  52.798  1.00  0.00    -0.222 NA
HETATM    3  C8  UNL     1      28.949   1.181  54.044  1.00  0.00     0.237 A 
HETATM    4  N3  UNL     1      28.146   0.608  54.958  1.00  0.00    -0.222 NA
HETATM    5  C9  UNL     1      26.849   0.352  54.664  1.00  0.00     0.157 A 
HETATM    6  C10 UNL     1      26.426   0.718  53.379  1.00  0.00     0.122 A 
HETATM    7  N4  UNL     1      25.032   0.346  53.322  1.00  0.00    -0.363 N 
HETATM    8  C11 UNL     1      24.919  -0.800  54.252  1.00  0.00     0.183 C 
HETATM    9  N5  UNL     1      25.713  -0.227  55.352  1.00  0.00    -0.352 N 
HETATM   10  H6  UNL     1      24.344   0.854  52.716  1.00  0.00     0.162 HD
HETATM   11  H17 UNL     1      25.766  -0.080  56.406  1.00  0.00     0.163 HD
ENDROOT
BRANCH   1  12
HETATM   12  N1  UNL     1      26.792   1.666  51.149  1.00  0.00    -0.339 N 
HETATM   13  H4  UNL     1      27.002   0.855  50.535  1.00  0.00     0.167 HD
BRANCH  12  14
HETATM   14  C6  UNL     1      26.178   2.857  50.702  1.00  0.00     0.034 A 
HETATM   15  C5  UNL     1      26.792   3.619  49.731  1.00  0.00     0.029 A 
HETATM   16  C4  UNL     1      26.162   4.794  49.308  1.00  0.00     0.003 A 
HETATM   17  C3  UNL     1      24.948   5.111  49.909  1.00  0.00     0.016 A 
HETATM   18  C2  UNL     1      24.321   4.354  50.887  1.00  0.00     0.050 A 
HETATM   19  C20 UNL     1      24.976   3.198  51.277  1.00  0.00     0.045 A 
BRANCH  18  20
HETATM   20  C1  UNL     1      23.024   4.770  51.471  1.00  0.00     0.417 C 
HETATM   21  F1  UNL     1      22.742   4.108  52.649  1.00  0.00    -0.166 F 
HETATM   22  F2  UNL     1      22.046   4.512  50.515  1.00  0.00    -0.166 F 
HETATM   23  F3  UNL     1      23.064   6.137  51.666  1.00  0.00    -0.166 F 
ENDBRANCH  18  20
ENDBRANCH  12  14
ENDBRANCH   1  12
BRANCH   8  24
HETATM   24  C12 UNL     1      23.479  -0.946  54.586  1.00  0.00     0.051 C 
BRANCH  24  25
HETATM   25  C13 UNL     1      22.556  -1.266  53.473  1.00  0.00     0.042 C 
BRANCH  25  26
HETATM   26  C14 UNL     1      21.808  -0.152  52.890  1.00  0.00    -0.058 A 
HETATM   27  C15 UNL     1      21.920   0.107  51.520  1.00  0.00     0.007 A 
HETATM   28  C16 UNL     1      21.244   1.139  50.903  1.00  0.00     0.001 A 
HETATM   29  C17 UNL     1      20.437   1.916  51.727  1.00  0.00     0.000 A 
HETATM   30  C18 UNL     1      20.268   1.732  53.082  1.00  0.00     0.001 A 
HETATM   31  C19 UNL     1      20.978   0.674  53.636  1.00  0.00     0.007 A 
ENDBRANCH  25  26
ENDBRANCH  24  25
ENDBRANCH   8  24
TORSDOF 6
ENDMDL
MODEL 5
REMARK VINA RESULT:      -9.0      4.035      5.615
REMARK  6 active torsions:
REMARK  status: ('A' for Active; 'I' for Inactive)
REMARK    1  A    between atoms: C1_2  and  C2_5 
REMARK    2  A    between atoms: C6_9  and  N1_10 
REMARK    3  A    between atoms: N1_10  and  C7_11 
REMARK    4  A    between atoms: C11_18  and  C12_19 
REMARK    5  A    between atoms: C12_19  and  C13_20 
REMARK    6  A    between atoms: C13_20  and  C14_21 
ROOT
HETATM    1  C7  UNL     1      23.827   3.341  52.244  1.00  0.00     0.160 A 
HETATM    2  N2  UNL     1      22.473   3.429  52.242  1.00  0.00    -0.222 NA
HETATM    3  C8  UNL     1      21.827   4.042  51.211  1.00  0.00     0.237 A 
HETATM    4  N3  UNL     1      22.471   4.583  50.162  1.00  0.00    -0.222 NA
HETATM    5  C9  UNL     1      23.823   4.536  50.090  1.00  0.00     0.157 A 
HETATM    6  C10 UNL     1      24.473   3.903  51.158  1.00  0.00     0.122 A 
HETATM    7  N4  UNL     1      25.879   3.988  50.844  1.00  0.00    -0.363 N 
HETATM    8  C11 UNL     1      25.926   4.015  49.364  1.00  0.00     0.183 C 
HETATM    9  N5  UNL     1      24.839   4.988  49.162  1.00  0.00    -0.352 N 
HETATM   10  H6  UNL     1      26.616   4.017  51.589  1.00  0.00     0.162 HD
HETATM   11  H17 UNL     1      24.532   5.855  48.624  1.00  0.00     0.163 HD
ENDROOT
BRANCH   1  12
HETATM   12  N1  UNL     1      24.499   2.714  53.301  1.00  0.00    -0.339 N 
HETATM   13  H4  UNL     1      24.270   3.264  54.152  1.00  0.00     0.167 HD
BRANCH  12  14
HETATM   14  C6  UNL     1      25.333   1.574  53.298  1.00  0.00     0.034 A 
HETATM   15  C5  UNL     1      24.827   0.360  52.884  1.00  0.00     0.029 A 
HETATM   16  C4  UNL     1      25.675  -0.753  52.893  1.00  0.00     0.003 A 
HETATM   17  C3  UNL     1      26.981  -0.549  53.326  1.00  0.00     0.016 A 
HETATM   18  C2  UNL     1      27.501   0.666  53.745  1.00  0.00     0.050 A 
HETATM   19  C20 UNL     1      26.631   1.743  53.721  1.00  0.00     0.045 A 
BRANCH  18  20
HETATM   20  C1  UNL     1      28.909   0.791  54.191  1.00  0.00     0.417 C 
HETATM   21  F1  UNL     1      29.276   2.103  54.411  1.00  0.00    -0.166 F 
HETATM   22  F2  UNL     1      29.700   0.218  53.200  1.00  0.00    -0.166 F 
HETATM   23  F3  UNL     1      29.062   0.033  55.335  1.00  0.00    -0.166 F 
ENDBRANCH  18  20
ENDBRANCH  12  14
ENDBRANCH   1  12
BRANCH   8  24
HETATM   24  C12 UNL     1      27.260   4.543  48.983  1.00  0.00     0.051 C 
BRANCH  24  25
HETATM   25  C13 UNL     1      27.322   5.946  48.511  1.00  0.00     0.042 C 
BRANCH  25  26
HETATM   26  C14 UNL     1      28.571   6.382  47.885  1.00  0.00    -0.058 A 
HETATM   27  C15 UNL     1      29.740   5.643  48.099  1.00  0.00     0.007 A 
HETATM   28  C16 UNL     1      30.951   5.995  47.542  1.00  0.00     0.001 A 
HETATM   29  C17 UNL     1      30.947   7.137  46.749  1.00  0.00     0.000 A 
HETATM   30  C18 UNL     1      29.846   7.922  46.485  1.00  0.00     0.001 A 
HETATM   31  C19 UNL     1      28.660   7.508  47.078  1.00  0.00     0.007 A 
ENDBRANCH  25  26
ENDBRANCH  24  25
ENDBRANCH   8  24
TORSDOF 6
ENDMDL
MODEL 6
REMARK VINA RESULT:      -9.0      3.507      7.538
REMARK  6 active torsions:
REMARK  status: ('A' for Active; 'I' for Inactive)
REMARK    1  A    between atoms: C1_2  and  C2_5 
REMARK    2  A    between atoms: C6_9  and  N1_10 
REMARK    3  A    between atoms: N1_10  and  C7_11 
REMARK    4  A    between atoms: C11_18  and  C12_19 
REMARK    5  A    between atoms: C12_19  and  C13_20 
REMARK    6  A    between atoms: C13_20  and  C14_21 
ROOT
HETATM    1  C7  UNL     1      26.898   2.050  51.792  1.00  0.00     0.160 A 
HETATM    2  N2  UNL     1      28.056   2.507  52.332  1.00  0.00    -0.222 NA
HETATM    3  C8  UNL     1      28.365   2.226  53.630  1.00  0.00     0.237 A 
HETATM    4  N3  UNL     1      27.568   1.499  54.432  1.00  0.00    -0.222 NA
HETATM    5  C9  UNL     1      26.394   1.007  53.967  1.00  0.00     0.157 A 
HETATM    6  C10 UNL     1      26.090   1.305  52.631  1.00  0.00     0.122 A 
HETATM    7  N4  UNL     1      24.812   0.678  52.389  1.00  0.00    -0.363 N 
HETATM    8  C11 UNL     1      24.791  -0.482  53.309  1.00  0.00     0.183 C 
HETATM    9  N5  UNL     1      25.305   0.216  54.500  1.00  0.00    -0.352 N 
HETATM   10  H6  UNL     1      24.130   1.055  51.688  1.00  0.00     0.162 HD
HETATM   11  H17 UNL     1      25.185   0.355  55.549  1.00  0.00     0.163 HD
ENDROOT
BRANCH   1  12
HETATM   12  N1  UNL     1      26.571   2.336  50.460  1.00  0.00    -0.339 N 
HETATM   13  H4  UNL     1      26.811   1.482  49.918  1.00  0.00     0.167 HD
BRANCH  12  14
HETATM   14  C6  UNL     1      26.028   3.508  49.890  1.00  0.00     0.034 A 
HETATM   15  C5  UNL     1      24.661   3.676  49.847  1.00  0.00     0.029 A 
HETATM   16  C4  UNL     1      24.152   4.847  49.275  1.00  0.00     0.003 A 
HETATM   17  C3  UNL     1      25.075   5.764  48.784  1.00  0.00     0.016 A 
HETATM   18  C2  UNL     1      26.452   5.606  48.821  1.00  0.00     0.050 A 
HETATM   19  C20 UNL     1      26.917   4.435  49.396  1.00  0.00     0.045 A 
BRANCH  18  20
HETATM   20  C1  UNL     1      27.362   6.640  48.272  1.00  0.00     0.417 C 
HETATM   21  F1  UNL     1      27.733   7.570  49.223  1.00  0.00    -0.166 F 
HETATM   22  F2  UNL     1      26.692   7.253  47.219  1.00  0.00    -0.166 F 
HETATM   23  F3  UNL     1      28.466   5.999  47.746  1.00  0.00    -0.166 F 
ENDBRANCH  18  20
ENDBRANCH  12  14
ENDBRANCH   1  12
BRANCH   8  24
HETATM   24  C12 UNL     1      23.373  -0.901  53.445  1.00  0.00     0.051 C 
BRANCH  24  25
HETATM   25  C13 UNL     1      22.373   0.166  53.680  1.00  0.00     0.042 C 
BRANCH  25  26
HETATM   26  C14 UNL     1      21.200   0.180  52.806  1.00  0.00    -0.058 A 
HETATM   27  C15 UNL     1      19.980  -0.309  53.285  1.00  0.00     0.007 A 
HETATM   28  C16 UNL     1      18.834  -0.326  52.518  1.00  0.00     0.001 A 
HETATM   29  C17 UNL     1      18.960   0.175  51.227  1.00  0.00     0.000 A 
HETATM   30  C18 UNL     1      20.119   0.675  50.674  1.00  0.00     0.001 A 
HETATM   31  C19 UNL     1      21.233   0.661  51.504  1.00  0.00     0.007 A 
ENDBRANCH  25  26
ENDBRANCH  24  25
ENDBRANCH   8  24
TORSDOF 6
ENDMDL
MODEL 7
REMARK VINA RESULT:      -9.0      1.710      2.642
REMARK  6 active torsions:
REMARK  status: ('A' for Active; 'I' for Inactive)
REMARK    1  A    between atoms: C1_2  and  C2_5 
REMARK    2  A    between atoms: C6_9  and  N1_10 
REMARK    3  A    between atoms: N1_10  and  C7_11 
REMARK    4  A    between atoms: C11_18  and  C12_19 
REMARK    5  A    between atoms: C12_19  and  C13_20 
REMARK    6  A    between atoms: C13_20  and  C14_21 
ROOT
HETATM    1  C7  UNL     1      25.941  -0.076  53.661  1.00  0.00     0.160 A 
HETATM    2  N2  UNL     1      26.659  -0.358  54.778  1.00  0.00    -0.222 NA
HETATM    3  C8  UNL     1      27.797   0.339  55.055  1.00  0.00     0.237 A 
HETATM    4  N3  UNL     1      28.267   1.318  54.263  1.00  0.00    -0.222 NA
HETATM    5  C9  UNL     1      27.607   1.658  53.130  1.00  0.00     0.157 A 
HETATM    6  C10 UNL     1      26.438   0.933  52.859  1.00  0.00     0.122 A 
HETATM    7  N4  UNL     1      25.937   1.480  51.620  1.00  0.00    -0.363 N 
HETATM    8  C11 UNL     1      26.408   2.883  51.619  1.00  0.00     0.183 C 
HETATM    9  N5  UNL     1      27.788   2.617  52.059  1.00  0.00    -0.352 N 
HETATM   10  H6  UNL     1      25.373   0.908  50.946  1.00  0.00     0.162 HD
HETATM   11  H17 UNL     1      28.815   2.846  51.897  1.00  0.00     0.163 HD
ENDROOT
BRANCH   1  12
HETATM   12  N1  UNL     1      24.770  -0.788  53.369  1.00  0.00    -0.339 N 
HETATM   13  H4  UNL     1      25.079  -1.676  52.926  1.00  0.00     0.167 HD
BRANCH  12  14
HETATM   14  C6  UNL     1      23.418  -0.445  53.593  1.00  0.00     0.034 A 
HETATM   15  C5  UNL     1      22.710  -1.080  54.591  1.00  0.00     0.029 A 
HETATM   16  C4  UNL     1      21.373  -0.721  54.790  1.00  0.00     0.003 A 
HETATM   17  C3  UNL     1      20.851   0.261  53.954  1.00  0.00     0.016 A 
HETATM   18  C2  UNL     1      21.553   0.906  52.947  1.00  0.00     0.050 A 
HETATM   19  C20 UNL     1      22.873   0.523  52.782  1.00  0.00     0.045 A 
BRANCH  18  20
HETATM   20  C1  UNL     1      20.913   1.944  52.103  1.00  0.00     0.417 C 
HETATM   21  F1  UNL     1      20.434   1.432  50.914  1.00  0.00    -0.166 F 
HETATM   22  F2  UNL     1      21.873   2.922  51.867  1.00  0.00    -0.166 F 
HETATM   23  F3  UNL     1      19.899   2.524  52.839  1.00  0.00    -0.166 F 
ENDBRANCH  18  20
ENDBRANCH  12  14
ENDBRANCH   1  12
BRANCH   8  24
HETATM   24  C12 UNL     1      26.326   3.366  50.217  1.00  0.00     0.051 C 
BRANCH  24  25
HETATM   25  C13 UNL     1      25.409   4.498  49.944  1.00  0.00     0.042 C 
BRANCH  25  26
HETATM   26  C14 UNL     1      24.195   4.200  49.185  1.00  0.00    -0.058 A 
HETATM   27  C15 UNL     1      23.676   2.901  49.202  1.00  0.00     0.007 A 
HETATM   28  C16 UNL     1      22.536   2.549  48.510  1.00  0.00     0.001 A 
HETATM   29  C17 UNL     1      21.924   3.568  47.788  1.00  0.00     0.000 A 
HETATM   30  C18 UNL     1      22.365   4.871  47.716  1.00  0.00     0.001 A 
HETATM   31  C19 UNL     1      23.518   5.154  48.437  1.00  0.00     0.007 A 
ENDBRANCH  25  26
ENDBRANCH  24  25
ENDBRANCH   8  24
TORSDOF 6
ENDMDL
MODEL 8
REMARK VINA RESULT:      -8.9      2.830      4.542
REMARK  6 active torsions:
REMARK  status: ('A' for Active; 'I' for Inactive)
REMARK    1  A    between atoms: C1_2  and  C2_5 
REMARK    2  A    between atoms: C6_9  and  N1_10 
REMARK    3  A    between atoms: N1_10  and  C7_11 
REMARK    4  A    between atoms: C11_18  and  C12_19 
REMARK    5  A    between atoms: C12_19  and  C13_20 
REMARK    6  A    between atoms: C13_20  and  C14_21 
ROOT
HETATM    1  C7  UNL     1      24.010   3.444  51.123  1.00  0.00     0.160 A 
HETATM    2  N2  UNL     1      22.983   4.098  51.722  1.00  0.00    -0.222 NA
HETATM    3  C8  UNL     1      22.970   5.460  51.767  1.00  0.00     0.237 A 
HETATM    4  N3  UNL     1      23.945   6.219  51.237  1.00  0.00    -0.222 NA
HETATM    5  C9  UNL     1      25.004   5.641  50.621  1.00  0.00     0.157 A 
HETATM    6  C10 UNL     1      25.003   4.240  50.584  1.00  0.00     0.122 A 
HETATM    7  N4  UNL     1      26.217   3.884  49.888  1.00  0.00    -0.363 N 
HETATM    8  C11 UNL     1      26.472   5.027  48.982  1.00  0.00     0.183 C 
HETATM    9  N5  UNL     1      26.207   6.098  49.957  1.00  0.00    -0.352 N 
HETATM   10  H6  UNL     1      26.719   2.982  50.070  1.00  0.00     0.162 HD
HETATM   11  H17 UNL     1      26.546   7.032  50.341  1.00  0.00     0.163 HD
ENDROOT
BRANCH   1  12
HETATM   12  N1  UNL     1      24.032   2.044  51.073  1.00  0.00    -0.339 N 
HETATM   13  H4  UNL     1      23.732   1.788  50.112  1.00  0.00     0.167 HD
BRANCH  12  14
HETATM   14  C6  UNL     1      24.374   1.105  52.072  1.00  0.00     0.034 A 
HETATM   15  C5  UNL     1      25.699   0.793  52.289  1.00  0.00     0.029 A 
HETATM   16  C4  UNL     1      26.008  -0.141  53.283  1.00  0.00     0.003 A 
HETATM   17  C3  UNL     1      24.941  -0.694  53.985  1.00  0.00     0.016 A 
HETATM   18  C2  UNL     1      23.606  -0.388  53.775  1.00  0.00     0.050 A 
HETATM   19  C20 UNL     1      23.341   0.541  52.783  1.00  0.00     0.045 A 
BRANCH  18  20
HETATM   20  C1  UNL     1      22.533  -1.028  54.574  1.00  0.00     0.417 C 
HETATM   21  F1  UNL     1      23.024  -1.674  55.691  1.00  0.00    -0.166 F 
HETATM   22  F2  UNL     1      21.881  -1.925  53.734  1.00  0.00    -0.166 F 
HETATM   23  F3  UNL     1      21.623  -0.050  54.925  1.00  0.00    -0.166 F 
ENDBRANCH  18  20
ENDBRANCH  12  14
ENDBRANCH   1  12
BRANCH   8  24
HETATM   24  C12 UNL     1      27.899   4.947  48.577  1.00  0.00     0.051 C 
BRANCH  24  25
HETATM   25  C13 UNL     1      28.540   6.199  48.113  1.00  0.00     0.042 C 
BRANCH  25  26
HETATM   26  C14 UNL     1      29.995   6.286  48.238  1.00  0.00    -0.058 A 
HETATM   27  C15 UNL     1      30.571   7.457  48.743  1.00  0.00     0.007 A 
HETATM   28  C16 UNL     1      31.934   7.609  48.889  1.00  0.00     0.001 A 
HETATM   29  C17 UNL     1      32.712   6.524  48.502  1.00  0.00     0.000 A 
HETATM   30  C18 UNL     1      32.230   5.336  47.996  1.00  0.00     0.001 A 
HETATM   31  C19 UNL     1      30.849   5.253  47.877  1.00  0.00     0.007 A 
ENDBRANCH  25  26
ENDBRANCH  24  25
ENDBRANCH   8  24
TORSDOF 6
ENDMDL
MODEL 9
REMARK VINA RESULT:      -8.9      4.014      7.699
REMARK  6 active torsions:
REMARK  status: ('A' for Active; 'I' for Inactive)
REMARK    1  A    between atoms: C1_2  and  C2_5 
REMARK    2  A    between atoms: C6_9  and  N1_10 
REMARK    3  A    between atoms: N1_10  and  C7_11 
REMARK    4  A    between atoms: C11_18  and  C12_19 
REMARK    5  A    between atoms: C12_19  and  C13_20 
REMARK    6  A    between atoms: C13_20  and  C14_21 
ROOT
HETATM    1  C7  UNL     1      24.822   3.740  51.130  1.00  0.00     0.160 A 
HETATM    2  N2  UNL     1      25.411   4.357  50.075  1.00  0.00    -0.222 NA
HETATM    3  C8  UNL     1      24.655   4.806  49.034  1.00  0.00     0.237 A 
HETATM    4  N3  UNL     1      23.318   4.671  48.989  1.00  0.00    -0.222 NA
HETATM    5  C9  UNL     1      22.656   4.066  50.004  1.00  0.00     0.157 A 
HETATM    6  C10 UNL     1      23.447   3.609  51.066  1.00  0.00     0.122 A 
HETATM    7  N4  UNL     1      22.518   3.015  51.997  1.00  0.00    -0.363 N 
HETATM    8  C11 UNL     1      21.255   3.757  51.782  1.00  0.00     0.183 C 
HETATM    9  N5  UNL     1      21.278   3.741  50.310  1.00  0.00    -0.352 N 
HETATM   10  H6  UNL     1      22.794   2.232  52.637  1.00  0.00     0.162 HD
HETATM   11  H17 UNL     1      20.699   3.585  49.430  1.00  0.00     0.163 HD
ENDROOT
BRANCH   1  12
HETATM   12  N1  UNL     1      25.592   3.273  52.203  1.00  0.00    -0.339 N 
HETATM   13  H4  UNL     1      25.668   4.069  52.868  1.00  0.00     0.167 HD
BRANCH  12  14
HETATM   14  C6  UNL     1      26.181   2.007  52.416  1.00  0.00     0.034 A 
HETATM   15  C5  UNL     1      25.552   0.874  51.947  1.00  0.00     0.029 A 
HETATM   16  C4  UNL     1      26.158  -0.366  52.173  1.00  0.00     0.003 A 
HETATM   17  C3  UNL     1      27.364  -0.363  52.866  1.00  0.00     0.016 A 
HETATM   18  C2  UNL     1      28.006   0.769  53.343  1.00  0.00     0.050 A 
HETATM   19  C20 UNL     1      27.376   1.977  53.098  1.00  0.00     0.045 A 
BRANCH  18  20
HETATM   20  C1  UNL     1      29.294   0.676  54.072  1.00  0.00     0.417 C 
HETATM   21  F1  UNL     1      30.302   0.148  53.291  1.00  0.00    -0.166 F 
HETATM   22  F2  UNL     1      29.071  -0.119  55.191  1.00  0.00    -0.166 F 
HETATM   23  F3  UNL     1      29.622   1.941  54.519  1.00  0.00    -0.166 F 
ENDBRANCH  18  20
ENDBRANCH  12  14
ENDBRANCH   1  12
BRANCH   8  24
HETATM   24  C12 UNL     1      20.164   2.932  52.358  1.00  0.00     0.051 C 
BRANCH  24  25
HETATM   25  C13 UNL     1      20.118   1.504  51.967  1.00  0.00     0.042 C 
BRANCH  25  26
HETATM   26  C14 UNL     1      20.880   0.565  52.791  1.00  0.00    -0.058 A 
HETATM   27  C15 UNL     1      20.628   0.496  54.165  1.00  0.00     0.007 A 
HETATM   28  C16 UNL     1      21.307  -0.365  55.001  1.00  0.00     0.001 A 
HETATM   29  C17 UNL     1      22.268  -1.168  54.397  1.00  0.00     0.000 A 
HETATM   30  C18 UNL     1      22.581  -1.166  53.055  1.00  0.00     0.001 A 
HETATM   31  C19 UNL     1      21.857  -0.275  52.273  1.00  0.00     0.007 A 
ENDBRANCH  25  26
ENDBRANCH  24  25
ENDBRANCH   8  24
TORSDOF 6
ENDMDL
