MODEL 1
REMARK VINA RESULT:      -8.5      0.000      0.000
REMARK  3 active torsions:
REMARK  status: ('A' for Active; 'I' for Inactive)
REMARK    1  A    between atoms: N1_1  and  C1_2 
REMARK    2  A    between atoms: C4_7  and  N3_8 
REMARK    3  A    between atoms: N3_8  and  C5_9 
ROOT
HETATM    1  C5  UNL     1      24.789   0.597  53.429  1.00  0.00     0.036 A 
HETATM    2  C6  UNL     1      24.623   1.206  52.205  1.00  0.00     0.032 A 
HETATM    3  C7  UNL     1      23.421   1.276  51.526  1.00  0.00     0.041 A 
HETATM    4  C8  UNL     1      22.294   0.696  52.101  1.00  0.00     0.102 A 
HETATM    5  C9  UNL     1      22.418   0.085  53.303  1.00  0.00     0.071 A 
HETATM    6  C10 UNL     1      23.620   0.038  53.942  1.00  0.00     0.062 A 
HETATM    7  N4  UNL     1      21.223  -0.510  53.875  1.00  0.00    -0.317 N 
HETATM    8  C11 UNL     1      20.027  -0.393  53.107  1.00  0.00     0.325 C 
HETATM    9  O1  UNL     1      19.066  -1.149  53.416  1.00  0.00    -0.263 OA
HETATM   10  C12 UNL     1      19.845   0.553  51.979  1.00  0.00     0.443 C 
HETATM   11  F2  UNL     1      19.024  -0.082  51.059  1.00  0.00    -0.165 F 
HETATM   12  F3  UNL     1      19.308   1.749  52.384  1.00  0.00    -0.165 F 
HETATM   13  O2  UNL     1      21.099   0.783  51.398  1.00  0.00    -0.274 OA
HETATM   14  H8  UNL     1      21.255  -0.995  54.792  1.00  0.00     0.169 HD
ENDROOT
BRANCH   1  15
HETATM   15  N3  UNL     1      26.014   0.572  54.085  1.00  0.00    -0.338 N 
HETATM   16  H4  UNL     1      25.892   1.105  55.005  1.00  0.00     0.167 HD
BRANCH  15  17
HETATM   17  C4  UNL     1      27.302   0.050  53.850  1.00  0.00     0.187 A 
HETATM   18  C3  UNL     1      28.491   0.726  53.797  1.00  0.00     0.180 A 
HETATM   19  C2  UNL     1      29.727   0.181  53.531  1.00  0.00     0.182 A 
HETATM   20  F1  UNL     1      28.477   2.055  54.045  1.00  0.00    -0.200 F 
HETATM   21  N2  UNL     1      29.757  -1.145  53.307  1.00  0.00    -0.072 NA
HETATM   22  C1  UNL     1      28.619  -1.850  53.351  1.00  0.00     0.722 A 
HETATM   23  N5  UNL     1      27.440  -1.265  53.615  1.00  0.00    -0.042 NA
BRANCH  22  24
HETATM   24  N1  UNL     1      28.621  -3.258  53.107  1.00  0.00    -0.231 N 
HETATM   25  H1  UNL     1      29.105  -3.663  52.262  1.00  0.00     0.174 HD
HETATM   26  H2  UNL     1      28.147  -3.942  53.748  1.00  0.00     0.174 HD
ENDBRANCH  22  24
ENDBRANCH  15  17
ENDBRANCH   1  15
TORSDOF 3
ENDMDL
MODEL 2
REMARK VINA RESULT:      -8.4      2.342      3.135
REMARK  3 active torsions:
REMARK  status: ('A' for Active; 'I' for Inactive)
REMARK    1  A    between atoms: N1_1  and  C1_2 
REMARK    2  A    between atoms: C4_7  and  N3_8 
REMARK    3  A    between atoms: N3_8  and  C5_9 
ROOT
HETATM    1  C5  UNL     1      25.422   1.288  53.818  1.00  0.00     0.036 A 
HETATM    2  C6  UNL     1      24.405   0.420  53.486  1.00  0.00     0.032 A 
HETATM    3  C7  UNL     1      23.245   0.792  52.833  1.00  0.00     0.041 A 
HETATM    4  C8  UNL     1      23.075   2.128  52.481  1.00  0.00     0.102 A 
HETATM    5  C9  UNL     1      24.052   3.013  52.793  1.00  0.00     0.071 A 
HETATM    6  C10 UNL     1      25.182   2.607  53.436  1.00  0.00     0.062 A 
HETATM    7  N4  UNL     1      23.842   4.398  52.411  1.00  0.00    -0.317 N 
HETATM    8  C11 UNL     1      22.618   4.694  51.744  1.00  0.00     0.325 C 
HETATM    9  O1  UNL     1      22.273   5.905  51.680  1.00  0.00    -0.263 OA
HETATM   10  C12 UNL     1      21.734   3.676  51.124  1.00  0.00     0.443 C 
HETATM   11  F2  UNL     1      20.433   4.126  51.293  1.00  0.00    -0.165 F 
HETATM   12  F3  UNL     1      22.024   3.471  49.799  1.00  0.00    -0.165 F 
HETATM   13  O2  UNL     1      21.900   2.473  51.824  1.00  0.00    -0.274 OA
HETATM   14  H8  UNL     1      24.554   5.123  52.625  1.00  0.00     0.169 HD
ENDROOT
BRANCH   1  15
HETATM   15  N3  UNL     1      26.582   0.863  54.454  1.00  0.00    -0.338 N 
HETATM   16  H4  UNL     1      26.506   1.155  55.481  1.00  0.00     0.167 HD
BRANCH  15  17
HETATM   17  C4  UNL     1      27.765   0.185  54.100  1.00  0.00     0.187 A 
HETATM   18  C3  UNL     1      29.032   0.693  53.999  1.00  0.00     0.180 A 
HETATM   19  C2  UNL     1      30.159   0.000  53.617  1.00  0.00     0.182 A 
HETATM   20  F1  UNL     1      29.222   1.993  54.316  1.00  0.00    -0.200 F 
HETATM   21  N2  UNL     1      29.987  -1.300  53.321  1.00  0.00    -0.072 NA
HETATM   22  C1  UNL     1      28.766  -1.844  53.409  1.00  0.00     0.722 A 
HETATM   23  N5  UNL     1      27.701  -1.120  53.787  1.00  0.00    -0.042 NA
BRANCH  22  24
HETATM   24  N1  UNL     1      28.553  -3.221  53.093  1.00  0.00    -0.231 N 
HETATM   25  H1  UNL     1      27.928  -3.504  52.291  1.00  0.00     0.174 HD
HETATM   26  H2  UNL     1      29.001  -4.001  53.635  1.00  0.00     0.174 HD
ENDBRANCH  22  24
ENDBRANCH  15  17
ENDBRANCH   1  15
TORSDOF 3
ENDMDL
MODEL 3
REMARK VINA RESULT:      -8.2      3.441      7.841
REMARK  3 active torsions:
REMARK  status: ('A' for Active; 'I' for Inactive)
REMARK    1  A    between atoms: N1_1  and  C1_2 
REMARK    2  A    between atoms: C4_7  and  N3_8 
REMARK    3  A    between atoms: N3_8  and  C5_9 
ROOT
HETATM    1  C5  UNL     1      23.536   1.036  53.088  1.00  0.00     0.036 A 
HETATM    2  C6  UNL     1      23.932  -0.283  53.111  1.00  0.00     0.032 A 
HETATM    3  C7  UNL     1      25.241  -0.702  53.254  1.00  0.00     0.041 A 
HETATM    4  C8  UNL     1      26.239   0.260  53.383  1.00  0.00     0.102 A 
HETATM    5  C9  UNL     1      25.890   1.568  53.363  1.00  0.00     0.071 A 
HETATM    6  C10 UNL     1      24.588   1.941  53.221  1.00  0.00     0.062 A 
HETATM    7  N4  UNL     1      26.956   2.544  53.500  1.00  0.00    -0.317 N 
HETATM    8  C11 UNL     1      28.277   2.026  53.641  1.00  0.00     0.325 C 
HETATM    9  O1  UNL     1      29.234   2.825  53.452  1.00  0.00    -0.263 OA
HETATM   10  C12 UNL     1      28.591   0.620  53.993  1.00  0.00     0.443 C 
HETATM   11  F2  UNL     1      29.758   0.295  53.316  1.00  0.00    -0.165 F 
HETATM   12  F3  UNL     1      28.733   0.440  55.346  1.00  0.00    -0.165 F 
HETATM   13  O2  UNL     1      27.547  -0.189  53.527  1.00  0.00    -0.274 OA
HETATM   14  H8  UNL     1      26.751   3.562  53.490  1.00  0.00     0.169 HD
ENDROOT
BRANCH   1  15
HETATM   15  N3  UNL     1      22.203   1.408  52.966  1.00  0.00    -0.338 N 
HETATM   16  H4  UNL     1      22.162   2.475  53.043  1.00  0.00     0.167 HD
BRANCH  15  17
HETATM   17  C4  UNL     1      20.963   0.764  52.778  1.00  0.00     0.187 A 
HETATM   18  C3  UNL     1      20.333  -0.115  53.616  1.00  0.00     0.180 A 
HETATM   19  C2  UNL     1      19.133  -0.749  53.379  1.00  0.00     0.182 A 
HETATM   20  F1  UNL     1      20.916  -0.389  54.805  1.00  0.00    -0.200 F 
HETATM   21  N2  UNL     1      18.531  -0.466  52.211  1.00  0.00    -0.072 NA
HETATM   22  C1  UNL     1      19.108   0.391  51.358  1.00  0.00     0.722 A 
HETATM   23  N5  UNL     1      20.280   0.981  51.641  1.00  0.00    -0.042 NA
BRANCH  22  24
HETATM   24  N1  UNL     1      18.495   0.703  50.106  1.00  0.00    -0.231 N 
HETATM   25  H1  UNL     1      17.876   0.004  49.615  1.00  0.00     0.174 HD
HETATM   26  H2  UNL     1      18.632   1.626  49.625  1.00  0.00     0.174 HD
ENDBRANCH  22  24
ENDBRANCH  15  17
ENDBRANCH   1  15
TORSDOF 3
ENDMDL
MODEL 4
REMARK VINA RESULT:      -8.2      2.257      3.205
REMARK  3 active torsions:
REMARK  status: ('A' for Active; 'I' for Inactive)
REMARK    1  A    between atoms: N1_1  and  C1_2 
REMARK    2  A    between atoms: C4_7  and  N3_8 
REMARK    3  A    between atoms: N3_8  and  C5_9 
ROOT
HETATM    1  C5  UNL     1      24.500   0.257  53.360  1.00  0.00     0.036 A 
HETATM    2  C6  UNL     1      23.404  -0.572  53.450  1.00  0.00     0.032 A 
HETATM    3  C7  UNL     1      22.273  -0.457  52.664  1.00  0.00     0.041 A 
HETATM    4  C8  UNL     1      22.219   0.560  51.715  1.00  0.00     0.102 A 
HETATM    5  C9  UNL     1      23.277   1.397  51.597  1.00  0.00     0.071 A 
HETATM    6  C10 UNL     1      24.375   1.251  52.390  1.00  0.00     0.062 A 
HETATM    7  N4  UNL     1      23.188   2.447  50.597  1.00  0.00    -0.317 N 
HETATM    8  C11 UNL     1      21.986   2.494  49.833  1.00  0.00     0.325 C 
HETATM    9  O1  UNL     1      21.751   3.554  49.191  1.00  0.00    -0.263 OA
HETATM   10  C12 UNL     1      21.004   1.385  49.746  1.00  0.00     0.443 C 
HETATM   11  F2  UNL     1      19.752   1.973  49.641  1.00  0.00    -0.165 F 
HETATM   12  F3  UNL     1      21.254   0.550  48.686  1.00  0.00    -0.165 F 
HETATM   13  O2  UNL     1      21.071   0.651  50.937  1.00  0.00    -0.274 OA
HETATM   14  H8  UNL     1      23.966   3.122  50.462  1.00  0.00     0.169 HD
ENDROOT
BRANCH   1  15
HETATM   15  N3  UNL     1      25.626   0.088  54.156  1.00  0.00    -0.338 N 
HETATM   16  H4  UNL     1      25.288  -0.020  55.166  1.00  0.00     0.167 HD
BRANCH  15  17
HETATM   17  C4  UNL     1      27.022   0.029  53.972  1.00  0.00     0.187 A 
HETATM   18  C3  UNL     1      27.759  -0.981  53.414  1.00  0.00     0.180 A 
HETATM   19  C2  UNL     1      29.129  -1.013  53.283  1.00  0.00     0.182 A 
HETATM   20  F1  UNL     1      27.097  -2.052  52.922  1.00  0.00    -0.200 F 
HETATM   21  N2  UNL     1      29.796   0.058  53.748  1.00  0.00    -0.072 NA
HETATM   22  C1  UNL     1      29.119   1.074  54.299  1.00  0.00     0.722 A 
HETATM   23  N5  UNL     1      27.781   1.051  54.402  1.00  0.00    -0.042 NA
BRANCH  22  24
HETATM   24  N1  UNL     1      29.803   2.220  54.809  1.00  0.00    -0.231 N 
HETATM   25  H1  UNL     1      29.740   2.481  55.829  1.00  0.00     0.174 HD
HETATM   26  H2  UNL     1      30.390   2.843  54.201  1.00  0.00     0.174 HD
ENDBRANCH  22  24
ENDBRANCH  15  17
ENDBRANCH   1  15
TORSDOF 3
ENDMDL
MODEL 5
REMARK VINA RESULT:      -7.9      4.216      8.053
REMARK  3 active torsions:
REMARK  status: ('A' for Active; 'I' for Inactive)
REMARK    1  A    between atoms: N1_1  and  C1_2 
REMARK    2  A    between atoms: C4_7  and  N3_8 
REMARK    3  A    between atoms: N3_8  and  C5_9 
ROOT
HETATM    1  C5  UNL     1      24.198   1.885  52.772  1.00  0.00     0.036 A 
HETATM    2  C6  UNL     1      24.455   0.603  52.338  1.00  0.00     0.032 A 
HETATM    3  C7  UNL     1      25.668  -0.042  52.490  1.00  0.00     0.041 A 
HETATM    4  C8  UNL     1      26.710   0.633  53.118  1.00  0.00     0.102 A 
HETATM    5  C9  UNL     1      26.497   1.896  53.556  1.00  0.00     0.071 A 
HETATM    6  C10 UNL     1      25.287   2.499  53.389  1.00  0.00     0.062 A 
HETATM    7  N4  UNL     1      27.606   2.572  54.207  1.00  0.00    -0.317 N 
HETATM    8  C11 UNL     1      28.820   1.834  54.319  1.00  0.00     0.325 C 
HETATM    9  O1  UNL     1      29.868   2.482  54.589  1.00  0.00    -0.263 OA
HETATM   10  C12 UNL     1      28.927   0.365  54.142  1.00  0.00     0.443 C 
HETATM   11  F2  UNL     1      30.165   0.126  53.561  1.00  0.00    -0.165 F 
HETATM   12  F3  UNL     1      28.792  -0.315  55.326  1.00  0.00    -0.165 F 
HETATM   13  O2  UNL     1      27.918  -0.040  53.259  1.00  0.00    -0.274 OA
HETATM   14  H8  UNL     1      27.505   3.543  54.561  1.00  0.00     0.169 HD
ENDROOT
BRANCH   1  15
HETATM   15  N3  UNL     1      22.954   2.485  52.618  1.00  0.00    -0.338 N 
HETATM   16  H4  UNL     1      22.345   2.169  53.439  1.00  0.00     0.167 HD
BRANCH  15  17
HETATM   17  C4  UNL     1      22.333   3.354  51.698  1.00  0.00     0.187 A 
HETATM   18  C3  UNL     1      21.703   3.034  50.527  1.00  0.00     0.180 A 
HETATM   19  C2  UNL     1      21.135   3.920  49.638  1.00  0.00     0.182 A 
HETATM   20  F1  UNL     1      21.599   1.727  50.198  1.00  0.00    -0.200 F 
HETATM   21  N2  UNL     1      21.211   5.222  49.966  1.00  0.00    -0.072 NA
HETATM   22  C1  UNL     1      21.815   5.585  51.105  1.00  0.00     0.722 A 
HETATM   23  N5  UNL     1      22.352   4.676  51.935  1.00  0.00    -0.042 NA
BRANCH  22  24
HETATM   24  N1  UNL     1      21.918   6.961  51.473  1.00  0.00    -0.231 N 
HETATM   25  H1  UNL     1      21.460   7.325  52.352  1.00  0.00     0.174 HD
HETATM   26  H2  UNL     1      22.444   7.662  50.895  1.00  0.00     0.174 HD
ENDBRANCH  22  24
ENDBRANCH  15  17
ENDBRANCH   1  15
TORSDOF 3
ENDMDL
MODEL 6
REMARK VINA RESULT:      -7.9      4.545      5.949
REMARK  3 active torsions:
REMARK  status: ('A' for Active; 'I' for Inactive)
REMARK    1  A    between atoms: N1_1  and  C1_2 
REMARK    2  A    between atoms: C4_7  and  N3_8 
REMARK    3  A    between atoms: N3_8  and  C5_9 
ROOT
HETATM    1  C5  UNL     1      24.979   2.547  50.920  1.00  0.00     0.036 A 
HETATM    2  C6  UNL     1      25.868   1.677  51.514  1.00  0.00     0.032 A 
HETATM    3  C7  UNL     1      25.522   0.744  52.474  1.00  0.00     0.041 A 
HETATM    4  C8  UNL     1      24.193   0.666  52.881  1.00  0.00     0.102 A 
HETATM    5  C9  UNL     1      23.290   1.506  52.322  1.00  0.00     0.071 A 
HETATM    6  C10 UNL     1      23.669   2.411  51.377  1.00  0.00     0.062 A 
HETATM    7  N4  UNL     1      21.913   1.397  52.769  1.00  0.00    -0.317 N 
HETATM    8  C11 UNL     1      21.645   0.411  53.763  1.00  0.00     0.325 C 
HETATM    9  O1  UNL     1      20.552   0.500  54.385  1.00  0.00    -0.263 OA
HETATM   10  C12 UNL     1      22.563  -0.703  54.107  1.00  0.00     0.443 C 
HETATM   11  F2  UNL     1      22.419  -0.928  55.468  1.00  0.00    -0.165 F 
HETATM   12  F3  UNL     1      22.300  -1.838  53.383  1.00  0.00    -0.165 F 
HETATM   13  O2  UNL     1      23.873  -0.281  53.846  1.00  0.00    -0.274 OA
HETATM   14  H8  UNL     1      21.175   2.016  52.380  1.00  0.00     0.169 HD
ENDROOT
BRANCH   1  15
HETATM   15  N3  UNL     1      25.370   3.452  49.941  1.00  0.00    -0.338 N 
HETATM   16  H4  UNL     1      25.531   2.896  49.040  1.00  0.00     0.167 HD
BRANCH  15  17
HETATM   17  C4  UNL     1      25.595   4.840  49.849  1.00  0.00     0.187 A 
HETATM   18  C3  UNL     1      26.535   5.495  49.100  1.00  0.00     0.180 A 
HETATM   19  C2  UNL     1      26.743   6.856  49.063  1.00  0.00     0.182 A 
HETATM   20  F1  UNL     1      27.336   4.758  48.299  1.00  0.00    -0.200 F 
HETATM   21  N2  UNL     1      25.937   7.603  49.838  1.00  0.00    -0.072 NA
HETATM   22  C1  UNL     1      24.999   7.007  50.586  1.00  0.00     0.722 A 
HETATM   23  N5  UNL     1      24.841   5.674  50.583  1.00  0.00    -0.042 NA
BRANCH  22  24
HETATM   24  N1  UNL     1      24.135   7.776  51.425  1.00  0.00    -0.231 N 
HETATM   25  H1  UNL     1      24.432   8.719  51.793  1.00  0.00     0.174 HD
HETATM   26  H2  UNL     1      23.181   7.441  51.710  1.00  0.00     0.174 HD
ENDBRANCH  22  24
ENDBRANCH  15  17
ENDBRANCH   1  15
TORSDOF 3
ENDMDL
MODEL 7
REMARK VINA RESULT:      -7.9      3.230      4.392
REMARK  3 active torsions:
REMARK  status: ('A' for Active; 'I' for Inactive)
REMARK    1  A    between atoms: N1_1  and  C1_2 
REMARK    2  A    between atoms: C4_7  and  N3_8 
REMARK    3  A    between atoms: N3_8  and  C5_9 
ROOT
HETATM    1  C5  UNL     1      24.804   1.078  52.543  1.00  0.00     0.036 A 
HETATM    2  C6  UNL     1      23.450   0.936  52.754  1.00  0.00     0.032 A 
HETATM    3  C7  UNL     1      22.517   1.930  52.524  1.00  0.00     0.041 A 
HETATM    4  C8  UNL     1      22.956   3.162  52.052  1.00  0.00     0.102 A 
HETATM    5  C9  UNL     1      24.281   3.342  51.835  1.00  0.00     0.071 A 
HETATM    6  C10 UNL     1      25.170   2.337  52.071  1.00  0.00     0.062 A 
HETATM    7  N4  UNL     1      24.706   4.640  51.341  1.00  0.00    -0.317 N 
HETATM    8  C11 UNL     1      23.679   5.607  51.135  1.00  0.00     0.325 C 
HETATM    9  O1  UNL     1      24.035   6.810  51.010  1.00  0.00    -0.263 OA
HETATM   10  C12 UNL     1      22.232   5.288  51.057  1.00  0.00     0.443 C 
HETATM   11  F2  UNL     1      21.559   6.363  51.620  1.00  0.00    -0.165 F 
HETATM   12  F3  UNL     1      21.817   5.059  49.769  1.00  0.00    -0.165 F 
HETATM   13  O2  UNL     1      21.997   4.143  51.828  1.00  0.00    -0.274 OA
HETATM   14  H8  UNL     1      25.708   4.839  51.159  1.00  0.00     0.169 HD
ENDROOT
BRANCH   1  15
HETATM   15  N3  UNL     1      25.701   0.041  52.766  1.00  0.00    -0.338 N 
HETATM   16  H4  UNL     1      25.167  -0.877  52.631  1.00  0.00     0.167 HD
BRANCH  15  17
HETATM   17  C4  UNL     1      27.063  -0.091  53.108  1.00  0.00     0.187 A 
HETATM   18  C3  UNL     1      27.852  -1.205  53.014  1.00  0.00     0.180 A 
HETATM   19  C2  UNL     1      29.173  -1.301  53.391  1.00  0.00     0.182 A 
HETATM   20  F1  UNL     1      27.310  -2.326  52.488  1.00  0.00    -0.200 F 
HETATM   21  N2  UNL     1      29.731  -0.186  53.893  1.00  0.00    -0.072 NA
HETATM   22  C1  UNL     1      28.999   0.931  54.001  1.00  0.00     0.722 A 
HETATM   23  N5  UNL     1      27.713   0.967  53.618  1.00  0.00    -0.042 NA
BRANCH  22  24
HETATM   24  N1  UNL     1      29.564   2.128  54.540  1.00  0.00    -0.231 N 
HETATM   25  H1  UNL     1      30.438   2.551  54.125  1.00  0.00     0.174 HD
HETATM   26  H2  UNL     1      29.143   2.631  55.359  1.00  0.00     0.174 HD
ENDBRANCH  22  24
ENDBRANCH  15  17
ENDBRANCH   1  15
TORSDOF 3
ENDMDL
MODEL 8
REMARK VINA RESULT:      -7.8      2.826      3.230
REMARK  3 active torsions:
REMARK  status: ('A' for Active; 'I' for Inactive)
REMARK    1  A    between atoms: N1_1  and  C1_2 
REMARK    2  A    between atoms: C4_7  and  N3_8 
REMARK    3  A    between atoms: N3_8  and  C5_9 
ROOT
HETATM    1  C5  UNL     1      25.691   2.877  51.317  1.00  0.00     0.036 A 
HETATM    2  C6  UNL     1      25.495   3.244  50.003  1.00  0.00     0.032 A 
HETATM    3  C7  UNL     1      24.275   3.620  49.473  1.00  0.00     0.041 A 
HETATM    4  C8  UNL     1      23.160   3.632  50.305  1.00  0.00     0.102 A 
HETATM    5  C9  UNL     1      23.311   3.275  51.602  1.00  0.00     0.071 A 
HETATM    6  C10 UNL     1      24.530   2.912  52.089  1.00  0.00     0.062 A 
HETATM    7  N4  UNL     1      22.127   3.300  52.443  1.00  0.00    -0.317 N 
HETATM    8  C11 UNL     1      20.911   3.697  51.814  1.00  0.00     0.325 C 
HETATM    9  O1  UNL     1      19.836   3.435  52.418  1.00  0.00    -0.263 OA
HETATM   10  C12 UNL     1      20.833   4.395  50.507  1.00  0.00     0.443 C 
HETATM   11  F2  UNL     1      19.679   3.941  49.885  1.00  0.00    -0.165 F 
HETATM   12  F3  UNL     1      20.822   5.760  50.644  1.00  0.00    -0.165 F 
HETATM   13  O2  UNL     1      21.947   4.016  49.746  1.00  0.00    -0.274 OA
HETATM   14  H8  UNL     1      22.179   3.033  53.445  1.00  0.00     0.169 HD
ENDROOT
BRANCH   1  15
HETATM   15  N3  UNL     1      26.941   2.529  51.811  1.00  0.00    -0.338 N 
HETATM   16  H4  UNL     1      27.643   3.244  51.433  1.00  0.00     0.167 HD
BRANCH  15  17
HETATM   17  C4  UNL     1      27.483   1.523  52.637  1.00  0.00     0.187 A 
HETATM   18  C3  UNL     1      28.426   1.654  53.619  1.00  0.00     0.180 A 
HETATM   19  C2  UNL     1      28.953   0.637  54.383  1.00  0.00     0.182 A 
HETATM   20  F1  UNL     1      28.887   2.894  53.896  1.00  0.00    -0.200 F 
HETATM   21  N2  UNL     1      28.486  -0.599  54.134  1.00  0.00    -0.072 NA
HETATM   22  C1  UNL     1      27.558  -0.777  53.184  1.00  0.00     0.722 A 
HETATM   23  N5  UNL     1      27.080   0.252  52.468  1.00  0.00    -0.042 NA
BRANCH  22  24
HETATM   24  N1  UNL     1      27.050  -2.080  52.892  1.00  0.00    -0.231 N 
HETATM   25  H1  UNL     1      26.777  -2.743  53.666  1.00  0.00     0.174 HD
HETATM   26  H2  UNL     1      26.930  -2.432  51.910  1.00  0.00     0.174 HD
ENDBRANCH  22  24
ENDBRANCH  15  17
ENDBRANCH   1  15
TORSDOF 3
ENDMDL
MODEL 9
REMARK VINA RESULT:      -7.8      3.667      4.798
REMARK  3 active torsions:
REMARK  status: ('A' for Active; 'I' for Inactive)
REMARK    1  A    between atoms: N1_1  and  C1_2 
REMARK    2  A    between atoms: C4_7  and  N3_8 
REMARK    3  A    between atoms: N3_8  and  C5_9 
ROOT
HETATM    1  C5  UNL     1      25.448   1.921  51.931  1.00  0.00     0.036 A 
HETATM    2  C6  UNL     1      24.607   2.336  52.940  1.00  0.00     0.032 A 
HETATM    3  C7  UNL     1      23.878   3.510  52.915  1.00  0.00     0.041 A 
HETATM    4  C8  UNL     1      23.991   4.342  51.805  1.00  0.00     0.102 A 
HETATM    5  C9  UNL     1      24.810   3.970  50.792  1.00  0.00     0.071 A 
HETATM    6  C10 UNL     1      25.511   2.804  50.854  1.00  0.00     0.062 A 
HETATM    7  N4  UNL     1      24.904   4.861  49.650  1.00  0.00    -0.317 N 
HETATM    8  C11 UNL     1      24.121   6.052  49.707  1.00  0.00     0.325 C 
HETATM    9  O1  UNL     1      24.411   6.973  48.897  1.00  0.00    -0.263 OA
HETATM   10  C12 UNL     1      22.997   6.270  50.651  1.00  0.00     0.443 C 
HETATM   11  F2  UNL     1      23.010   7.619  50.975  1.00  0.00    -0.165 F 
HETATM   12  F3  UNL     1      21.789   5.896  50.118  1.00  0.00    -0.165 F 
HETATM   13  O2  UNL     1      23.247   5.516  51.805  1.00  0.00    -0.274 OA
HETATM   14  H8  UNL     1      25.518   4.632  48.844  1.00  0.00     0.169 HD
ENDROOT
BRANCH   1  15
HETATM   15  N3  UNL     1      26.142   0.719  51.991  1.00  0.00    -0.338 N 
HETATM   16  H4  UNL     1      25.622   0.020  51.369  1.00  0.00     0.167 HD
BRANCH  15  17
HETATM   17  C4  UNL     1      27.295   0.223  52.633  1.00  0.00     0.187 A 
HETATM   18  C3  UNL     1      28.307   0.933  53.219  1.00  0.00     0.180 A 
HETATM   19  C2  UNL     1      29.435   0.408  53.809  1.00  0.00     0.182 A 
HETATM   20  F1  UNL     1      28.203   2.280  53.250  1.00  0.00    -0.200 F 
HETATM   21  N2  UNL     1      29.538  -0.933  53.807  1.00  0.00    -0.072 NA
HETATM   22  C1  UNL     1      28.571  -1.672  53.248  1.00  0.00     0.722 A 
HETATM   23  N5  UNL     1      27.491  -1.105  52.685  1.00  0.00    -0.042 NA
BRANCH  22  24
HETATM   24  N1  UNL     1      28.660  -3.097  53.223  1.00  0.00    -0.231 N 
HETATM   25  H1  UNL     1      29.560  -3.590  53.467  1.00  0.00     0.174 HD
HETATM   26  H2  UNL     1      27.847  -3.709  52.963  1.00  0.00     0.174 HD
ENDBRANCH  22  24
ENDBRANCH  15  17
ENDBRANCH   1  15
TORSDOF 3
ENDMDL
