MODEL 1
REMARK VINA RESULT:      -8.7      0.000      0.000
REMARK  5 active torsions:
REMARK  status: ('A' for Active; 'I' for Inactive)
REMARK    1  A    between atoms: O1_2  and  C2_3 
REMARK    2  A    between atoms: C7_10  and  N3_11 
REMARK    3  A    between atoms: N3_11  and  C8_12 
REMARK    4  A    between atoms: C15_20  and  C16_21 
REMARK       I    between atoms: C16_21  and  N4_23 
REMARK       I    between atoms: N4_23  and  C17_24 
REMARK    5  A    between atoms: C17_24  and  O4_26 
ROOT
HETATM    1  C2  UNL     1      24.396  -0.520  53.420  1.00  0.00     0.161 C 
HETATM    2  C3  UNL     1      25.167  -0.680  54.667  1.00  0.00     0.008 C 
HETATM    3  C4  UNL     1      26.287  -0.108  55.075  1.00  0.00     0.031 C 
HETATM    4  C5  UNL     1      26.819   0.836  54.102  1.00  0.00     0.069 A 
HETATM    5  N1  UNL     1      28.003   1.388  54.470  1.00  0.00    -0.241 NA
HETATM    6  C6  UNL     1      28.618   2.230  53.623  1.00  0.00     0.235 A 
HETATM    7  N2  UNL     1      28.034   2.477  52.467  1.00  0.00    -0.224 NA
HETATM    8  C7  UNL     1      26.872   1.958  52.064  1.00  0.00     0.139 A 
HETATM    9  C14 UNL     1      26.178   1.076  52.897  1.00  0.00     0.033 A 
HETATM   10  C15 UNL     1      24.865   0.531  52.488  1.00  0.00     0.150 C 
ENDROOT
BRANCH   8  11
HETATM   11  N3  UNL     1      26.376   2.307  50.789  1.00  0.00    -0.340 N 
HETATM   12  H8  UNL     1      26.029   1.500  50.234  1.00  0.00     0.167 HD
BRANCH  11  13
HETATM   13  C8  UNL     1      26.291   3.565  50.155  1.00  0.00     0.035 A 
HETATM   14  C9  UNL     1      27.142   4.080  49.209  1.00  0.00     0.029 A 
HETATM   15  C10 UNL     1      27.022   5.318  48.621  1.00  0.00     0.004 A 
HETATM   16  C11 UNL     1      25.978   6.099  49.004  1.00  0.00     0.019 A 
HETATM   17  C12 UNL     1      25.077   5.666  49.944  1.00  0.00     0.013 A 
HETATM   18 BR1  UNL     1      23.639   6.781  50.450  1.00  0.00    -0.051 Br
HETATM   19  C13 UNL     1      25.258   4.427  50.484  1.00  0.00     0.048 A 
ENDBRANCH  11  13
ENDBRANCH   8  11
BRANCH  10  20
HETATM   20  C16 UNL     1      23.910   1.688  52.432  1.00  0.00     0.237 C 
HETATM   21  O2  UNL     1      23.584   2.780  53.018  1.00  0.00    -0.272 OA
HETATM   22  N4  UNL     1      23.050   1.473  51.293  1.00  0.00    -0.272 N 
HETATM   23  C17 UNL     1      21.996   2.354  50.885  1.00  0.00     0.366 C 
HETATM   24  H14 UNL     1      23.029   0.695  50.595  1.00  0.00     0.174 HD
HETATM   25  O3  UNL     1      21.808   3.388  51.571  1.00  0.00    -0.238 OA
BRANCH  23  26
HETATM   26  O4  UNL     1      21.131   2.251  49.835  1.00  0.00    -0.309 OA
HETATM   27  C18 UNL     1      21.460   1.420  48.717  1.00  0.00     0.215 C 
ENDBRANCH  23  26
ENDBRANCH  10  20
BRANCH   1  28
HETATM   28  O1  UNL     1      23.020  -0.437  53.660  1.00  0.00    -0.386 OA
HETATM   29  C1  UNL     1      22.720  -1.160  54.834  1.00  0.00     0.202 C 
ENDBRANCH   1  28
TORSDOF 5
ENDMDL
MODEL 2
REMARK VINA RESULT:      -8.0      2.124      4.677
REMARK  5 active torsions:
REMARK  status: ('A' for Active; 'I' for Inactive)
REMARK    1  A    between atoms: O1_2  and  C2_3 
REMARK    2  A    between atoms: C7_10  and  N3_11 
REMARK    3  A    between atoms: N3_11  and  C8_12 
REMARK    4  A    between atoms: C15_20  and  C16_21 
REMARK       I    between atoms: C16_21  and  N4_23 
REMARK       I    between atoms: N4_23  and  C17_24 
REMARK    5  A    between atoms: C17_24  and  O4_26 
ROOT
HETATM    1  C2  UNL     1      22.791   0.593  53.436  1.00  0.00     0.161 C 
HETATM    2  C3  UNL     1      21.686  -0.067  52.716  1.00  0.00     0.008 C 
HETATM    3  C4  UNL     1      21.266   0.056  51.468  1.00  0.00     0.031 C 
HETATM    4  C5  UNL     1      22.054   1.014  50.706  1.00  0.00     0.069 A 
HETATM    5  N1  UNL     1      21.602   1.207  49.440  1.00  0.00    -0.241 NA
HETATM    6  C6  UNL     1      22.215   2.113  48.662  1.00  0.00     0.235 A 
HETATM    7  N2  UNL     1      23.235   2.775  49.173  1.00  0.00    -0.224 NA
HETATM    8  C7  UNL     1      23.713   2.620  50.410  1.00  0.00     0.139 A 
HETATM    9  C14 UNL     1      23.123   1.691  51.272  1.00  0.00     0.033 A 
HETATM   10  C15 UNL     1      23.671   1.469  52.628  1.00  0.00     0.150 C 
ENDROOT
BRANCH   8  11
HETATM   11  N3  UNL     1      24.806   3.412  50.823  1.00  0.00    -0.340 N 
HETATM   12  H8  UNL     1      25.016   3.348  51.839  1.00  0.00     0.167 HD
BRANCH  11  13
HETATM   13  C8  UNL     1      25.637   4.278  50.081  1.00  0.00     0.035 A 
HETATM   14  C9  UNL     1      26.769   3.945  49.376  1.00  0.00     0.029 A 
HETATM   15  C10 UNL     1      27.553   4.828  48.670  1.00  0.00     0.004 A 
HETATM   16  C11 UNL     1      27.184   6.135  48.666  1.00  0.00     0.019 A 
HETATM   17  C12 UNL     1      26.069   6.559  49.344  1.00  0.00     0.013 A 
HETATM   18 BR1  UNL     1      25.589   8.386  49.314  1.00  0.00    -0.051 Br
HETATM   19  C13 UNL     1      25.338   5.629  50.022  1.00  0.00     0.048 A 
ENDBRANCH  11  13
ENDBRANCH   8  11
BRANCH  10  20
HETATM   20  C16 UNL     1      25.038   0.873  52.454  1.00  0.00     0.237 C 
HETATM   21  O2  UNL     1      25.754   0.160  51.667  1.00  0.00    -0.272 OA
HETATM   22  N4  UNL     1      25.816   1.254  53.608  1.00  0.00    -0.272 N 
HETATM   23  C17 UNL     1      27.184   0.886  53.830  1.00  0.00     0.366 C 
HETATM   24  H14 UNL     1      25.557   1.827  54.442  1.00  0.00     0.174 HD
HETATM   25  O3  UNL     1      27.743   0.182  52.956  1.00  0.00    -0.238 OA
BRANCH  23  26
HETATM   26  O4  UNL     1      28.008   1.189  54.875  1.00  0.00    -0.309 OA
HETATM   27  C18 UNL     1      29.389   1.480  54.634  1.00  0.00     0.215 C 
ENDBRANCH  23  26
ENDBRANCH  10  20
BRANCH   1  28
HETATM   28  O1  UNL     1      23.520  -0.308  54.220  1.00  0.00    -0.386 OA
HETATM   29  C1  UNL     1      22.617  -1.165  54.883  1.00  0.00     0.202 C 
ENDBRANCH   1  28
TORSDOF 5
ENDMDL
MODEL 3
REMARK VINA RESULT:      -7.8      1.716      2.016
REMARK  5 active torsions:
REMARK  status: ('A' for Active; 'I' for Inactive)
REMARK    1  A    between atoms: O1_2  and  C2_3 
REMARK    2  A    between atoms: C7_10  and  N3_11 
REMARK    3  A    between atoms: N3_11  and  C8_12 
REMARK    4  A    between atoms: C15_20  and  C16_21 
REMARK       I    between atoms: C16_21  and  N4_23 
REMARK       I    between atoms: N4_23  and  C17_24 
REMARK    5  A    between atoms: C17_24  and  O4_26 
ROOT
HETATM    1  C2  UNL     1      22.713   0.599  52.312  1.00  0.00     0.161 C 
HETATM    2  C3  UNL     1      23.365  -0.052  53.464  1.00  0.00     0.008 C 
HETATM    3  C4  UNL     1      24.610   0.007  53.905  1.00  0.00     0.031 C 
HETATM    4  C5  UNL     1      25.450   0.875  53.092  1.00  0.00     0.069 A 
HETATM    5  N1  UNL     1      26.748   0.902  53.487  1.00  0.00    -0.241 NA
HETATM    6  C6  UNL     1      27.629   1.623  52.775  1.00  0.00     0.235 A 
HETATM    7  N2  UNL     1      27.182   2.274  51.718  1.00  0.00    -0.224 NA
HETATM    8  C7  UNL     1      25.916   2.276  51.293  1.00  0.00     0.139 A 
HETATM    9  C14 UNL     1      24.947   1.548  51.989  1.00  0.00     0.033 A 
HETATM   10  C15 UNL     1      23.531   1.580  51.563  1.00  0.00     0.150 C 
ENDROOT
BRANCH   8  11
HETATM   11  N3  UNL     1      25.588   3.011  50.134  1.00  0.00    -0.340 N 
HETATM   12  H8  UNL     1      24.885   2.550  49.524  1.00  0.00     0.167 HD
BRANCH  11  13
HETATM   13  C8  UNL     1      26.072   4.254  49.674  1.00  0.00     0.035 A 
HETATM   14  C9  UNL     1      27.178   4.480  48.891  1.00  0.00     0.029 A 
HETATM   15  C10 UNL     1      27.616   5.715  48.470  1.00  0.00     0.004 A 
HETATM   16  C11 UNL     1      26.899   6.803  48.856  1.00  0.00     0.019 A 
HETATM   17  C12 UNL     1      25.780   6.673  49.640  1.00  0.00     0.013 A 
HETATM   18 BR1  UNL     1      24.812   8.209  50.157  1.00  0.00    -0.051 Br
HETATM   19  C13 UNL     1      25.404   5.418  50.019  1.00  0.00     0.048 A 
ENDBRANCH  11  13
ENDBRANCH   8  11
BRANCH  10  20
HETATM   20  C16 UNL     1      23.044   2.984  51.773  1.00  0.00     0.237 C 
HETATM   21  O2  UNL     1      23.127   3.994  52.557  1.00  0.00    -0.272 OA
HETATM   22  N4  UNL     1      22.155   3.292  50.679  1.00  0.00    -0.272 N 
HETATM   23  C17 UNL     1      21.475   4.542  50.503  1.00  0.00     0.366 C 
HETATM   24  H14 UNL     1      21.856   2.712  49.862  1.00  0.00     0.174 HD
HETATM   25  O3  UNL     1      21.667   5.432  51.366  1.00  0.00    -0.238 OA
BRANCH  23  26
HETATM   26  O4  UNL     1      20.620   4.938  49.516  1.00  0.00    -0.309 OA
HETATM   27  C18 UNL     1      19.247   5.202  49.821  1.00  0.00     0.215 C 
ENDBRANCH  23  26
ENDBRANCH  10  20
BRANCH   1  28
HETATM   28  O1  UNL     1      21.451   1.107  52.642  1.00  0.00    -0.386 OA
HETATM   29  C1  UNL     1      20.465   0.275  52.071  1.00  0.00     0.202 C 
ENDBRANCH   1  28
TORSDOF 5
ENDMDL
MODEL 4
REMARK VINA RESULT:      -7.6      2.638      5.941
REMARK  5 active torsions:
REMARK  status: ('A' for Active; 'I' for Inactive)
REMARK    1  A    between atoms: O1_2  and  C2_3 
REMARK    2  A    between atoms: C7_10  and  N3_11 
REMARK    3  A    between atoms: N3_11  and  C8_12 
REMARK    4  A    between atoms: C15_20  and  C16_21 
REMARK       I    between atoms: C16_21  and  N4_23 
REMARK       I    between atoms: N4_23  and  C17_24 
REMARK    5  A    between atoms: C17_24  and  O4_26 
ROOT
HETATM    1  C2  UNL     1      22.135   1.769  49.330  1.00  0.00     0.161 C 
HETATM    2  C3  UNL     1      20.779   1.194  49.415  1.00  0.00     0.008 C 
HETATM    3  C4  UNL     1      20.134   0.635  50.425  1.00  0.00     0.031 C 
HETATM    4  C5  UNL     1      20.929   0.601  51.645  1.00  0.00     0.069 A 
HETATM    5  N1  UNL     1      20.313  -0.026  52.679  1.00  0.00    -0.241 NA
HETATM    6  C6  UNL     1      20.974  -0.170  53.839  1.00  0.00     0.235 A 
HETATM    7  N2  UNL     1      22.200   0.310  53.913  1.00  0.00    -0.224 NA
HETATM    8  C7  UNL     1      22.845   0.934  52.924  1.00  0.00     0.139 A 
HETATM    9  C14 UNL     1      22.214   1.119  51.690  1.00  0.00     0.033 A 
HETATM   10  C15 UNL     1      22.893   1.852  50.600  1.00  0.00     0.150 C 
ENDROOT
BRANCH   8  11
HETATM   11  N3  UNL     1      24.164   1.383  53.147  1.00  0.00    -0.340 N 
HETATM   12  H8  UNL     1      24.241   2.406  53.313  1.00  0.00     0.167 HD
BRANCH  11  13
HETATM   13  C8  UNL     1      25.381   0.669  53.165  1.00  0.00     0.035 A 
HETATM   14  C9  UNL     1      25.587  -0.637  52.789  1.00  0.00     0.029 A 
HETATM   15  C10 UNL     1      26.794  -1.295  52.830  1.00  0.00     0.004 A 
HETATM   16  C11 UNL     1      27.875  -0.602  53.276  1.00  0.00     0.019 A 
HETATM   17  C12 UNL     1      27.763   0.707  53.673  1.00  0.00     0.013 A 
HETATM   18 BR1  UNL     1      29.289   1.635  54.288  1.00  0.00    -0.051 Br
HETATM   19  C13 UNL     1      26.535   1.295  53.605  1.00  0.00     0.048 A 
ENDBRANCH  11  13
ENDBRANCH   8  11
BRANCH  10  20
HETATM   20  C16 UNL     1      23.051   3.272  51.060  1.00  0.00     0.237 C 
HETATM   21  O2  UNL     1      22.552   4.161  51.835  1.00  0.00    -0.272 OA
HETATM   22  N4  UNL     1      24.188   3.820  50.361  1.00  0.00    -0.272 N 
HETATM   23  C17 UNL     1      24.678   5.158  50.518  1.00  0.00     0.366 C 
HETATM   24  H14 UNL     1      24.828   3.385  49.659  1.00  0.00     0.174 HD
HETATM   25  O3  UNL     1      24.072   5.906  51.322  1.00  0.00    -0.238 OA
BRANCH  23  26
HETATM   26  O4  UNL     1      25.735   5.775  49.914  1.00  0.00    -0.309 OA
HETATM   27  C18 UNL     1      26.587   5.036  49.034  1.00  0.00     0.215 C 
ENDBRANCH  23  26
ENDBRANCH  10  20
BRANCH   1  28
HETATM   28  O1  UNL     1      22.149   2.979  48.627  1.00  0.00    -0.386 OA
HETATM   29  C1  UNL     1      21.112   2.960  47.671  1.00  0.00     0.202 C 
ENDBRANCH   1  28
TORSDOF 5
ENDMDL
MODEL 5
REMARK VINA RESULT:      -7.6      2.654      5.710
REMARK  5 active torsions:
REMARK  status: ('A' for Active; 'I' for Inactive)
REMARK    1  A    between atoms: O1_2  and  C2_3 
REMARK    2  A    between atoms: C7_10  and  N3_11 
REMARK    3  A    between atoms: N3_11  and  C8_12 
REMARK    4  A    between atoms: C15_20  and  C16_21 
REMARK       I    between atoms: C16_21  and  N4_23 
REMARK       I    between atoms: N4_23  and  C17_24 
REMARK    5  A    between atoms: C17_24  and  O4_26 
ROOT
HETATM    1  C2  UNL     1      22.287   4.723  51.121  1.00  0.00     0.161 C 
HETATM    2  C3  UNL     1      22.553   5.450  49.865  1.00  0.00     0.008 C 
HETATM    3  C4  UNL     1      23.633   5.501  49.104  1.00  0.00     0.031 C 
HETATM    4  C5  UNL     1      24.722   4.686  49.624  1.00  0.00     0.069 A 
HETATM    5  N1  UNL     1      25.863   4.772  48.894  1.00  0.00    -0.241 NA
HETATM    6  C6  UNL     1      26.954   4.110  49.312  1.00  0.00     0.235 A 
HETATM    7  N2  UNL     1      26.858   3.403  50.421  1.00  0.00    -0.224 NA
HETATM    8  C7  UNL     1      25.758   3.289  51.170  1.00  0.00     0.139 A 
HETATM    9  C14 UNL     1      24.587   3.951  50.791  1.00  0.00     0.033 A 
HETATM   10  C15 UNL     1      23.346   3.796  51.580  1.00  0.00     0.150 C 
ENDROOT
BRANCH   8  11
HETATM   11  N3  UNL     1      25.810   2.505  52.342  1.00  0.00    -0.340 N 
HETATM   12  H8  UNL     1      25.429   2.977  53.186  1.00  0.00     0.167 HD
BRANCH  11  13
HETATM   13  C8  UNL     1      26.307   1.200  52.547  1.00  0.00     0.035 A 
HETATM   14  C9  UNL     1      25.616   0.018  52.433  1.00  0.00     0.029 A 
HETATM   15  C10 UNL     1      26.143  -1.235  52.648  1.00  0.00     0.004 A 
HETATM   16  C11 UNL     1      27.452  -1.315  53.001  1.00  0.00     0.019 A 
HETATM   17  C12 UNL     1      28.221  -0.187  53.139  1.00  0.00     0.013 A 
HETATM   18 BR1  UNL     1      30.037  -0.341  53.632  1.00  0.00    -0.051 Br
HETATM   19  C13 UNL     1      27.632   1.022  52.910  1.00  0.00     0.048 A 
ENDBRANCH  11  13
ENDBRANCH   8  11
BRANCH  10  20
HETATM   20  C16 UNL     1      22.922   2.362  51.450  1.00  0.00     0.237 C 
HETATM   21  O2  UNL     1      22.878   1.374  50.635  1.00  0.00    -0.272 OA
HETATM   22  N4  UNL     1      22.358   1.969  52.719  1.00  0.00    -0.272 N 
HETATM   23  C17 UNL     1      21.833   0.668  53.014  1.00  0.00     0.366 C 
HETATM   24  H14 UNL     1      22.232   2.512  53.603  1.00  0.00     0.174 HD
HETATM   25  O3  UNL     1      21.867  -0.190  52.100  1.00  0.00    -0.238 OA
BRANCH  23  26
HETATM   26  O4  UNL     1      21.282   0.192  54.168  1.00  0.00    -0.309 OA
HETATM   27  C18 UNL     1      21.953  -0.831  54.911  1.00  0.00     0.215 C 
ENDBRANCH  23  26
ENDBRANCH  10  20
BRANCH   1  28
HETATM   28  O1  UNL     1      21.022   4.123  51.122  1.00  0.00    -0.386 OA
HETATM   29  C1  UNL     1      20.135   4.934  50.384  1.00  0.00     0.202 C 
ENDBRANCH   1  28
TORSDOF 5
ENDMDL
MODEL 6
REMARK VINA RESULT:      -7.3      2.853      5.636
REMARK  5 active torsions:
REMARK  status: ('A' for Active; 'I' for Inactive)
REMARK    1  A    between atoms: O1_2  and  C2_3 
REMARK    2  A    between atoms: C7_10  and  N3_11 
REMARK    3  A    between atoms: N3_11  and  C8_12 
REMARK    4  A    between atoms: C15_20  and  C16_21 
REMARK       I    between atoms: C16_21  and  N4_23 
REMARK       I    between atoms: N4_23  and  C17_24 
REMARK    5  A    between atoms: C17_24  and  O4_26 
ROOT
HETATM    1  C2  UNL     1      23.510   5.800  51.475  1.00  0.00     0.161 C 
HETATM    2  C3  UNL     1      23.955   7.037  50.806  1.00  0.00     0.008 C 
HETATM    3  C4  UNL     1      24.957   7.262  49.973  1.00  0.00     0.031 C 
HETATM    4  C5  UNL     1      25.727   6.059  49.687  1.00  0.00     0.069 A 
HETATM    5  N1  UNL     1      26.799   6.277  48.884  1.00  0.00    -0.241 NA
HETATM    6  C6  UNL     1      27.618   5.251  48.601  1.00  0.00     0.235 A 
HETATM    7  N2  UNL     1      27.333   4.073  49.123  1.00  0.00    -0.224 NA
HETATM    8  C7  UNL     1      26.292   3.813  49.916  1.00  0.00     0.139 A 
HETATM    9  C14 UNL     1      25.399   4.836  50.250  1.00  0.00     0.033 A 
HETATM   10  C15 UNL     1      24.211   4.555  51.086  1.00  0.00     0.150 C 
ENDROOT
BRANCH   8  11
HETATM   11  N3  UNL     1      26.123   2.503  50.413  1.00  0.00    -0.340 N 
HETATM   12  H8  UNL     1      25.419   1.941  49.896  1.00  0.00     0.167 HD
BRANCH  11  13
HETATM   13  C8  UNL     1      26.747   1.850  51.498  1.00  0.00     0.035 A 
HETATM   14  C9  UNL     1      27.462   2.429  52.518  1.00  0.00     0.029 A 
HETATM   15  C10 UNL     1      28.058   1.750  53.556  1.00  0.00     0.004 A 
HETATM   16  C11 UNL     1      27.933   0.397  53.577  1.00  0.00     0.019 A 
HETATM   17  C12 UNL     1      27.237  -0.267  52.598  1.00  0.00     0.013 A 
HETATM   18 BR1  UNL     1      27.087  -2.148  52.663  1.00  0.00    -0.051 Br
HETATM   19  C13 UNL     1      26.672   0.471  51.601  1.00  0.00     0.048 A 
ENDBRANCH  11  13
ENDBRANCH   8  11
BRANCH  10  20
HETATM   20  C16 UNL     1      23.323   3.643  50.290  1.00  0.00     0.237 C 
HETATM   21  O2  UNL     1      22.854   3.434  49.117  1.00  0.00    -0.272 OA
HETATM   22  N4  UNL     1      22.821   2.641  51.199  1.00  0.00    -0.272 N 
HETATM   23  C17 UNL     1      21.934   1.576  50.834  1.00  0.00     0.366 C 
HETATM   24  H14 UNL     1      22.992   2.504  52.221  1.00  0.00     0.174 HD
HETATM   25  O3  UNL     1      21.569   1.512  49.636  1.00  0.00    -0.238 OA
BRANCH  23  26
HETATM   26  O4  UNL     1      21.403   0.582  51.603  1.00  0.00    -0.309 OA
HETATM   27  C18 UNL     1      19.993   0.336  51.581  1.00  0.00     0.215 C 
ENDBRANCH  23  26
ENDBRANCH  10  20
BRANCH   1  28
HETATM   28  O1  UNL     1      22.119   5.656  51.439  1.00  0.00    -0.386 OA
HETATM   29  C1  UNL     1      21.559   6.807  50.847  1.00  0.00     0.202 C 
ENDBRANCH   1  28
TORSDOF 5
ENDMDL
MODEL 7
REMARK VINA RESULT:      -7.2      2.855      7.042
REMARK  5 active torsions:
REMARK  status: ('A' for Active; 'I' for Inactive)
REMARK    1  A    between atoms: O1_2  and  C2_3 
REMARK    2  A    between atoms: C7_10  and  N3_11 
REMARK    3  A    between atoms: N3_11  and  C8_12 
REMARK    4  A    between atoms: C15_20  and  C16_21 
REMARK       I    between atoms: C16_21  and  N4_23 
REMARK       I    between atoms: N4_23  and  C17_24 
REMARK    5  A    between atoms: C17_24  and  O4_26 
ROOT
HETATM    1  C2  UNL     1      25.021   3.827  49.461  1.00  0.00     0.161 C 
HETATM    2  C3  UNL     1      24.387   5.148  49.294  1.00  0.00     0.008 C 
HETATM    3  C4  UNL     1      23.177   5.578  49.613  1.00  0.00     0.031 C 
HETATM    4  C5  UNL     1      22.364   4.543  50.235  1.00  0.00     0.069 A 
HETATM    5  N1  UNL     1      21.096   4.941  50.513  1.00  0.00    -0.241 NA
HETATM    6  C6  UNL     1      20.235   4.052  51.034  1.00  0.00     0.235 A 
HETATM    7  N2  UNL     1      20.671   2.826  51.251  1.00  0.00    -0.224 NA
HETATM    8  C7  UNL     1      21.907   2.391  50.994  1.00  0.00     0.139 A 
HETATM    9  C14 UNL     1      22.854   3.265  50.452  1.00  0.00     0.033 A 
HETATM   10  C15 UNL     1      24.241   2.814  50.209  1.00  0.00     0.150 C 
ENDROOT
BRANCH   8  11
HETATM   11  N3  UNL     1      22.225   1.043  51.267  1.00  0.00    -0.340 N 
HETATM   12  H8  UNL     1      22.688   0.549  50.479  1.00  0.00     0.167 HD
BRANCH  11  13
HETATM   13  C8  UNL     1      22.002   0.269  52.426  1.00  0.00     0.035 A 
HETATM   14  C9  UNL     1      20.804  -0.232  52.875  1.00  0.00     0.029 A 
HETATM   15  C10 UNL     1      20.633  -0.980  54.018  1.00  0.00     0.004 A 
HETATM   16  C11 UNL     1      21.736  -1.248  54.765  1.00  0.00     0.019 A 
HETATM   17  C12 UNL     1      22.974  -0.788  54.393  1.00  0.00     0.013 A 
HETATM   18 BR1  UNL     1      24.482  -1.183  55.460  1.00  0.00    -0.051 Br
HETATM   19  C13 UNL     1      23.069  -0.054  53.248  1.00  0.00     0.048 A 
ENDBRANCH  11  13
ENDBRANCH   8  11
BRANCH  10  20
HETATM   20  C16 UNL     1      24.848   2.525  51.551  1.00  0.00     0.237 C 
HETATM   21  O2  UNL     1      24.862   2.904  52.774  1.00  0.00    -0.272 OA
HETATM   22  N4  UNL     1      25.745   1.408  51.378  1.00  0.00    -0.272 N 
HETATM   23  C17 UNL     1      26.526   0.816  52.425  1.00  0.00     0.366 C 
HETATM   24  H14 UNL     1      25.982   0.852  50.525  1.00  0.00     0.174 HD
HETATM   25  O3  UNL     1      26.422   1.308  53.574  1.00  0.00    -0.238 OA
BRANCH  23  26
HETATM   26  O4  UNL     1      27.397  -0.233  52.375  1.00  0.00    -0.309 OA
HETATM   27  C18 UNL     1      28.164  -0.582  53.532  1.00  0.00     0.215 C 
ENDBRANCH  23  26
ENDBRANCH  10  20
BRANCH   1  28
HETATM   28  O1  UNL     1      26.336   3.932  49.930  1.00  0.00    -0.386 OA
HETATM   29  C1  UNL     1      27.113   4.592  48.955  1.00  0.00     0.202 C 
ENDBRANCH   1  28
TORSDOF 5
ENDMDL
MODEL 8
REMARK VINA RESULT:      -7.0      2.439      4.672
REMARK  5 active torsions:
REMARK  status: ('A' for Active; 'I' for Inactive)
REMARK    1  A    between atoms: O1_2  and  C2_3 
REMARK    2  A    between atoms: C7_10  and  N3_11 
REMARK    3  A    between atoms: N3_11  and  C8_12 
REMARK    4  A    between atoms: C15_20  and  C16_21 
REMARK       I    between atoms: C16_21  and  N4_23 
REMARK       I    between atoms: N4_23  and  C17_24 
REMARK    5  A    between atoms: C17_24  and  O4_26 
ROOT
HETATM    1  C2  UNL     1      21.590   1.232  52.840  1.00  0.00     0.161 C 
HETATM    2  C3  UNL     1      21.159   0.239  51.839  1.00  0.00     0.008 C 
HETATM    3  C4  UNL     1      21.271   0.229  50.521  1.00  0.00     0.031 C 
HETATM    4  C5  UNL     1      21.942   1.415  50.009  1.00  0.00     0.069 A 
HETATM    5  N1  UNL     1      22.013   1.458  48.653  1.00  0.00    -0.241 NA
HETATM    6  C6  UNL     1      22.558   2.535  48.065  1.00  0.00     0.235 A 
HETATM    7  N2  UNL     1      23.001   3.504  48.843  1.00  0.00    -0.224 NA
HETATM    8  C7  UNL     1      22.953   3.504  50.177  1.00  0.00     0.139 A 
HETATM    9  C14 UNL     1      22.400   2.413  50.854  1.00  0.00     0.033 A 
HETATM   10  C15 UNL     1      22.385   2.374  52.332  1.00  0.00     0.150 C 
ENDROOT
BRANCH   8  11
HETATM   11  N3  UNL     1      23.456   4.622  50.876  1.00  0.00    -0.340 N 
HETATM   12  H8  UNL     1      23.083   4.722  51.841  1.00  0.00     0.167 HD
BRANCH  11  13
HETATM   13  C8  UNL     1      24.367   5.621  50.469  1.00  0.00     0.035 A 
HETATM   14  C9  UNL     1      24.257   6.977  50.660  1.00  0.00     0.029 A 
HETATM   15  C10 UNL     1      25.170   7.915  50.239  1.00  0.00     0.004 A 
HETATM   16  C11 UNL     1      26.272   7.470  49.579  1.00  0.00     0.019 A 
HETATM   17  C12 UNL     1      26.465   6.133  49.342  1.00  0.00     0.013 A 
HETATM   18 BR1  UNL     1      28.009   5.555  48.421  1.00  0.00    -0.051 Br
HETATM   19  C13 UNL     1      25.518   5.259  49.789  1.00  0.00     0.048 A 
ENDBRANCH  11  13
ENDBRANCH   8  11
BRANCH  10  20
HETATM   20  C16 UNL     1      23.815   2.298  52.782  1.00  0.00     0.237 C 
HETATM   21  O2  UNL     1      24.717   2.920  53.445  1.00  0.00    -0.272 OA
HETATM   22  N4  UNL     1      24.357   1.065  52.265  1.00  0.00    -0.272 N 
HETATM   23  C17 UNL     1      25.701   0.611  52.470  1.00  0.00     0.366 C 
HETATM   24  H14 UNL     1      23.911   0.317  51.686  1.00  0.00     0.174 HD
HETATM   25  O3  UNL     1      26.461   1.342  53.150  1.00  0.00    -0.238 OA
BRANCH  23  26
HETATM   26  O4  UNL     1      26.313  -0.527  52.033  1.00  0.00    -0.309 OA
HETATM   27  C18 UNL     1      27.336  -1.139  52.826  1.00  0.00     0.215 C 
ENDBRANCH  23  26
ENDBRANCH  10  20
BRANCH   1  28
HETATM   28  O1  UNL     1      22.184   0.630  53.955  1.00  0.00    -0.386 OA
HETATM   29  C1  UNL     1      21.492  -0.563  54.248  1.00  0.00     0.202 C 
ENDBRANCH   1  28
TORSDOF 5
ENDMDL
MODEL 9
REMARK VINA RESULT:      -7.0      2.900      5.853
REMARK  5 active torsions:
REMARK  status: ('A' for Active; 'I' for Inactive)
REMARK    1  A    between atoms: O1_2  and  C2_3 
REMARK    2  A    between atoms: C7_10  and  N3_11 
REMARK    3  A    between atoms: N3_11  and  C8_12 
REMARK    4  A    between atoms: C15_20  and  C16_21 
REMARK       I    between atoms: C16_21  and  N4_23 
REMARK       I    between atoms: N4_23  and  C17_24 
REMARK    5  A    between atoms: C17_24  and  O4_26 
ROOT
HETATM    1  C2  UNL     1      23.598   6.128  50.995  1.00  0.00     0.161 C 
HETATM    2  C3  UNL     1      24.141   7.366  50.404  1.00  0.00     0.008 C 
HETATM    3  C4  UNL     1      25.219   7.576  49.669  1.00  0.00     0.031 C 
HETATM    4  C5  UNL     1      25.972   6.355  49.418  1.00  0.00     0.069 A 
HETATM    5  N1  UNL     1      27.118   6.556  48.719  1.00  0.00    -0.241 NA
HETATM    6  C6  UNL     1      27.924   5.510  48.479  1.00  0.00     0.235 A 
HETATM    7  N2  UNL     1      27.557   4.330  48.940  1.00  0.00    -0.224 NA
HETATM    8  C7  UNL     1      26.441   4.086  49.631  1.00  0.00     0.139 A 
HETATM    9  C14 UNL     1      25.555   5.130  49.914  1.00  0.00     0.033 A 
HETATM   10  C15 UNL     1      24.290   4.869  50.634  1.00  0.00     0.150 C 
ENDROOT
BRANCH   8  11
HETATM   11  N3  UNL     1      26.186   2.769  50.073  1.00  0.00    -0.340 N 
HETATM   12  H8  UNL     1      25.870   2.124  49.322  1.00  0.00     0.167 HD
BRANCH  11  13
HETATM   13  C8  UNL     1      26.281   2.205  51.362  1.00  0.00     0.035 A 
HETATM   14  C9  UNL     1      27.296   2.372  52.273  1.00  0.00     0.029 A 
HETATM   15  C10 UNL     1      27.348   1.796  53.521  1.00  0.00     0.004 A 
HETATM   16  C11 UNL     1      26.312   0.995  53.888  1.00  0.00     0.019 A 
HETATM   17  C12 UNL     1      25.255   0.770  53.043  1.00  0.00     0.013 A 
HETATM   18 BR1  UNL     1      23.836  -0.349  53.591  1.00  0.00    -0.051 Br
HETATM   19  C13 UNL     1      25.271   1.375  51.821  1.00  0.00     0.048 A 
ENDBRANCH  11  13
ENDBRANCH   8  11
BRANCH  10  20
HETATM   20  C16 UNL     1      23.447   4.010  49.737  1.00  0.00     0.237 C 
HETATM   21  O2  UNL     1      22.878   2.866  49.649  1.00  0.00    -0.272 OA
HETATM   22  N4  UNL     1      23.195   4.770  48.536  1.00  0.00    -0.272 N 
HETATM   23  C17 UNL     1      22.423   4.307  47.421  1.00  0.00     0.366 C 
HETATM   24  H14 UNL     1      23.500   5.732  48.265  1.00  0.00     0.174 HD
HETATM   25  O3  UNL     1      21.931   3.156  47.496  1.00  0.00    -0.238 OA
BRANCH  23  26
HETATM   26  O4  UNL     1      22.123   4.936  46.247  1.00  0.00    -0.309 OA
HETATM   27  C18 UNL     1      21.445   6.196  46.265  1.00  0.00     0.215 C 
ENDBRANCH  23  26
ENDBRANCH  10  20
BRANCH   1  28
HETATM   28  O1  UNL     1      22.211   6.033  50.832  1.00  0.00    -0.386 OA
HETATM   29  C1  UNL     1      21.672   7.335  50.769  1.00  0.00     0.202 C 
ENDBRANCH   1  28
TORSDOF 5
ENDMDL
