MODEL 1
REMARK VINA RESULT:      -8.2      0.000      0.000
REMARK  2 active torsions:
REMARK  status: ('A' for Active; 'I' for Inactive)
REMARK    1  A    between atoms: C2_2  and  O1_3 
REMARK    2  A    between atoms: O1_3  and  C3_4 
ROOT
HETATM    1  C3  UNL     1      23.855   4.416  49.974  1.00  0.00     0.132 C 
HETATM    2  C4  UNL     1      23.912   3.973  51.279  1.00  0.00     0.082 C 
HETATM    3  C5  UNL     1      22.688   4.505  51.573  1.00  0.00     0.150 C 
HETATM    4  N1  UNL     1      21.377   4.557  51.858  1.00  0.00    -0.252 NA
HETATM    5  C6  UNL     1      20.641   3.544  52.324  1.00  0.00     0.232 C 
HETATM    6  N2  UNL     1      21.402   2.438  52.393  1.00  0.00    -0.246 NA
HETATM    7  C7  UNL     1      21.760   1.853  51.214  1.00  0.00     0.041 C 
HETATM    8  C8  UNL     1      22.372   2.103  50.017  1.00  0.00     0.067 C 
HETATM    9  C9  UNL     1      22.382   2.918  48.917  1.00  0.00     0.107 C 
HETATM   10  C10 UNL     1      23.115   4.070  48.888  1.00  0.00     0.138 C 
HETATM   11  O2  UNL     1      23.199   4.963  47.841  1.00  0.00    -0.344 OA
HETATM   12  C11 UNL     1      22.231   4.857  46.800  1.00  0.00     0.202 C 
HETATM   13  C12 UNL     1      21.830   3.440  46.578  1.00  0.00     0.202 C 
HETATM   14  O3  UNL     1      21.683   2.679  47.767  1.00  0.00    -0.346 OA
HETATM   15  C13 UNL     1      21.240   0.487  51.444  1.00  0.00     0.097 C 
HETATM   16  C14 UNL     1      22.099  -0.313  52.315  1.00  0.00     0.181 A 
HETATM   17  C15 UNL     1      23.220   0.395  52.669  1.00  0.00     0.171 A 
HETATM   18  F1  UNL     1      23.164  -0.835  53.190  1.00  0.00    -0.378 F 
HETATM   19  C16 UNL     1      24.417   0.153  53.558  1.00  0.00     0.058 C 
HETATM   20 CL1  UNL     1      25.058  -1.160  54.659  1.00  0.00    -0.085 Cl
HETATM   21  C17 UNL     1      25.227   1.260  53.495  1.00  0.00    -0.045 C 
HETATM   22  C18 UNL     1      26.396   0.935  54.412  1.00  0.00     0.046 C 
HETATM   23  C19 UNL     1      25.626   2.604  53.031  1.00  0.00     0.155 C 
HETATM   24  N3  UNL     1      24.813   3.278  52.121  1.00  0.00    -0.382 N 
HETATM   25  H21 UNL     1      25.405   3.259  51.233  1.00  0.00     0.160 HD
ENDROOT
BRANCH   1  26
HETATM   26  O1  UNL     1      24.842   5.369  50.137  1.00  0.00    -0.346 OA
BRANCH  26  27
HETATM   27  C2  UNL     1      25.973   5.550  49.341  1.00  0.00     0.171 C 
HETATM   28  C1  UNL     1      26.785   4.250  49.253  1.00  0.00     0.034 C 
ENDBRANCH  26  27
ENDBRANCH   1  26
TORSDOF 2
ENDMDL
MODEL 2
REMARK VINA RESULT:      -7.8      3.282      5.779
REMARK  2 active torsions:
REMARK  status: ('A' for Active; 'I' for Inactive)
REMARK    1  A    between atoms: C2_2  and  O1_3 
REMARK    2  A    between atoms: O1_3  and  C3_4 
ROOT
HETATM    1  C3  UNL     1      18.823   0.893  51.553  1.00  0.00     0.132 C 
HETATM    2  C4  UNL     1      20.174   0.707  51.346  1.00  0.00     0.082 C 
HETATM    3  C5  UNL     1      20.087   1.100  50.040  1.00  0.00     0.150 C 
HETATM    4  N1  UNL     1      20.229   1.869  48.949  1.00  0.00    -0.252 NA
HETATM    5  C6  UNL     1      21.097   2.874  48.812  1.00  0.00     0.232 C 
HETATM    6  N2  UNL     1      21.759   3.048  49.969  1.00  0.00    -0.246 NA
HETATM    7  C7  UNL     1      21.060   3.576  51.015  1.00  0.00     0.041 C 
HETATM    8  C8  UNL     1      19.939   3.393  51.776  1.00  0.00     0.067 C 
HETATM    9  C9  UNL     1      18.580   3.224  51.740  1.00  0.00     0.107 C 
HETATM   10  C10 UNL     1      18.018   1.985  51.628  1.00  0.00     0.138 C 
HETATM   11  O2  UNL     1      16.671   1.696  51.581  1.00  0.00    -0.344 OA
HETATM   12  C11 UNL     1      15.770   2.773  51.336  1.00  0.00     0.202 C 
HETATM   13  C12 UNL     1      16.269   4.042  51.937  1.00  0.00     0.202 C 
HETATM   14  O3  UNL     1      17.669   4.241  51.809  1.00  0.00    -0.346 OA
HETATM   15  C13 UNL     1      21.917   4.742  51.327  1.00  0.00     0.097 C 
HETATM   16  C14 UNL     1      23.121   4.383  52.073  1.00  0.00     0.181 A 
HETATM   17  C15 UNL     1      23.135   3.039  52.349  1.00  0.00     0.171 A 
HETATM   18  F1  UNL     1      24.200   3.703  52.810  1.00  0.00    -0.378 F 
HETATM   19  C16 UNL     1      24.093   2.081  53.017  1.00  0.00     0.058 C 
HETATM   20 CL1  UNL     1      25.741   2.128  53.809  1.00  0.00    -0.085 Cl
HETATM   21  C17 UNL     1      23.528   0.830  52.999  1.00  0.00    -0.045 C 
HETATM   22  C18 UNL     1      24.552  -0.065  53.683  1.00  0.00     0.046 C 
HETATM   23  C19 UNL     1      22.475  -0.161  52.701  1.00  0.00     0.155 C 
HETATM   24  N3  UNL     1      21.303   0.260  52.075  1.00  0.00    -0.382 N 
HETATM   25  H21 UNL     1      20.583   0.164  52.856  1.00  0.00     0.160 HD
ENDROOT
BRANCH   1  26
HETATM   26  O1  UNL     1      18.541  -0.456  51.665  1.00  0.00    -0.346 OA
BRANCH  26  27
HETATM   27  C2  UNL     1      18.135  -1.135  52.813  1.00  0.00     0.171 C 
HETATM   28  C1  UNL     1      16.698  -1.651  52.656  1.00  0.00     0.034 C 
ENDBRANCH  26  27
ENDBRANCH   1  26
TORSDOF 2
ENDMDL
MODEL 3
REMARK VINA RESULT:      -7.5      3.534      6.466
REMARK  2 active torsions:
REMARK  status: ('A' for Active; 'I' for Inactive)
REMARK    1  A    between atoms: C2_2  and  O1_3 
REMARK    2  A    between atoms: O1_3  and  C3_4 
ROOT
HETATM    1  C3  UNL     1      24.464   0.869  52.460  1.00  0.00     0.132 C 
HETATM    2  C4  UNL     1      23.441   1.596  51.885  1.00  0.00     0.082 C 
HETATM    3  C5  UNL     1      23.445   2.512  52.898  1.00  0.00     0.150 C 
HETATM    4  N1  UNL     1      23.643   3.676  53.538  1.00  0.00    -0.252 NA
HETATM    5  C6  UNL     1      23.822   4.864  52.954  1.00  0.00     0.232 C 
HETATM    6  N2  UNL     1      23.849   4.703  51.620  1.00  0.00    -0.246 NA
HETATM    7  C7  UNL     1      24.946   4.091  51.087  1.00  0.00     0.041 C 
HETATM    8  C8  UNL     1      25.698   2.951  51.160  1.00  0.00     0.067 C 
HETATM    9  C9  UNL     1      26.397   2.127  52.001  1.00  0.00     0.107 C 
HETATM   10  C10 UNL     1      25.790   1.091  52.652  1.00  0.00     0.138 C 
HETATM   11  O2  UNL     1      26.391   0.202  53.518  1.00  0.00    -0.344 OA
HETATM   12  C11 UNL     1      27.681   0.536  54.022  1.00  0.00     0.202 C 
HETATM   13  C12 UNL     1      28.477   1.290  53.012  1.00  0.00     0.202 C 
HETATM   14  O3  UNL     1      27.731   2.245  52.273  1.00  0.00    -0.346 OA
HETATM   15  C13 UNL     1      25.369   5.130  50.123  1.00  0.00     0.097 C 
HETATM   16  C14 UNL     1      24.559   5.146  48.906  1.00  0.00     0.181 A 
HETATM   17  C15 UNL     1      23.622   4.144  48.938  1.00  0.00     0.171 A 
HETATM   18  F1  UNL     1      23.583   4.894  47.832  1.00  0.00    -0.378 F 
HETATM   19  C16 UNL     1      22.496   3.686  48.041  1.00  0.00     0.058 C 
HETATM   20 CL1  UNL     1      21.727   4.177  46.456  1.00  0.00    -0.085 Cl
HETATM   21  C17 UNL     1      21.907   2.590  48.621  1.00  0.00    -0.045 C 
HETATM   22  C18 UNL     1      20.792   2.199  47.662  1.00  0.00     0.046 C 
HETATM   23  C19 UNL     1      21.738   1.548  49.653  1.00  0.00     0.155 C 
HETATM   24  N3  UNL     1      22.607   1.524  50.743  1.00  0.00    -0.382 N 
HETATM   25  H21 UNL     1      23.182   0.646  50.553  1.00  0.00     0.160 HD
ENDROOT
BRANCH   1  26
HETATM   26  O1  UNL     1      23.662  -0.206  52.792  1.00  0.00    -0.346 OA
BRANCH  26  27
HETATM   27  C2  UNL     1      23.391  -0.686  54.073  1.00  0.00     0.171 C 
HETATM   28  C1  UNL     1      21.880  -0.871  54.272  1.00  0.00     0.034 C 
ENDBRANCH  26  27
ENDBRANCH   1  26
TORSDOF 2
ENDMDL
MODEL 4
REMARK VINA RESULT:      -7.4      7.649     10.950
REMARK  2 active torsions:
REMARK  status: ('A' for Active; 'I' for Inactive)
REMARK    1  A    between atoms: C2_2  and  O1_3 
REMARK    2  A    between atoms: O1_3  and  C3_4 
ROOT
HETATM    1  C3  UNL     1      32.175   4.465  46.619  1.00  0.00     0.132 C 
HETATM    2  C4  UNL     1      31.367   5.032  47.583  1.00  0.00     0.082 C 
HETATM    3  C5  UNL     1      32.439   5.533  48.268  1.00  0.00     0.150 C 
HETATM    4  N1  UNL     1      33.309   6.432  48.753  1.00  0.00    -0.252 NA
HETATM    5  C6  UNL     1      33.097   7.747  48.854  1.00  0.00     0.232 C 
HETATM    6  N2  UNL     1      31.899   8.043  48.321  1.00  0.00    -0.246 NA
HETATM    7  C7  UNL     1      31.780   7.961  46.965  1.00  0.00     0.041 C 
HETATM    8  C8  UNL     1      31.950   7.110  45.908  1.00  0.00     0.067 C 
HETATM    9  C9  UNL     1      32.835   6.279  45.275  1.00  0.00     0.107 C 
HETATM   10  C10 UNL     1      32.954   4.964  45.623  1.00  0.00     0.138 C 
HETATM   11  O2  UNL     1      33.807   4.039  45.059  1.00  0.00    -0.344 OA
HETATM   12  C11 UNL     1      34.868   4.528  44.242  1.00  0.00     0.202 C 
HETATM   13  C12 UNL     1      34.459   5.756  43.504  1.00  0.00     0.202 C 
HETATM   14  O3  UNL     1      33.669   6.660  44.261  1.00  0.00    -0.346 OA
HETATM   15  C13 UNL     1      31.306   9.331  46.671  1.00  0.00     0.097 C 
HETATM   16  C14 UNL     1      29.888   9.523  46.967  1.00  0.00     0.181 A 
HETATM   17  C15 UNL     1      29.324   8.351  47.405  1.00  0.00     0.171 A 
HETATM   18  F1  UNL     1      28.473   9.380  47.352  1.00  0.00    -0.378 F 
HETATM   19  C16 UNL     1      27.964   7.923  47.901  1.00  0.00     0.058 C 
HETATM   20 CL1  UNL     1      26.327   8.676  48.218  1.00  0.00    -0.085 Cl
HETATM   21  C17 UNL     1      28.015   6.581  48.187  1.00  0.00    -0.045 C 
HETATM   22  C18 UNL     1      26.617   6.238  48.678  1.00  0.00     0.046 C 
HETATM   23  C19 UNL     1      28.657   5.255  48.284  1.00  0.00     0.155 C 
HETATM   24  N3  UNL     1      29.988   5.114  47.892  1.00  0.00    -0.382 N 
HETATM   25  H21 UNL     1      29.899   4.537  46.998  1.00  0.00     0.160 HD
ENDROOT
BRANCH   1  26
HETATM   26  O1  UNL     1      31.921   3.165  47.012  1.00  0.00    -0.346 OA
BRANCH  26  27
HETATM   27  C2  UNL     1      32.846   2.128  47.126  1.00  0.00     0.171 C 
HETATM   28  C1  UNL     1      32.188   0.779  46.800  1.00  0.00     0.034 C 
ENDBRANCH  26  27
ENDBRANCH   1  26
TORSDOF 2
ENDMDL
MODEL 5
REMARK VINA RESULT:      -7.3      6.648      9.798
REMARK  2 active torsions:
REMARK  status: ('A' for Active; 'I' for Inactive)
REMARK    1  A    between atoms: C2_2  and  O1_3 
REMARK    2  A    between atoms: O1_3  and  C3_4 
ROOT
HETATM    1  C3  UNL     1      31.477   5.732  47.170  1.00  0.00     0.132 C 
HETATM    2  C4  UNL     1      30.474   5.881  48.106  1.00  0.00     0.082 C 
HETATM    3  C5  UNL     1      31.203   6.783  48.828  1.00  0.00     0.150 C 
HETATM    4  N1  UNL     1      31.586   7.962  49.344  1.00  0.00    -0.252 NA
HETATM    5  C6  UNL     1      30.824   9.055  49.438  1.00  0.00     0.232 C 
HETATM    6  N2  UNL     1      29.633   8.816  48.864  1.00  0.00    -0.246 NA
HETATM    7  C7  UNL     1      29.604   8.711  47.504  1.00  0.00     0.041 C 
HETATM    8  C8  UNL     1      30.157   8.032  46.453  1.00  0.00     0.067 C 
HETATM    9  C9  UNL     1      31.333   7.673  45.851  1.00  0.00     0.107 C 
HETATM   10  C10 UNL     1      31.996   6.532  46.203  1.00  0.00     0.138 C 
HETATM   11  O2  UNL     1      33.181   6.074  45.668  1.00  0.00    -0.344 OA
HETATM   12  C11 UNL     1      33.953   6.984  44.889  1.00  0.00     0.202 C 
HETATM   13  C12 UNL     1      33.079   7.928  44.138  1.00  0.00     0.202 C 
HETATM   14  O3  UNL     1      31.953   8.392  44.867  1.00  0.00    -0.346 OA
HETATM   15  C13 UNL     1      28.596   9.749  47.194  1.00  0.00     0.097 C 
HETATM   16  C14 UNL     1      27.225   9.306  47.441  1.00  0.00     0.181 A 
HETATM   17  C15 UNL     1      27.207   7.999  47.858  1.00  0.00     0.171 A 
HETATM   18  F1  UNL     1      25.998   8.562  47.776  1.00  0.00    -0.378 F 
HETATM   19  C16 UNL     1      26.149   7.019  48.306  1.00  0.00     0.058 C 
HETATM   20 CL1  UNL     1      24.339   6.989  48.566  1.00  0.00    -0.085 Cl
HETATM   21  C17 UNL     1      26.765   5.826  48.593  1.00  0.00    -0.045 C 
HETATM   22  C18 UNL     1      25.636   4.906  49.035  1.00  0.00     0.046 C 
HETATM   23  C19 UNL     1      27.912   4.905  48.712  1.00  0.00     0.155 C 
HETATM   24  N3  UNL     1      29.185   5.356  48.366  1.00  0.00    -0.382 N 
HETATM   25  H21 UNL     1      29.381   4.811  47.470  1.00  0.00     0.160 HD
ENDROOT
BRANCH   1  26
HETATM   26  O1  UNL     1      31.796   4.443  47.554  1.00  0.00    -0.346 OA
BRANCH  26  27
HETATM   27  C2  UNL     1      31.792   3.303  46.751  1.00  0.00     0.171 C 
HETATM   28  C1  UNL     1      32.942   2.363  47.142  1.00  0.00     0.034 C 
ENDBRANCH  26  27
ENDBRANCH   1  26
TORSDOF 2
ENDMDL
MODEL 6
REMARK VINA RESULT:      -7.2      7.185     10.296
REMARK  2 active torsions:
REMARK  status: ('A' for Active; 'I' for Inactive)
REMARK    1  A    between atoms: C2_2  and  O1_3 
REMARK    2  A    between atoms: O1_3  and  C3_4 
ROOT
HETATM    1  C3  UNL     1      28.660   7.596  47.082  1.00  0.00     0.132 C 
HETATM    2  C4  UNL     1      29.960   7.860  46.703  1.00  0.00     0.082 C 
HETATM    3  C5  UNL     1      30.322   8.203  47.976  1.00  0.00     0.150 C 
HETATM    4  N1  UNL     1      30.903   8.113  49.183  1.00  0.00    -0.252 NA
HETATM    5  C6  UNL     1      31.935   7.324  49.493  1.00  0.00     0.232 C 
HETATM    6  N2  UNL     1      32.255   6.573  48.426  1.00  0.00    -0.246 NA
HETATM    7  C7  UNL     1      31.387   5.579  48.078  1.00  0.00     0.041 C 
HETATM    8  C8  UNL     1      30.080   5.342  47.753  1.00  0.00     0.067 C 
HETATM    9  C9  UNL     1      28.782   5.507  48.156  1.00  0.00     0.107 C 
HETATM   10  C10 UNL     1      28.070   6.625  47.828  1.00  0.00     0.138 C 
HETATM   11  O2  UNL     1      26.764   6.898  48.177  1.00  0.00    -0.344 OA
HETATM   12  C11 UNL     1      26.173   6.107  49.204  1.00  0.00     0.202 C 
HETATM   13  C12 UNL     1      26.690   4.709  49.174  1.00  0.00     0.202 C 
HETATM   14  O3  UNL     1      28.080   4.604  48.904  1.00  0.00    -0.346 OA
HETATM   15  C13 UNL     1      32.306   4.420  48.110  1.00  0.00     0.097 C 
HETATM   16  C14 UNL     1      33.163   4.337  46.929  1.00  0.00     0.181 A 
HETATM   17  C15 UNL     1      32.864   5.341  46.044  1.00  0.00     0.171 A 
HETATM   18  F1  UNL     1      33.850   4.534  45.641  1.00  0.00    -0.378 F 
HETATM   19  C16 UNL     1      33.408   5.811  44.716  1.00  0.00     0.058 C 
HETATM   20 CL1  UNL     1      34.740   5.357  43.548  1.00  0.00    -0.085 Cl
HETATM   21  C17 UNL     1      32.664   6.891  44.307  1.00  0.00    -0.045 C 
HETATM   22  C18 UNL     1      33.276   7.298  42.974  1.00  0.00     0.046 C 
HETATM   23  C19 UNL     1      31.586   7.894  44.415  1.00  0.00     0.155 C 
HETATM   24  N3  UNL     1      30.736   7.861  45.519  1.00  0.00    -0.382 N 
HETATM   25  H21 UNL     1      29.816   7.538  45.085  1.00  0.00     0.160 HD
ENDROOT
BRANCH   1  26
HETATM   26  O1  UNL     1      28.128   8.690  46.426  1.00  0.00    -0.346 OA
BRANCH  26  27
HETATM   27  C2  UNL     1      27.450   8.690  45.208  1.00  0.00     0.171 C 
HETATM   28  C1  UNL     1      25.938   8.829  45.431  1.00  0.00     0.034 C 
ENDBRANCH  26  27
ENDBRANCH   1  26
TORSDOF 2
ENDMDL
MODEL 7
REMARK VINA RESULT:      -7.1      7.719     10.697
REMARK  2 active torsions:
REMARK  status: ('A' for Active; 'I' for Inactive)
REMARK    1  A    between atoms: C2_2  and  O1_3 
REMARK    2  A    between atoms: O1_3  and  C3_4 
ROOT
HETATM    1  C3  UNL     1      29.880   8.550  47.864  1.00  0.00     0.132 C 
HETATM    2  C4  UNL     1      31.203   8.344  47.528  1.00  0.00     0.082 C 
HETATM    3  C5  UNL     1      31.525   7.959  48.799  1.00  0.00     0.150 C 
HETATM    4  N1  UNL     1      31.866   7.157  49.820  1.00  0.00    -0.252 NA
HETATM    5  C6  UNL     1      32.416   5.945  49.706  1.00  0.00     0.232 C 
HETATM    6  N2  UNL     1      32.506   5.619  48.405  1.00  0.00    -0.246 NA
HETATM    7  C7  UNL     1      31.343   5.334  47.751  1.00  0.00     0.041 C 
HETATM    8  C8  UNL     1      30.108   5.843  47.456  1.00  0.00     0.067 C 
HETATM    9  C9  UNL     1      28.969   6.386  47.987  1.00  0.00     0.107 C 
HETATM   10  C10 UNL     1      28.849   7.730  48.194  1.00  0.00     0.138 C 
HETATM   11  O2  UNL     1      27.755   8.384  48.720  1.00  0.00    -0.344 OA
HETATM   12  C11 UNL     1      26.766   7.598  49.380  1.00  0.00     0.202 C 
HETATM   13  C12 UNL     1      26.634   6.255  48.748  1.00  0.00     0.202 C 
HETATM   14  O3  UNL     1      27.866   5.668  48.356  1.00  0.00    -0.346 OA
HETATM   15  C13 UNL     1      31.666   3.983  47.242  1.00  0.00     0.097 C 
HETATM   16  C14 UNL     1      32.536   4.006  46.068  1.00  0.00     0.181 A 
HETATM   17  C15 UNL     1      32.803   5.298  45.691  1.00  0.00     0.171 A 
HETATM   18  F1  UNL     1      33.387   4.373  44.923  1.00  0.00    -0.378 F 
HETATM   19  C16 UNL     1      33.646   5.964  44.630  1.00  0.00     0.058 C 
HETATM   20 CL1  UNL     1      34.782   5.474  43.282  1.00  0.00    -0.085 Cl
HETATM   21  C17 UNL     1      33.491   7.323  44.750  1.00  0.00    -0.045 C 
HETATM   22  C18 UNL     1      34.369   7.909  43.655  1.00  0.00     0.046 C 
HETATM   23  C19 UNL     1      32.942   8.562  45.335  1.00  0.00     0.155 C 
HETATM   24  N3  UNL     1      32.037   8.472  46.392  1.00  0.00    -0.382 N 
HETATM   25  H21 UNL     1      31.125   8.785  45.934  1.00  0.00     0.160 HD
ENDROOT
BRANCH   1  26
HETATM   26  O1  UNL     1      29.950   9.925  47.748  1.00  0.00    -0.346 OA
BRANCH  26  27
HETATM   27  C2  UNL     1      29.718  10.864  48.753  1.00  0.00     0.171 C 
HETATM   28  C1  UNL     1      30.912  11.821  48.884  1.00  0.00     0.034 C 
ENDBRANCH  26  27
ENDBRANCH   1  26
TORSDOF 2
ENDMDL
MODEL 8
REMARK VINA RESULT:      -7.1      3.676      5.758
REMARK  2 active torsions:
REMARK  status: ('A' for Active; 'I' for Inactive)
REMARK    1  A    between atoms: C2_2  and  O1_3 
REMARK    2  A    between atoms: O1_3  and  C3_4 
ROOT
HETATM    1  C3  UNL     1      23.586   1.348  51.840  1.00  0.00     0.132 C 
HETATM    2  C4  UNL     1      23.801   2.308  50.872  1.00  0.00     0.082 C 
HETATM    3  C5  UNL     1      22.990   1.668  49.976  1.00  0.00     0.150 C 
HETATM    4  N1  UNL     1      21.917   1.419  49.209  1.00  0.00    -0.252 NA
HETATM    5  C6  UNL     1      20.997   2.316  48.844  1.00  0.00     0.232 C 
HETATM    6  N2  UNL     1      21.270   3.494  49.430  1.00  0.00    -0.246 NA
HETATM    7  C7  UNL     1      21.064   3.585  50.776  1.00  0.00     0.041 C 
HETATM    8  C8  UNL     1      21.399   3.006  51.968  1.00  0.00     0.067 C 
HETATM    9  C9  UNL     1      21.437   1.828  52.665  1.00  0.00     0.107 C 
HETATM   10  C10 UNL     1      22.519   0.998  52.605  1.00  0.00     0.138 C 
HETATM   11  O2  UNL     1      22.667  -0.207  53.260  1.00  0.00    -0.344 OA
HETATM   12  C11 UNL     1      21.501  -0.803  53.823  1.00  0.00     0.202 C 
HETATM   13  C12 UNL     1      20.548   0.232  54.313  1.00  0.00     0.202 C 
HETATM   14  O3  UNL     1      20.431   1.368  53.469  1.00  0.00    -0.346 OA
HETATM   15  C13 UNL     1      20.141   4.741  50.811  1.00  0.00     0.097 C 
HETATM   16  C14 UNL     1      20.822   6.023  50.642  1.00  0.00     0.181 A 
HETATM   17  C15 UNL     1      22.178   5.839  50.542  1.00  0.00     0.171 A 
HETATM   18  F1  UNL     1      21.793   7.117  50.461  1.00  0.00    -0.378 F 
HETATM   19  C16 UNL     1      23.377   6.728  50.310  1.00  0.00     0.058 C 
HETATM   20 CL1  UNL     1      23.728   8.500  50.021  1.00  0.00    -0.085 Cl
HETATM   21  C17 UNL     1      24.502   5.941  50.324  1.00  0.00    -0.045 C 
HETATM   22  C18 UNL     1      25.652   6.908  50.083  1.00  0.00     0.046 C 
HETATM   23  C19 UNL     1      25.250   4.675  50.450  1.00  0.00     0.155 C 
HETATM   24  N3  UNL     1      24.552   3.496  50.711  1.00  0.00    -0.382 N 
HETATM   25  H21 UNL     1      24.844   3.279  51.714  1.00  0.00     0.160 HD
ENDROOT
BRANCH   1  26
HETATM   26  O1  UNL     1      24.868   0.836  51.775  1.00  0.00    -0.346 OA
BRANCH  26  27
HETATM   27  C2  UNL     1      25.837   0.872  52.776  1.00  0.00     0.171 C 
HETATM   28  C1  UNL     1      26.835  -0.282  52.605  1.00  0.00     0.034 C 
ENDBRANCH  26  27
ENDBRANCH   1  26
TORSDOF 2
ENDMDL
MODEL 9
REMARK VINA RESULT:      -7.1      2.655      4.818
REMARK  2 active torsions:
REMARK  status: ('A' for Active; 'I' for Inactive)
REMARK    1  A    between atoms: C2_2  and  O1_3 
REMARK    2  A    between atoms: O1_3  and  C3_4 
ROOT
HETATM    1  C3  UNL     1      19.589   3.780  50.492  1.00  0.00     0.132 C 
HETATM    2  C4  UNL     1      20.058   2.495  50.668  1.00  0.00     0.082 C 
HETATM    3  C5  UNL     1      20.718   2.511  49.471  1.00  0.00     0.150 C 
HETATM    4  N1  UNL     1      21.739   2.551  48.602  1.00  0.00    -0.252 NA
HETATM    5  C6  UNL     1      23.013   2.265  48.883  1.00  0.00     0.232 C 
HETATM    6  N2  UNL     1      23.129   2.003  50.196  1.00  0.00    -0.246 NA
HETATM    7  C7  UNL     1      23.002   3.053  51.057  1.00  0.00     0.041 C 
HETATM    8  C8  UNL     1      22.160   4.070  51.416  1.00  0.00     0.067 C 
HETATM    9  C9  UNL     1      21.448   5.144  50.954  1.00  0.00     0.107 C 
HETATM   10  C10 UNL     1      20.170   5.008  50.493  1.00  0.00     0.138 C 
HETATM   11  O2  UNL     1      19.362   6.014  50.006  1.00  0.00    -0.344 OA
HETATM   12  C11 UNL     1      19.976   7.257  49.675  1.00  0.00     0.202 C 
HETATM   13  C12 UNL     1      21.119   7.553  50.583  1.00  0.00     0.202 C 
HETATM   14  O3  UNL     1      21.920   6.426  50.906  1.00  0.00    -0.346 OA
HETATM   15  C13 UNL     1      24.286   2.940  51.783  1.00  0.00     0.097 C 
HETATM   16  C14 UNL     1      24.284   1.879  52.788  1.00  0.00     0.181 A 
HETATM   17  C15 UNL     1      23.054   1.272  52.846  1.00  0.00     0.171 A 
HETATM   18  F1  UNL     1      23.953   0.767  53.697  1.00  0.00    -0.378 F 
HETATM   19  C16 UNL     1      22.451   0.119  53.612  1.00  0.00     0.058 C 
HETATM   20 CL1  UNL     1      22.974  -1.119  54.853  1.00  0.00    -0.085 Cl
HETATM   21  C17 UNL     1      21.136  -0.003  53.237  1.00  0.00    -0.045 C 
HETATM   22  C18 UNL     1      20.611  -1.179  54.047  1.00  0.00     0.046 C 
HETATM   23  C19 UNL     1      19.915   0.366  52.493  1.00  0.00     0.155 C 
HETATM   24  N3  UNL     1      19.953   1.452  51.620  1.00  0.00    -0.382 N 
HETATM   25  H21 UNL     1      19.350   2.171  52.130  1.00  0.00     0.160 HD
ENDROOT
BRANCH   1  26
HETATM   26  O1  UNL     1      18.275   3.394  50.308  1.00  0.00    -0.346 OA
BRANCH  26  27
HETATM   27  C2  UNL     1      17.248   3.436  51.252  1.00  0.00     0.171 C 
HETATM   28  C1  UNL     1      16.033   4.190  50.695  1.00  0.00     0.034 C 
ENDBRANCH  26  27
ENDBRANCH   1  26
TORSDOF 2
ENDMDL
