MODEL 1
REMARK VINA RESULT:      -9.2      0.000      0.000
REMARK  8 active torsions:
REMARK  status: ('A' for Active; 'I' for Inactive)
REMARK    1  A    between atoms: O1_2  and  C2_3 
REMARK    2  A    between atoms: C6_9  and  O2_10 
REMARK    3  A    between atoms: O2_10  and  C7_11 
REMARK    4  A    between atoms: C9_13  and  O3_14 
REMARK    5  A    between atoms: N3_15  and  C10_16 
REMARK    6  A    between atoms: C10_16  and  N4_18 
REMARK    7  A    between atoms: N4_18  and  C11_19 
REMARK    8  A    between atoms: C21_30  and  O4_31 
ROOT
HETATM    1  C7  UNL     1      27.209   5.861  48.541  1.00  0.00     0.079 A 
HETATM    2  C8  UNL     1      26.173   6.439  49.124  1.00  0.00     0.063 A 
HETATM    3  C9  UNL     1      25.108   5.911  50.010  1.00  0.00     0.250 A 
HETATM    4  N3  UNL     1      25.350   4.495  50.197  1.00  0.00    -0.314 N 
HETATM    5  C17 UNL     1      26.440   3.798  49.606  1.00  0.00     0.096 A 
HETATM    6  C18 UNL     1      27.302   4.438  48.837  1.00  0.00     0.054 A 
ENDROOT
BRANCH   1   7
HETATM    7  O2  UNL     1      28.122   6.520  47.730  1.00  0.00    -0.291 OA
BRANCH   7   8
HETATM    8  C6  UNL     1      28.996   7.417  48.332  1.00  0.00     0.183 A 
HETATM    9  N2  UNL     1      28.659   8.664  48.775  1.00  0.00    -0.217 NA
HETATM   10  C5  UNL     1      29.629   9.425  49.343  1.00  0.00     0.236 A 
HETATM   11  N1  UNL     1      30.900   8.997  49.484  1.00  0.00    -0.241 NA
HETATM   12  C4  UNL     1      31.257   7.762  49.053  1.00  0.00     0.075 A 
HETATM   13  C3  UNL     1      32.559   7.326  49.197  1.00  0.00     0.072 A 
HETATM   14  C19 UNL     1      30.300   6.945  48.462  1.00  0.00     0.049 A 
HETATM   15  C2  UNL     1      32.947   6.059  48.760  1.00  0.00     0.103 A 
HETATM   16  C21 UNL     1      31.985   5.260  48.176  1.00  0.00     0.102 A 
HETATM   17  C20 UNL     1      30.678   5.687  48.026  1.00  0.00     0.057 A 
BRANCH  15  18
HETATM   18  O1  UNL     1      34.254   5.609  48.901  1.00  0.00    -0.353 OA
HETATM   19  C1  UNL     1      35.275   6.541  48.577  1.00  0.00     0.210 C 
ENDBRANCH  15  18
BRANCH  16  20
HETATM   20  O4  UNL     1      32.360   4.007  47.740  1.00  0.00    -0.353 OA
HETATM   21  C22 UNL     1      31.939   3.425  46.538  1.00  0.00     0.210 C 
ENDBRANCH  16  20
ENDBRANCH   7   8
ENDBRANCH   1   7
BRANCH   3  22
HETATM   22  O3  UNL     1      25.220   6.622  51.209  1.00  0.00    -0.373 OA
HETATM   23  H8  UNL     1      24.343   6.956  51.519  1.00  0.00     0.212 HD
ENDBRANCH   3  22
BRANCH   4  24
HETATM   24  C10 UNL     1      24.434   3.718  51.034  1.00  0.00     0.379 C 
HETATM   25  F1  UNL     1      24.120   2.508  50.431  1.00  0.00    -0.203 F 
BRANCH  24  26
HETATM   26  N4  UNL     1      25.124   3.378  52.280  1.00  0.00    -0.343 N 
HETATM   27  H10 UNL     1      25.563   4.004  53.019  1.00  0.00     0.164 HD
BRANCH  26  28
HETATM   28  C11 UNL     1      25.236   1.982  52.567  1.00  0.00     0.033 A 
HETATM   29  C12 UNL     1      26.349   1.239  52.222  1.00  0.00     0.029 A 
HETATM   30  C13 UNL     1      26.500  -0.106  52.478  1.00  0.00     0.004 A 
HETATM   31  C14 UNL     1      25.481  -0.774  53.124  1.00  0.00     0.024 A 
HETATM   32  C15 UNL     1      24.344  -0.086  53.495  1.00  0.00     0.036 A 
HETATM   33 CL1  UNL     1      23.032  -0.929  54.322  1.00  0.00    -0.084 Cl
HETATM   34  C16 UNL     1      24.263   1.244  53.209  1.00  0.00     0.053 A 
ENDBRANCH  26  28
ENDBRANCH  24  26
ENDBRANCH   4  24
TORSDOF 8
ENDMDL
MODEL 2
REMARK VINA RESULT:      -8.7      3.963      9.631
REMARK  8 active torsions:
REMARK  status: ('A' for Active; 'I' for Inactive)
REMARK    1  A    between atoms: O1_2  and  C2_3 
REMARK    2  A    between atoms: C6_9  and  O2_10 
REMARK    3  A    between atoms: O2_10  and  C7_11 
REMARK    4  A    between atoms: C9_13  and  O3_14 
REMARK    5  A    between atoms: N3_15  and  C10_16 
REMARK    6  A    between atoms: C10_16  and  N4_18 
REMARK    7  A    between atoms: N4_18  and  C11_19 
REMARK    8  A    between atoms: C21_30  and  O4_31 
ROOT
HETATM    1  C7  UNL     1      25.905   4.268  49.734  1.00  0.00     0.079 A 
HETATM    2  C8  UNL     1      27.002   4.366  49.003  1.00  0.00     0.063 A 
HETATM    3  C9  UNL     1      27.773   5.537  48.520  1.00  0.00     0.250 A 
HETATM    4  N3  UNL     1      27.108   6.733  48.996  1.00  0.00    -0.314 N 
HETATM    5  C17 UNL     1      25.925   6.713  49.786  1.00  0.00     0.096 A 
HETATM    6  C18 UNL     1      25.370   5.563  50.127  1.00  0.00     0.054 A 
ENDROOT
BRANCH   1   7
HETATM    7  O2  UNL     1      25.311   3.068  50.099  1.00  0.00    -0.291 OA
BRANCH   7   8
HETATM    8  C6  UNL     1      25.834   2.390  51.193  1.00  0.00     0.183 A 
HETATM    9  N2  UNL     1      27.127   2.477  51.625  1.00  0.00    -0.217 NA
HETATM   10  C5  UNL     1      27.488   1.749  52.713  1.00  0.00     0.236 A 
HETATM   11  N1  UNL     1      26.624   0.954  53.375  1.00  0.00    -0.241 NA
HETATM   12  C4  UNL     1      25.335   0.853  52.965  1.00  0.00     0.075 A 
HETATM   13  C3  UNL     1      24.452   0.038  53.644  1.00  0.00     0.072 A 
HETATM   14  C19 UNL     1      24.916   1.578  51.854  1.00  0.00     0.049 A 
HETATM   15  C2  UNL     1      23.123  -0.080  53.238  1.00  0.00     0.103 A 
HETATM   16  C21 UNL     1      22.723   0.645  52.134  1.00  0.00     0.102 A 
HETATM   17  C20 UNL     1      23.599   1.465  51.446  1.00  0.00     0.057 A 
BRANCH  15  18
HETATM   18  O1  UNL     1      22.224  -0.897  53.914  1.00  0.00    -0.353 OA
HETATM   19  C1  UNL     1      22.633  -1.349  55.196  1.00  0.00     0.210 C 
ENDBRANCH  15  18
BRANCH  16  20
HETATM   20  O4  UNL     1      21.411   0.535  51.725  1.00  0.00    -0.353 OA
HETATM   21  C22 UNL     1      20.556   1.621  51.495  1.00  0.00     0.210 C 
ENDBRANCH  16  20
ENDBRANCH   7   8
ENDBRANCH   1   7
BRANCH   3  22
HETATM   22  O3  UNL     1      29.054   5.402  49.065  1.00  0.00    -0.373 OA
HETATM   23  H8  UNL     1      29.475   6.281  49.232  1.00  0.00     0.212 HD
ENDBRANCH   3  22
BRANCH   4  24
HETATM   24  C10 UNL     1      27.663   8.043  48.655  1.00  0.00     0.379 C 
HETATM   25  F1  UNL     1      26.741   9.050  48.905  1.00  0.00    -0.203 F 
BRANCH  24  26
HETATM   26  N4  UNL     1      28.797   8.309  49.542  1.00  0.00    -0.343 N 
HETATM   27  H10 UNL     1      28.884   8.217  50.598  1.00  0.00     0.164 HD
BRANCH  26  28
HETATM   28  C11 UNL     1      29.990   8.770  48.903  1.00  0.00     0.033 A 
HETATM   29  C12 UNL     1      30.022   9.905  48.116  1.00  0.00     0.029 A 
HETATM   30  C13 UNL     1      31.147  10.386  47.483  1.00  0.00     0.004 A 
HETATM   31  C14 UNL     1      32.333   9.699  47.635  1.00  0.00     0.024 A 
HETATM   32  C15 UNL     1      32.367   8.558  48.410  1.00  0.00     0.036 A 
HETATM   33 CL1  UNL     1      33.879   7.671  48.612  1.00  0.00    -0.084 Cl
HETATM   34  C16 UNL     1      31.214   8.141  49.006  1.00  0.00     0.053 A 
ENDBRANCH  26  28
ENDBRANCH  24  26
ENDBRANCH   4  24
TORSDOF 8
ENDMDL
MODEL 3
REMARK VINA RESULT:      -8.4      4.054      9.756
REMARK  8 active torsions:
REMARK  status: ('A' for Active; 'I' for Inactive)
REMARK    1  A    between atoms: O1_2  and  C2_3 
REMARK    2  A    between atoms: C6_9  and  O2_10 
REMARK    3  A    between atoms: O2_10  and  C7_11 
REMARK    4  A    between atoms: C9_13  and  O3_14 
REMARK    5  A    between atoms: N3_15  and  C10_16 
REMARK    6  A    between atoms: C10_16  and  N4_18 
REMARK    7  A    between atoms: N4_18  and  C11_19 
REMARK    8  A    between atoms: C21_30  and  O4_31 
ROOT
HETATM    1  C7  UNL     1      25.898   3.926  49.911  1.00  0.00     0.079 A 
HETATM    2  C8  UNL     1      26.939   4.144  49.125  1.00  0.00     0.063 A 
HETATM    3  C9  UNL     1      27.534   5.391  48.587  1.00  0.00     0.250 A 
HETATM    4  N3  UNL     1      26.748   6.505  49.076  1.00  0.00    -0.314 N 
HETATM    5  C17 UNL     1      25.615   6.356  49.925  1.00  0.00     0.096 A 
HETATM    6  C18 UNL     1      25.225   5.154  50.309  1.00  0.00     0.054 A 
ENDROOT
BRANCH   1   7
HETATM    7  O2  UNL     1      25.476   2.670  50.323  1.00  0.00    -0.291 OA
BRANCH   7   8
HETATM    8  C6  UNL     1      24.114   2.473  50.514  1.00  0.00     0.183 A 
HETATM    9  N2  UNL     1      23.125   3.074  49.789  1.00  0.00    -0.217 NA
HETATM   10  C5  UNL     1      21.836   2.777  50.096  1.00  0.00     0.236 A 
HETATM   11  N1  UNL     1      21.503   1.919  51.080  1.00  0.00    -0.241 NA
HETATM   12  C4  UNL     1      22.468   1.310  51.813  1.00  0.00     0.075 A 
HETATM   13  C3  UNL     1      22.124   0.431  52.821  1.00  0.00     0.072 A 
HETATM   14  C19 UNL     1      23.803   1.581  51.538  1.00  0.00     0.049 A 
HETATM   15  C2  UNL     1      23.102  -0.205  53.586  1.00  0.00     0.103 A 
HETATM   16  C21 UNL     1      24.423   0.075  53.300  1.00  0.00     0.102 A 
HETATM   17  C20 UNL     1      24.778   0.953  52.293  1.00  0.00     0.057 A 
BRANCH  15  18
HETATM   18  O1  UNL     1      22.768  -1.092  54.603  1.00  0.00    -0.353 OA
HETATM   19  C1  UNL     1      21.440  -1.594  54.584  1.00  0.00     0.210 C 
ENDBRANCH  15  18
BRANCH  16  20
HETATM   20  O4  UNL     1      25.395  -0.550  54.051  1.00  0.00    -0.353 OA
HETATM   21  C22 UNL     1      26.325   0.117  54.860  1.00  0.00     0.210 C 
ENDBRANCH  16  20
ENDBRANCH   7   8
ENDBRANCH   1   7
BRANCH   3  22
HETATM   22  O3  UNL     1      28.846   5.427  49.070  1.00  0.00    -0.373 OA
HETATM   23  H8  UNL     1      29.132   4.546  49.417  1.00  0.00     0.212 HD
ENDBRANCH   3  22
BRANCH   4  24
HETATM   24  C10 UNL     1      27.118   7.866  48.688  1.00  0.00     0.379 C 
HETATM   25  F1  UNL     1      26.013   8.707  48.720  1.00  0.00    -0.203 F 
BRANCH  24  26
HETATM   26  N4  UNL     1      28.051   8.393  49.686  1.00  0.00    -0.343 N 
HETATM   27  H10 UNL     1      28.045   8.312  50.747  1.00  0.00     0.164 HD
BRANCH  26  28
HETATM   28  C11 UNL     1      29.154   9.142  49.171  1.00  0.00     0.033 A 
HETATM   29  C12 UNL     1      29.066  10.490  48.877  1.00  0.00     0.029 A 
HETATM   30  C13 UNL     1      30.102  11.250  48.380  1.00  0.00     0.004 A 
HETATM   31  C14 UNL     1      31.318  10.642  48.156  1.00  0.00     0.024 A 
HETATM   32  C15 UNL     1      31.470   9.298  48.431  1.00  0.00     0.036 A 
HETATM   33 CL1  UNL     1      33.022   8.508  48.147  1.00  0.00    -0.084 Cl
HETATM   34  C16 UNL     1      30.402   8.608  48.920  1.00  0.00     0.053 A 
ENDBRANCH  26  28
ENDBRANCH  24  26
ENDBRANCH   4  24
TORSDOF 8
ENDMDL
MODEL 4
REMARK VINA RESULT:      -8.2      1.567      2.041
REMARK  8 active torsions:
REMARK  status: ('A' for Active; 'I' for Inactive)
REMARK    1  A    between atoms: O1_2  and  C2_3 
REMARK    2  A    between atoms: C6_9  and  O2_10 
REMARK    3  A    between atoms: O2_10  and  C7_11 
REMARK    4  A    between atoms: C9_13  and  O3_14 
REMARK    5  A    between atoms: N3_15  and  C10_16 
REMARK    6  A    between atoms: C10_16  and  N4_18 
REMARK    7  A    between atoms: N4_18  and  C11_19 
REMARK    8  A    between atoms: C21_30  and  O4_31 
ROOT
HETATM    1  C7  UNL     1      27.135   5.958  48.526  1.00  0.00     0.079 A 
HETATM    2  C8  UNL     1      27.423   4.801  49.099  1.00  0.00     0.063 A 
HETATM    3  C9  UNL     1      26.643   3.916  49.998  1.00  0.00     0.250 A 
HETATM    4  N3  UNL     1      25.352   4.534  50.218  1.00  0.00    -0.314 N 
HETATM    5  C17 UNL     1      24.964   5.775  49.639  1.00  0.00     0.096 A 
HETATM    6  C18 UNL     1      25.799   6.433  48.853  1.00  0.00     0.054 A 
ENDROOT
BRANCH   1   7
HETATM    7  O2  UNL     1      28.000   6.660  47.699  1.00  0.00    -0.291 OA
BRANCH   7   8
HETATM    8  C6  UNL     1      28.883   7.554  48.292  1.00  0.00     0.183 A 
HETATM    9  N2  UNL     1      28.519   8.665  48.998  1.00  0.00    -0.217 NA
HETATM   10  C5  UNL     1      29.503   9.443  49.518  1.00  0.00     0.236 A 
HETATM   11  N1  UNL     1      30.812   9.159  49.365  1.00  0.00    -0.241 NA
HETATM   12  C4  UNL     1      31.197   8.061  48.669  1.00  0.00     0.075 A 
HETATM   13  C3  UNL     1      32.538   7.772  48.512  1.00  0.00     0.072 A 
HETATM   14  C19 UNL     1      30.227   7.232  48.115  1.00  0.00     0.049 A 
HETATM   15  C2  UNL     1      32.954   6.647  47.800  1.00  0.00     0.103 A 
HETATM   16  C21 UNL     1      31.979   5.835  47.256  1.00  0.00     0.102 A 
HETATM   17  C20 UNL     1      30.633   6.115  47.407  1.00  0.00     0.057 A 
BRANCH  15  18
HETATM   18  O1  UNL     1      34.301   6.346  47.636  1.00  0.00    -0.353 OA
HETATM   19  C1  UNL     1      34.952   5.762  48.754  1.00  0.00     0.210 C 
ENDBRANCH  15  18
BRANCH  16  20
HETATM   20  O4  UNL     1      32.381   4.722  46.550  1.00  0.00    -0.353 OA
HETATM   21  C22 UNL     1      32.214   3.401  46.987  1.00  0.00     0.210 C 
ENDBRANCH  16  20
ENDBRANCH   7   8
ENDBRANCH   1   7
BRANCH   3  22
HETATM   22  O3  UNL     1      26.529   2.695  49.326  1.00  0.00    -0.373 OA
HETATM   23  H8  UNL     1      25.852   2.736  48.605  1.00  0.00     0.212 HD
ENDBRANCH   3  22
BRANCH   4  24
HETATM   24  C10 UNL     1      24.377   3.866  51.081  1.00  0.00     0.379 C 
HETATM   25  F1  UNL     1      23.310   4.707  51.365  1.00  0.00    -0.203 F 
BRANCH  24  26
HETATM   26  N4  UNL     1      23.810   2.733  50.346  1.00  0.00    -0.343 N 
HETATM   27  H10 UNL     1      23.729   2.561  49.299  1.00  0.00     0.164 HD
BRANCH  26  28
HETATM   28  C11 UNL     1      23.273   1.678  51.147  1.00  0.00     0.033 A 
HETATM   29  C12 UNL     1      22.009   1.158  50.941  1.00  0.00     0.029 A 
HETATM   30  C13 UNL     1      21.451   0.143  51.688  1.00  0.00     0.004 A 
HETATM   31  C14 UNL     1      22.191  -0.404  52.715  1.00  0.00     0.024 A 
HETATM   32  C15 UNL     1      23.461   0.072  52.970  1.00  0.00     0.036 A 
HETATM   33 CL1  UNL     1      24.418  -0.619  54.281  1.00  0.00    -0.084 Cl
HETATM   34  C16 UNL     1      23.948   1.079  52.190  1.00  0.00     0.053 A 
ENDBRANCH  26  28
ENDBRANCH  24  26
ENDBRANCH   4  24
TORSDOF 8
ENDMDL
MODEL 5
REMARK VINA RESULT:      -8.1      5.535      8.351
REMARK  8 active torsions:
REMARK  status: ('A' for Active; 'I' for Inactive)
REMARK    1  A    between atoms: O1_2  and  C2_3 
REMARK    2  A    between atoms: C6_9  and  O2_10 
REMARK    3  A    between atoms: O2_10  and  C7_11 
REMARK    4  A    between atoms: C9_13  and  O3_14 
REMARK    5  A    between atoms: N3_15  and  C10_16 
REMARK    6  A    between atoms: C10_16  and  N4_18 
REMARK    7  A    between atoms: N4_18  and  C11_19 
REMARK    8  A    between atoms: C21_30  and  O4_31 
ROOT
HETATM    1  C7  UNL     1      22.141   2.604  51.922  1.00  0.00     0.079 A 
HETATM    2  C8  UNL     1      21.909   1.582  51.116  1.00  0.00     0.063 A 
HETATM    3  C9  UNL     1      20.775   1.265  50.215  1.00  0.00     0.250 A 
HETATM    4  N3  UNL     1      19.809   2.339  50.322  1.00  0.00    -0.314 N 
HETATM    5  C17 UNL     1      19.984   3.472  51.164  1.00  0.00     0.096 A 
HETATM    6  C18 UNL     1      21.071   3.590  51.906  1.00  0.00     0.054 A 
ENDROOT
BRANCH   1   7
HETATM    7  O2  UNL     1      23.277   2.741  52.707  1.00  0.00    -0.291 OA
BRANCH   7   8
HETATM    8  C6  UNL     1      24.511   2.745  52.069  1.00  0.00     0.183 A 
HETATM    9  N2  UNL     1      24.874   3.598  51.066  1.00  0.00    -0.217 NA
HETATM   10  C5  UNL     1      26.121   3.476  50.541  1.00  0.00     0.236 A 
HETATM   11  N1  UNL     1      27.003   2.553  50.973  1.00  0.00    -0.241 NA
HETATM   12  C4  UNL     1      26.666   1.696  51.968  1.00  0.00     0.075 A 
HETATM   13  C3  UNL     1      27.572   0.751  52.408  1.00  0.00     0.072 A 
HETATM   14  C19 UNL     1      25.400   1.780  52.537  1.00  0.00     0.049 A 
HETATM   15  C2  UNL     1      27.244  -0.139  53.430  1.00  0.00     0.103 A 
HETATM   16  C21 UNL     1      25.983  -0.043  53.985  1.00  0.00     0.102 A 
HETATM   17  C20 UNL     1      25.068   0.899  53.552  1.00  0.00     0.057 A 
BRANCH  15  18
HETATM   18  O1  UNL     1      28.147  -1.094  53.882  1.00  0.00    -0.353 OA
HETATM   19  C1  UNL     1      29.503  -0.681  53.968  1.00  0.00     0.210 C 
ENDBRANCH  15  18
BRANCH  16  20
HETATM   20  O4  UNL     1      25.651  -0.919  54.995  1.00  0.00    -0.353 OA
HETATM   21  C22 UNL     1      24.341  -1.200  55.405  1.00  0.00     0.210 C 
ENDBRANCH  16  20
ENDBRANCH   7   8
ENDBRANCH   1   7
BRANCH   3  22
HETATM   22  O3  UNL     1      21.321   1.181  48.930  1.00  0.00    -0.373 OA
HETATM   23  H8  UNL     1      20.634   1.316  48.231  1.00  0.00     0.212 HD
ENDBRANCH   3  22
BRANCH   4  24
HETATM   24  C10 UNL     1      18.578   2.275  49.533  1.00  0.00     0.379 C 
HETATM   25  F1  UNL     1      18.814   2.656  48.219  1.00  0.00    -0.203 F 
BRANCH  24  26
HETATM   26  N4  UNL     1      18.141   0.878  49.473  1.00  0.00    -0.343 N 
HETATM   27  H10 UNL     1      18.296   0.139  48.724  1.00  0.00     0.164 HD
BRANCH  26  28
HETATM   28  C11 UNL     1      17.380   0.417  50.591  1.00  0.00     0.033 A 
HETATM   29  C12 UNL     1      16.120   0.902  50.885  1.00  0.00     0.029 A 
HETATM   30  C13 UNL     1      15.352   0.487  51.951  1.00  0.00     0.004 A 
HETATM   31  C14 UNL     1      15.859  -0.481  52.792  1.00  0.00     0.024 A 
HETATM   32  C15 UNL     1      17.112  -1.006  52.551  1.00  0.00     0.036 A 
HETATM   33 CL1  UNL     1      17.773  -2.244  53.621  1.00  0.00    -0.084 Cl
HETATM   34  C16 UNL     1      17.816  -0.546  51.478  1.00  0.00     0.053 A 
ENDBRANCH  26  28
ENDBRANCH  24  26
ENDBRANCH   4  24
TORSDOF 8
ENDMDL
MODEL 6
REMARK VINA RESULT:      -8.1      2.304      3.429
REMARK  8 active torsions:
REMARK  status: ('A' for Active; 'I' for Inactive)
REMARK    1  A    between atoms: O1_2  and  C2_3 
REMARK    2  A    between atoms: C6_9  and  O2_10 
REMARK    3  A    between atoms: O2_10  and  C7_11 
REMARK    4  A    between atoms: C9_13  and  O3_14 
REMARK    5  A    between atoms: N3_15  and  C10_16 
REMARK    6  A    between atoms: C10_16  and  N4_18 
REMARK    7  A    between atoms: N4_18  and  C11_19 
REMARK    8  A    between atoms: C21_30  and  O4_31 
ROOT
HETATM    1  C7  UNL     1      27.070   5.820  48.645  1.00  0.00     0.079 A 
HETATM    2  C8  UNL     1      26.079   6.493  49.205  1.00  0.00     0.063 A 
HETATM    3  C9  UNL     1      25.006   6.084  50.143  1.00  0.00     0.250 A 
HETATM    4  N3  UNL     1      25.175   4.673  50.422  1.00  0.00    -0.314 N 
HETATM    5  C17 UNL     1      26.214   3.879  49.862  1.00  0.00     0.096 A 
HETATM    6  C18 UNL     1      27.093   4.418  49.035  1.00  0.00     0.054 A 
ENDROOT
BRANCH   1   7
HETATM    7  O2  UNL     1      28.000   6.372  47.775  1.00  0.00    -0.291 OA
BRANCH   7   8
HETATM    8  C6  UNL     1      29.319   6.455  48.201  1.00  0.00     0.183 A 
HETATM    9  N2  UNL     1      30.052   5.413  48.694  1.00  0.00    -0.217 NA
HETATM   10  C5  UNL     1      31.334   5.653  49.070  1.00  0.00     0.236 A 
HETATM   11  N1  UNL     1      31.903   6.871  48.974  1.00  0.00    -0.241 NA
HETATM   12  C4  UNL     1      31.196   7.921  48.488  1.00  0.00     0.075 A 
HETATM   13  C3  UNL     1      31.781   9.168  48.391  1.00  0.00     0.072 A 
HETATM   14  C19 UNL     1      29.878   7.726  48.090  1.00  0.00     0.049 A 
HETATM   15  C2  UNL     1      31.070  10.260  47.894  1.00  0.00     0.103 A 
HETATM   16  C21 UNL     1      29.762  10.051  47.503  1.00  0.00     0.102 A 
HETATM   17  C20 UNL     1      29.167   8.806  47.595  1.00  0.00     0.057 A 
BRANCH  15  18
HETATM   18  O1  UNL     1      31.648  11.520  47.791  1.00  0.00    -0.353 OA
HETATM   19  C1  UNL     1      32.872  11.590  47.076  1.00  0.00     0.210 C 
ENDBRANCH  15  18
BRANCH  16  20
HETATM   20  O4  UNL     1      29.052  11.124  47.010  1.00  0.00    -0.353 OA
HETATM   21  C22 UNL     1      28.727  11.309  45.660  1.00  0.00     0.210 C 
ENDBRANCH  16  20
ENDBRANCH   7   8
ENDBRANCH   1   7
BRANCH   3  22
HETATM   22  O3  UNL     1      25.182   6.867  51.288  1.00  0.00    -0.373 OA
HETATM   23  H8  UNL     1      25.095   7.832  51.089  1.00  0.00     0.212 HD
ENDBRANCH   3  22
BRANCH   4  24
HETATM   24  C10 UNL     1      24.237   4.006  51.326  1.00  0.00     0.379 C 
HETATM   25  F1  UNL     1      23.007   4.648  51.322  1.00  0.00    -0.203 F 
BRANCH  24  26
HETATM   26  N4  UNL     1      23.986   2.655  50.816  1.00  0.00    -0.343 N 
HETATM   27  H10 UNL     1      23.734   2.323  49.838  1.00  0.00     0.164 HD
BRANCH  26  28
HETATM   28  C11 UNL     1      24.092   1.600  51.774  1.00  0.00     0.033 A 
HETATM   29  C12 UNL     1      23.008   1.142  52.499  1.00  0.00     0.029 A 
HETATM   30  C13 UNL     1      23.064   0.128  53.431  1.00  0.00     0.004 A 
HETATM   31  C14 UNL     1      24.276  -0.483  53.669  1.00  0.00     0.024 A 
HETATM   32  C15 UNL     1      25.396  -0.071  52.976  1.00  0.00     0.036 A 
HETATM   33 CL1  UNL     1      26.954  -0.845  53.272  1.00  0.00    -0.084 Cl
HETATM   34  C16 UNL     1      25.266   0.938  52.069  1.00  0.00     0.053 A 
ENDBRANCH  26  28
ENDBRANCH  24  26
ENDBRANCH   4  24
TORSDOF 8
ENDMDL
MODEL 7
REMARK VINA RESULT:      -8.0      5.480     10.783
REMARK  8 active torsions:
REMARK  status: ('A' for Active; 'I' for Inactive)
REMARK    1  A    between atoms: O1_2  and  C2_3 
REMARK    2  A    between atoms: C6_9  and  O2_10 
REMARK    3  A    between atoms: O2_10  and  C7_11 
REMARK    4  A    between atoms: C9_13  and  O3_14 
REMARK    5  A    between atoms: N3_15  and  C10_16 
REMARK    6  A    between atoms: C10_16  and  N4_18 
REMARK    7  A    between atoms: N4_18  and  C11_19 
REMARK    8  A    between atoms: C21_30  and  O4_31 
ROOT
HETATM    1  C7  UNL     1      21.796   2.832  51.706  1.00  0.00     0.079 A 
HETATM    2  C8  UNL     1      22.730   3.554  52.302  1.00  0.00     0.063 A 
HETATM    3  C9  UNL     1      24.180   3.716  52.041  1.00  0.00     0.250 A 
HETATM    4  N3  UNL     1      24.521   2.883  50.906  1.00  0.00    -0.314 N 
HETATM    5  C17 UNL     1      23.578   2.077  50.209  1.00  0.00     0.096 A 
HETATM    6  C18 UNL     1      22.312   2.057  50.586  1.00  0.00     0.054 A 
ENDROOT
BRANCH   1   7
HETATM    7  O2  UNL     1      20.463   2.801  52.090  1.00  0.00    -0.291 OA
BRANCH   7   8
HETATM    8  C6  UNL     1      19.888   1.561  52.340  1.00  0.00     0.183 A 
HETATM    9  N2  UNL     1      20.259   0.712  53.344  1.00  0.00    -0.217 NA
HETATM   10  C5  UNL     1      19.599  -0.469  53.460  1.00  0.00     0.236 A 
HETATM   11  N1  UNL     1      18.600  -0.828  52.629  1.00  0.00    -0.241 NA
HETATM   12  C4  UNL     1      18.214  -0.000  51.626  1.00  0.00     0.075 A 
HETATM   13  C3  UNL     1      17.190  -0.370  50.776  1.00  0.00     0.072 A 
HETATM   14  C19 UNL     1      18.860   1.220  51.465  1.00  0.00     0.049 A 
HETATM   15  C2  UNL     1      16.779   0.467  49.739  1.00  0.00     0.103 A 
HETATM   16  C21 UNL     1      17.430   1.675  49.592  1.00  0.00     0.102 A 
HETATM   17  C20 UNL     1      18.456   2.055  50.437  1.00  0.00     0.057 A 
BRANCH  15  18
HETATM   18  O1  UNL     1      15.750   0.106  48.877  1.00  0.00    -0.353 OA
HETATM   19  C1  UNL     1      15.705  -1.261  48.494  1.00  0.00     0.210 C 
ENDBRANCH  15  18
BRANCH  16  20
HETATM   20  O4  UNL     1      17.030   2.508  48.569  1.00  0.00    -0.353 OA
HETATM   21  C22 UNL     1      17.902   3.152  47.682  1.00  0.00     0.210 C 
ENDBRANCH  16  20
ENDBRANCH   7   8
ENDBRANCH   1   7
BRANCH   3  22
HETATM   22  O3  UNL     1      24.369   5.074  51.766  1.00  0.00    -0.373 OA
HETATM   23  H8  UNL     1      23.508   5.547  51.648  1.00  0.00     0.212 HD
ENDBRANCH   3  22
BRANCH   4  24
HETATM   24  C10 UNL     1      25.906   2.850  50.434  1.00  0.00     0.379 C 
HETATM   25  F1  UNL     1      26.124   3.829  49.474  1.00  0.00    -0.203 F 
BRANCH  24  26
HETATM   26  N4  UNL     1      26.784   3.189  51.557  1.00  0.00    -0.343 N 
HETATM   27  H10 UNL     1      27.115   4.135  51.913  1.00  0.00     0.164 HD
BRANCH  26  28
HETATM   28  C11 UNL     1      27.289   2.081  52.306  1.00  0.00     0.033 A 
HETATM   29  C12 UNL     1      28.216   2.230  53.320  1.00  0.00     0.029 A 
HETATM   30  C13 UNL     1      28.729   1.193  54.068  1.00  0.00     0.004 A 
HETATM   31  C14 UNL     1      28.297  -0.089  53.801  1.00  0.00     0.024 A 
HETATM   32  C15 UNL     1      27.371  -0.303  52.801  1.00  0.00     0.036 A 
HETATM   33 CL1  UNL     1      26.811  -1.939  52.450  1.00  0.00    -0.084 Cl
HETATM   34  C16 UNL     1      26.908   0.771  52.101  1.00  0.00     0.053 A 
ENDBRANCH  26  28
ENDBRANCH  24  26
ENDBRANCH   4  24
TORSDOF 8
ENDMDL
MODEL 8
REMARK VINA RESULT:      -7.9      4.631      8.535
REMARK  8 active torsions:
REMARK  status: ('A' for Active; 'I' for Inactive)
REMARK    1  A    between atoms: O1_2  and  C2_3 
REMARK    2  A    between atoms: C6_9  and  O2_10 
REMARK    3  A    between atoms: O2_10  and  C7_11 
REMARK    4  A    between atoms: C9_13  and  O3_14 
REMARK    5  A    between atoms: N3_15  and  C10_16 
REMARK    6  A    between atoms: C10_16  and  N4_18 
REMARK    7  A    between atoms: N4_18  and  C11_19 
REMARK    8  A    between atoms: C21_30  and  O4_31 
ROOT
HETATM    1  C7  UNL     1      23.740   4.660  51.578  1.00  0.00     0.079 A 
HETATM    2  C8  UNL     1      23.364   5.920  51.437  1.00  0.00     0.063 A 
HETATM    3  C9  UNL     1      23.380   6.837  50.272  1.00  0.00     0.250 A 
HETATM    4  N3  UNL     1      23.929   6.112  49.144  1.00  0.00    -0.314 N 
HETATM    5  C17 UNL     1      24.356   4.757  49.213  1.00  0.00     0.096 A 
HETATM    6  C18 UNL     1      24.266   4.087  50.348  1.00  0.00     0.054 A 
ENDROOT
BRANCH   1   7
HETATM    7  O2  UNL     1      23.652   3.944  52.763  1.00  0.00    -0.291 OA
BRANCH   7   8
HETATM    8  C6  UNL     1      23.367   2.587  52.683  1.00  0.00     0.183 A 
HETATM    9  N2  UNL     1      22.187   2.058  52.245  1.00  0.00    -0.217 NA
HETATM   10  C5  UNL     1      22.060   0.705  52.224  1.00  0.00     0.236 A 
HETATM   11  N1  UNL     1      23.049  -0.123  52.616  1.00  0.00    -0.241 NA
HETATM   12  C4  UNL     1      24.230   0.380  53.053  1.00  0.00     0.075 A 
HETATM   13  C3  UNL     1      25.241  -0.471  53.455  1.00  0.00     0.072 A 
HETATM   14  C19 UNL     1      24.408   1.758  53.095  1.00  0.00     0.049 A 
HETATM   15  C2  UNL     1      26.462   0.027  53.908  1.00  0.00     0.103 A 
HETATM   16  C21 UNL     1      26.624   1.397  53.943  1.00  0.00     0.102 A 
HETATM   17  C20 UNL     1      25.618   2.258  53.544  1.00  0.00     0.057 A 
BRANCH  15  18
HETATM   18  O1  UNL     1      27.488  -0.819  54.314  1.00  0.00    -0.353 OA
HETATM   19  C1  UNL     1      28.374  -1.261  53.297  1.00  0.00     0.210 C 
ENDBRANCH  15  18
BRANCH  16  20
HETATM   20  O4  UNL     1      27.828   1.898  54.390  1.00  0.00    -0.353 OA
HETATM   21  C22 UNL     1      28.780   2.524  53.575  1.00  0.00     0.210 C 
ENDBRANCH  16  20
ENDBRANCH   7   8
ENDBRANCH   1   7
BRANCH   3  22
HETATM   22  O3  UNL     1      22.048   7.204  50.057  1.00  0.00    -0.373 OA
HETATM   23  H8  UNL     1      21.468   6.414  49.921  1.00  0.00     0.212 HD
ENDBRANCH   3  22
BRANCH   4  24
HETATM   24  C10 UNL     1      24.063   6.791  47.855  1.00  0.00     0.379 C 
HETATM   25  F1  UNL     1      22.836   6.876  47.212  1.00  0.00    -0.203 F 
BRANCH  24  26
HETATM   26  N4  UNL     1      24.482   8.173  48.102  1.00  0.00    -0.343 N 
HETATM   27  H10 UNL     1      23.928   9.079  48.061  1.00  0.00     0.164 HD
BRANCH  26  28
HETATM   28  C11 UNL     1      25.855   8.351  48.457  1.00  0.00     0.033 A 
HETATM   29  C12 UNL     1      26.253   9.154  49.509  1.00  0.00     0.029 A 
HETATM   30  C13 UNL     1      27.563   9.354  49.887  1.00  0.00     0.004 A 
HETATM   31  C14 UNL     1      28.559   8.718  49.177  1.00  0.00     0.024 A 
HETATM   32  C15 UNL     1      28.225   7.902  48.115  1.00  0.00     0.036 A 
HETATM   33 CL1  UNL     1      29.491   7.082  47.198  1.00  0.00    -0.084 Cl
HETATM   34  C16 UNL     1      26.908   7.751  47.798  1.00  0.00     0.053 A 
ENDBRANCH  26  28
ENDBRANCH  24  26
ENDBRANCH   4  24
TORSDOF 8
ENDMDL
MODEL 9
REMARK VINA RESULT:      -7.8      4.019     10.067
REMARK  8 active torsions:
REMARK  status: ('A' for Active; 'I' for Inactive)
REMARK    1  A    between atoms: O1_2  and  C2_3 
REMARK    2  A    between atoms: C6_9  and  O2_10 
REMARK    3  A    between atoms: O2_10  and  C7_11 
REMARK    4  A    between atoms: C9_13  and  O3_14 
REMARK    5  A    between atoms: N3_15  and  C10_16 
REMARK    6  A    between atoms: C10_16  and  N4_18 
REMARK    7  A    between atoms: N4_18  and  C11_19 
REMARK    8  A    between atoms: C21_30  and  O4_31 
ROOT
HETATM    1  C7  UNL     1      24.338   4.734  51.304  1.00  0.00     0.079 A 
HETATM    2  C8  UNL     1      25.111   4.007  50.515  1.00  0.00     0.063 A 
HETATM    3  C9  UNL     1      26.071   4.378  49.448  1.00  0.00     0.250 A 
HETATM    4  N3  UNL     1      26.075   5.822  49.338  1.00  0.00    -0.314 N 
HETATM    5  C17 UNL     1      25.275   6.675  50.148  1.00  0.00     0.096 A 
HETATM    6  C18 UNL     1      24.468   6.163  51.060  1.00  0.00     0.054 A 
ENDROOT
BRANCH   1   7
HETATM    7  O2  UNL     1      23.486   4.211  52.266  1.00  0.00    -0.291 OA
BRANCH   7   8
HETATM    8  C6  UNL     1      23.641   2.875  52.614  1.00  0.00     0.183 A 
HETATM    9  N2  UNL     1      24.804   2.308  53.053  1.00  0.00    -0.217 NA
HETATM   10  C5  UNL     1      24.797   0.984  53.355  1.00  0.00     0.236 A 
HETATM   11  N1  UNL     1      23.694   0.219  53.239  1.00  0.00    -0.241 NA
HETATM   12  C4  UNL     1      22.528   0.759  52.807  1.00  0.00     0.075 A 
HETATM   13  C3  UNL     1      21.399  -0.027  52.688  1.00  0.00     0.072 A 
HETATM   14  C19 UNL     1      22.484   2.111  52.483  1.00  0.00     0.049 A 
HETATM   15  C2  UNL     1      20.191   0.510  52.245  1.00  0.00     0.103 A 
HETATM   16  C21 UNL     1      20.163   1.853  51.928  1.00  0.00     0.102 A 
HETATM   17  C20 UNL     1      21.288   2.650  52.043  1.00  0.00     0.057 A 
BRANCH  15  18
HETATM   18  O1  UNL     1      19.048  -0.271  52.122  1.00  0.00    -0.353 OA
HETATM   19  C1  UNL     1      18.688  -1.036  53.263  1.00  0.00     0.210 C 
ENDBRANCH  15  18
BRANCH  16  20
HETATM   20  O4  UNL     1      18.973   2.393  51.489  1.00  0.00    -0.353 OA
HETATM   21  C22 UNL     1      18.713   3.765  51.387  1.00  0.00     0.210 C 
ENDBRANCH  16  20
ENDBRANCH   7   8
ENDBRANCH   1   7
BRANCH   3  22
HETATM   22  O3  UNL     1      27.312   3.883  49.861  1.00  0.00    -0.373 OA
HETATM   23  H8  UNL     1      27.347   2.895  49.810  1.00  0.00     0.212 HD
ENDBRANCH   3  22
BRANCH   4  24
HETATM   24  C10 UNL     1      26.941   6.461  48.346  1.00  0.00     0.379 C 
HETATM   25  F1  UNL     1      26.233   7.395  47.601  1.00  0.00    -0.203 F 
BRANCH  24  26
HETATM   26  N4  UNL     1      27.977   7.216  49.055  1.00  0.00    -0.343 N 
HETATM   27  H10 UNL     1      27.897   7.918  49.850  1.00  0.00     0.164 HD
BRANCH  26  28
HETATM   28  C11 UNL     1      29.319   6.986  48.621  1.00  0.00     0.033 A 
HETATM   29  C12 UNL     1      30.295   7.964  48.673  1.00  0.00     0.029 A 
HETATM   30  C13 UNL     1      31.600   7.787  48.268  1.00  0.00     0.004 A 
HETATM   31  C14 UNL     1      31.976   6.556  47.773  1.00  0.00     0.024 A 
HETATM   32  C15 UNL     1      31.047   5.539  47.696  1.00  0.00     0.036 A 
HETATM   33 CL1  UNL     1      31.516   3.959  47.065  1.00  0.00    -0.084 Cl
HETATM   34  C16 UNL     1      29.774   5.786  48.116  1.00  0.00     0.053 A 
ENDBRANCH  26  28
ENDBRANCH  24  26
ENDBRANCH   4  24
TORSDOF 8
ENDMDL
