MODEL 1
REMARK VINA RESULT:      -9.8      0.000      0.000
REMARK  0 active torsions:
REMARK  status: ('A' for Active; 'I' for Inactive)
ROOT
HETATM    1  C1  UNL     1      22.752   6.242  46.401  1.00  0.00     0.016 C 
HETATM    2  C2  UNL     1      21.833   5.909  47.546  1.00  0.00     0.031 C 
HETATM    3  C3  UNL     1      20.782   4.954  47.047  1.00  0.00     0.128 C 
HETATM    4  N1  UNL     1      20.746   3.856  48.034  1.00  0.00    -0.389 N 
HETATM    5  C4  UNL     1      21.333   4.439  49.188  1.00  0.00     0.027 C 
HETATM    6  C5  UNL     1      20.852   4.262  50.385  1.00  0.00     0.006 C 
HETATM    7  C6  UNL     1      19.909   3.721  51.357  1.00  0.00     0.056 C 
HETATM    8  C7  UNL     1      20.625   3.041  52.508  1.00  0.00    -0.022 C 
HETATM    9  C8  UNL     1      20.515   1.793  52.750  1.00  0.00     0.008 C 
HETATM   10  C9  UNL     1      20.572   0.423  53.251  1.00  0.00     0.060 C 
HETATM   11  N2  UNL     1      21.275   0.051  54.319  1.00  0.00    -0.277 N 
HETATM   12  C10 UNL     1      21.258  -1.355  54.729  1.00  0.00     0.102 A 
HETATM   13  C11 UNL     1      22.372  -1.138  54.038  1.00  0.00     0.100 A 
HETATM   14  C12 UNL     1      23.433  -0.463  53.254  1.00  0.00     0.143 C 
HETATM   15  N3  UNL     1      24.707  -0.598  53.940  1.00  0.00    -0.373 N 
HETATM   16  C13 UNL     1      25.921   0.094  53.577  1.00  0.00     0.131 A 
HETATM   17  N4  UNL     1      26.911  -0.346  54.358  1.00  0.00    -0.243 NA
HETATM   18  C14 UNL     1      28.196  -0.001  54.379  1.00  0.00     0.119 A 
HETATM   19  C15 UNL     1      28.563   0.996  53.414  1.00  0.00     0.020 A 
HETATM   20  C16 UNL     1      27.491   1.382  52.666  1.00  0.00     0.014 A 
HETATM   21  C17 UNL     1      26.157   1.054  52.614  1.00  0.00     0.005 A 
HETATM   22  C18 UNL     1      25.484   1.853  51.590  1.00  0.00     0.161 C 
HETATM   23  N5  UNL     1      25.690   3.292  51.866  1.00  0.00    -0.398 N 
HETATM   24  C19 UNL     1      25.132   4.003  50.823  1.00  0.00     0.057 C 
HETATM   25  C20 UNL     1      24.529   4.647  49.852  1.00  0.00     0.019 C 
HETATM   26  C21 UNL     1      23.908   5.413  48.721  1.00  0.00     0.064 C 
HETATM   27  C22 UNL     1      22.535   5.177  48.666  1.00  0.00    -0.043 C 
HETATM   28  H7  UNL     1      20.517   2.868  48.352  1.00  0.00     0.159 HD
HETATM   29  H18 UNL     1      24.673  -1.290  54.750  1.00  0.00     0.161 HD
HETATM   30  H24 UNL     1      26.083   3.966  52.545  1.00  0.00     0.158 HD
ENDROOT
TORSDOF 0
ENDMDL
MODEL 2
REMARK VINA RESULT:      -9.6      1.909      5.216
REMARK  0 active torsions:
REMARK  status: ('A' for Active; 'I' for Inactive)
ROOT
HETATM    1  C1  UNL     1      22.412   8.826  49.531  1.00  0.00     0.016 C 
HETATM    2  C2  UNL     1      23.561   7.889  49.270  1.00  0.00     0.031 C 
HETATM    3  C3  UNL     1      24.741   8.348  50.083  1.00  0.00     0.128 C 
HETATM    4  N1  UNL     1      25.242   7.140  50.770  1.00  0.00    -0.389 N 
HETATM    5  C4  UNL     1      24.711   6.080  49.988  1.00  0.00     0.027 C 
HETATM    6  C5  UNL     1      25.410   5.031  49.663  1.00  0.00     0.006 C 
HETATM    7  C6  UNL     1      26.610   4.204  49.644  1.00  0.00     0.056 C 
HETATM    8  C7  UNL     1      26.309   2.776  50.056  1.00  0.00    -0.022 C 
HETATM    9  C8  UNL     1      26.801   2.240  51.105  1.00  0.00     0.008 C 
HETATM   10  C9  UNL     1      27.210   1.390  52.219  1.00  0.00     0.060 C 
HETATM   11  N2  UNL     1      26.822   0.126  52.370  1.00  0.00    -0.277 N 
HETATM   12  C10 UNL     1      27.298  -0.631  53.531  1.00  0.00     0.102 A 
HETATM   13  C11 UNL     1      26.070  -0.194  53.795  1.00  0.00     0.100 A 
HETATM   14  C12 UNL     1      24.751   0.465  53.655  1.00  0.00     0.143 C 
HETATM   15  N3  UNL     1      23.693  -0.517  53.834  1.00  0.00    -0.373 N 
HETATM   16  C13 UNL     1      22.292  -0.282  53.577  1.00  0.00     0.131 A 
HETATM   17  N4  UNL     1      21.605  -1.366  53.946  1.00  0.00    -0.243 NA
HETATM   18  C14 UNL     1      20.296  -1.600  53.900  1.00  0.00     0.119 A 
HETATM   19  C15 UNL     1      19.514  -0.518  53.370  1.00  0.00     0.020 A 
HETATM   20  C16 UNL     1      20.300   0.540  53.023  1.00  0.00     0.014 A 
HETATM   21  C17 UNL     1      21.646   0.819  53.053  1.00  0.00     0.005 A 
HETATM   22  C18 UNL     1      21.893   2.150  52.500  1.00  0.00     0.161 C 
HETATM   23  N5  UNL     1      21.341   2.231  51.130  1.00  0.00    -0.398 N 
HETATM   24  C19 UNL     1      21.501   3.529  50.689  1.00  0.00     0.057 C 
HETATM   25  C20 UNL     1      21.735   4.753  50.277  1.00  0.00     0.019 C 
HETATM   26  C21 UNL     1      21.926   6.163  49.799  1.00  0.00     0.064 C 
HETATM   27  C22 UNL     1      23.282   6.478  49.737  1.00  0.00    -0.043 C 
HETATM   28  H7  UNL     1      25.786   6.632  51.529  1.00  0.00     0.159 HD
HETATM   29  H18 UNL     1      24.050  -1.450  54.205  1.00  0.00     0.161 HD
HETATM   30  H24 UNL     1      20.891   1.685  50.375  1.00  0.00     0.158 HD
ENDROOT
TORSDOF 0
ENDMDL
MODEL 3
REMARK VINA RESULT:      -9.0      2.846      6.363
REMARK  0 active torsions:
REMARK  status: ('A' for Active; 'I' for Inactive)
ROOT
HETATM    1  C1  UNL     1      26.177  10.262  47.387  1.00  0.00     0.016 C 
HETATM    2  C2  UNL     1      26.767   8.884  47.524  1.00  0.00     0.031 C 
HETATM    3  C3  UNL     1      27.808   8.920  48.610  1.00  0.00     0.128 C 
HETATM    4  N1  UNL     1      27.506   7.769  49.484  1.00  0.00    -0.389 N 
HETATM    5  C4  UNL     1      26.725   6.925  48.650  1.00  0.00     0.027 C 
HETATM    6  C5  UNL     1      26.894   5.635  48.603  1.00  0.00     0.006 C 
HETATM    7  C6  UNL     1      27.527   4.376  48.980  1.00  0.00     0.056 C 
HETATM    8  C7  UNL     1      26.500   3.333  49.375  1.00  0.00    -0.022 C 
HETATM    9  C8  UNL     1      26.429   2.844  50.552  1.00  0.00     0.008 C 
HETATM   10  C9  UNL     1      26.125   2.127  51.786  1.00  0.00     0.060 C 
HETATM   11  N2  UNL     1      25.160   1.217  51.898  1.00  0.00    -0.277 N 
HETATM   12  C10 UNL     1      24.945   0.561  53.190  1.00  0.00     0.102 A 
HETATM   13  C11 UNL     1      24.049   1.535  53.065  1.00  0.00     0.100 A 
HETATM   14  C12 UNL     1      23.271   2.669  52.514  1.00  0.00     0.143 C 
HETATM   15  N3  UNL     1      21.864   2.307  52.444  1.00  0.00    -0.373 N 
HETATM   16  C13 UNL     1      20.841   3.082  51.782  1.00  0.00     0.131 A 
HETATM   17  N4  UNL     1      19.659   2.503  52.006  1.00  0.00    -0.243 NA
HETATM   18  C14 UNL     1      18.444   2.866  51.602  1.00  0.00     0.119 A 
HETATM   19  C15 UNL     1      18.411   4.060  50.806  1.00  0.00     0.020 A 
HETATM   20  C16 UNL     1      19.660   4.578  50.633  1.00  0.00     0.014 A 
HETATM   21  C17 UNL     1      20.931   4.235  51.029  1.00  0.00     0.005 A 
HETATM   22  C18 UNL     1      21.898   5.190  50.489  1.00  0.00     0.161 C 
HETATM   23  N5  UNL     1      21.773   5.246  49.016  1.00  0.00    -0.398 N 
HETATM   24  C19 UNL     1      22.625   6.232  48.560  1.00  0.00     0.057 C 
HETATM   25  C20 UNL     1      23.498   7.126  48.158  1.00  0.00     0.019 C 
HETATM   26  C21 UNL     1      24.437   8.189  47.669  1.00  0.00     0.064 C 
HETATM   27  C22 UNL     1      25.755   7.857  47.978  1.00  0.00    -0.043 C 
HETATM   28  H7  UNL     1      27.558   7.226  50.397  1.00  0.00     0.159 HD
HETATM   29  H18 UNL     1      21.642   1.401  52.957  1.00  0.00     0.161 HD
HETATM   30  H24 UNL     1      21.300   4.824  48.199  1.00  0.00     0.158 HD
ENDROOT
TORSDOF 0
ENDMDL
MODEL 4
REMARK VINA RESULT:      -9.0      2.082      5.722
REMARK  0 active torsions:
REMARK  status: ('A' for Active; 'I' for Inactive)
ROOT
HETATM    1  C1  UNL     1      24.576   7.970  47.828  1.00  0.00     0.016 C 
HETATM    2  C2  UNL     1      25.344   6.795  48.371  1.00  0.00     0.031 C 
HETATM    3  C3  UNL     1      25.977   7.203  49.673  1.00  0.00     0.128 C 
HETATM    4  N1  UNL     1      25.645   6.126  50.628  1.00  0.00    -0.389 N 
HETATM    5  C4  UNL     1      25.330   5.030  49.782  1.00  0.00     0.027 C 
HETATM    6  C5  UNL     1      25.746   3.819  50.020  1.00  0.00     0.006 C 
HETATM    7  C6  UNL     1      26.458   2.797  50.778  1.00  0.00     0.056 C 
HETATM    8  C7  UNL     1      25.576   1.598  51.062  1.00  0.00    -0.022 C 
HETATM    9  C8  UNL     1      25.242   1.250  52.244  1.00  0.00     0.008 C 
HETATM   10  C9  UNL     1      24.715   0.634  53.458  1.00  0.00     0.060 C 
HETATM   11  N2  UNL     1      23.952  -0.457  53.468  1.00  0.00    -0.277 N 
HETATM   12  C10 UNL     1      23.480  -0.985  54.750  1.00  0.00     0.102 A 
HETATM   13  C11 UNL     1      22.499  -0.270  54.209  1.00  0.00     0.100 A 
HETATM   14  C12 UNL     1      21.727   0.576  53.269  1.00  0.00     0.143 C 
HETATM   15  N3  UNL     1      20.504  -0.110  52.885  1.00  0.00    -0.373 N 
HETATM   16  C13 UNL     1      19.606   0.319  51.840  1.00  0.00     0.131 A 
HETATM   17  N4  UNL     1      18.542  -0.489  51.835  1.00  0.00    -0.243 NA
HETATM   18  C14 UNL     1      17.464  -0.472  51.056  1.00  0.00     0.119 A 
HETATM   19  C15 UNL     1      17.452   0.578  50.076  1.00  0.00     0.020 A 
HETATM   20  C16 UNL     1      18.573   1.348  50.159  1.00  0.00     0.014 A 
HETATM   21  C17 UNL     1      19.703   1.363  50.942  1.00  0.00     0.005 A 
HETATM   22  C18 UNL     1      20.590   2.446  50.520  1.00  0.00     0.161 C 
HETATM   23  N5  UNL     1      20.913   2.295  49.085  1.00  0.00    -0.398 N 
HETATM   24  C19 UNL     1      21.662   3.391  48.706  1.00  0.00     0.057 C 
HETATM   25  C20 UNL     1      22.431   4.409  48.400  1.00  0.00     0.019 C 
HETATM   26  C21 UNL     1      23.256   5.597  47.999  1.00  0.00     0.064 C 
HETATM   27  C22 UNL     1      24.455   5.622  48.711  1.00  0.00    -0.043 C 
HETATM   28  H7  UNL     1      25.517   5.724  51.604  1.00  0.00     0.159 HD
HETATM   29  H18 UNL     1      20.310  -0.976  53.476  1.00  0.00     0.161 HD
HETATM   30  H24 UNL     1      20.801   1.679  48.261  1.00  0.00     0.158 HD
ENDROOT
TORSDOF 0
ENDMDL
MODEL 5
REMARK VINA RESULT:      -9.0      2.636      7.795
REMARK  0 active torsions:
REMARK  status: ('A' for Active; 'I' for Inactive)
ROOT
HETATM    1  C1  UNL     1      27.180  -0.522  53.539  1.00  0.00     0.016 C 
HETATM    2  C2  UNL     1      26.597   0.860  53.415  1.00  0.00     0.031 C 
HETATM    3  C3  UNL     1      27.045   1.449  52.104  1.00  0.00     0.128 C 
HETATM    4  N1  UNL     1      25.822   1.980  51.471  1.00  0.00    -0.389 N 
HETATM    5  C4  UNL     1      24.928   2.126  52.565  1.00  0.00     0.027 C 
HETATM    6  C5  UNL     1      24.167   3.172  52.714  1.00  0.00     0.006 C 
HETATM    7  C6  UNL     1      23.633   4.475  52.335  1.00  0.00     0.056 C 
HETATM    8  C7  UNL     1      22.116   4.475  52.332  1.00  0.00    -0.022 C 
HETATM    9  C8  UNL     1      21.427   4.663  51.275  1.00  0.00     0.008 C 
HETATM   10  C9  UNL     1      20.407   4.847  50.247  1.00  0.00     0.060 C 
HETATM   11  N2  UNL     1      19.098   4.822  50.486  1.00  0.00    -0.277 N 
HETATM   12  C10 UNL     1      18.166   5.018  49.372  1.00  0.00     0.102 A 
HETATM   13  C11 UNL     1      18.262   3.714  49.608  1.00  0.00     0.100 A 
HETATM   14  C12 UNL     1      18.657   2.417  50.206  1.00  0.00     0.143 C 
HETATM   15  N3  UNL     1      17.473   1.712  50.669  1.00  0.00    -0.373 N 
HETATM   16  C13 UNL     1      17.485   0.514  51.474  1.00  0.00     0.131 A 
HETATM   17  N4  UNL     1      16.227   0.090  51.624  1.00  0.00    -0.243 NA
HETATM   18  C14 UNL     1      15.758  -0.969  52.277  1.00  0.00     0.119 A 
HETATM   19  C15 UNL     1      16.764  -1.771  52.915  1.00  0.00     0.020 A 
HETATM   20  C16 UNL     1      18.011  -1.263  52.707  1.00  0.00     0.014 A 
HETATM   21  C17 UNL     1      18.534  -0.177  52.045  1.00  0.00     0.005 A 
HETATM   22  C18 UNL     1      19.987  -0.142  52.212  1.00  0.00     0.161 C 
HETATM   23  N5  UNL     1      20.322  -0.126  53.653  1.00  0.00    -0.398 N 
HETATM   24  C19 UNL     1      21.696  -0.200  53.764  1.00  0.00     0.057 C 
HETATM   25  C20 UNL     1      23.007  -0.199  53.829  1.00  0.00     0.019 C 
HETATM   26  C21 UNL     1      24.502  -0.265  53.942  1.00  0.00     0.064 C 
HETATM   27  C22 UNL     1      25.086   0.853  53.350  1.00  0.00    -0.043 C 
HETATM   28  H7  UNL     1      25.248   2.317  50.642  1.00  0.00     0.159 HD
HETATM   29  H18 UNL     1      16.566   2.158  50.334  1.00  0.00     0.161 HD
HETATM   30  H24 UNL     1      19.922  -0.071  54.605  1.00  0.00     0.158 HD
ENDROOT
TORSDOF 0
ENDMDL
MODEL 6
REMARK VINA RESULT:      -8.8      3.007      7.632
REMARK  0 active torsions:
REMARK  status: ('A' for Active; 'I' for Inactive)
ROOT
HETATM    1  C1  UNL     1      25.249  -0.101  54.161  1.00  0.00     0.016 C 
HETATM    2  C2  UNL     1      24.235   0.003  53.053  1.00  0.00     0.031 C 
HETATM    3  C3  UNL     1      22.940   0.495  53.640  1.00  0.00     0.128 C 
HETATM    4  N1  UNL     1      22.504   1.601  52.765  1.00  0.00    -0.389 N 
HETATM    5  C4  UNL     1      23.216   1.360  51.559  1.00  0.00     0.027 C 
HETATM    6  C5  UNL     1      22.665   1.472  50.385  1.00  0.00     0.006 C 
HETATM    7  C6  UNL     1      21.565   1.747  49.469  1.00  0.00     0.056 C 
HETATM    8  C7  UNL     1      21.972   2.731  48.389  1.00  0.00    -0.022 C 
HETATM    9  C8  UNL     1      21.439   3.885  48.269  1.00  0.00     0.008 C 
HETATM   10  C9  UNL     1      21.014   5.232  47.903  1.00  0.00     0.060 C 
HETATM   11  N2  UNL     1      21.515   5.916  46.877  1.00  0.00    -0.277 N 
HETATM   12  C10 UNL     1      21.011   7.264  46.604  1.00  0.00     0.102 A 
HETATM   13  C11 UNL     1      22.155   7.376  47.272  1.00  0.00     0.100 A 
HETATM   14  C12 UNL     1      23.405   7.033  47.988  1.00  0.00     0.143 C 
HETATM   15  N3  UNL     1      24.537   7.654  47.319  1.00  0.00    -0.373 N 
HETATM   16  C13 UNL     1      25.924   7.385  47.615  1.00  0.00     0.131 A 
HETATM   17  N4  UNL     1      26.682   8.204  46.881  1.00  0.00    -0.243 NA
HETATM   18  C14 UNL     1      28.006   8.319  46.828  1.00  0.00     0.119 A 
HETATM   19  C15 UNL     1      28.719   7.421  47.693  1.00  0.00     0.020 A 
HETATM   20  C16 UNL     1      27.865   6.628  48.400  1.00  0.00     0.014 A 
HETATM   21  C17 UNL     1      26.501   6.478  48.481  1.00  0.00     0.005 A 
HETATM   22  C18 UNL     1      26.171   5.408  49.423  1.00  0.00     0.161 C 
HETATM   23  N5  UNL     1      26.842   4.157  49.009  1.00  0.00    -0.398 N 
HETATM   24  C19 UNL     1      26.590   3.207  49.979  1.00  0.00     0.057 C 
HETATM   25  C20 UNL     1      26.272   2.310  50.882  1.00  0.00     0.019 C 
HETATM   26  C21 UNL     1      25.982   1.279  51.933  1.00  0.00     0.064 C 
HETATM   27  C22 UNL     1      24.613   1.029  52.009  1.00  0.00    -0.043 C 
HETATM   28  H7  UNL     1      21.944   2.478  52.543  1.00  0.00     0.159 HD
HETATM   29  H18 UNL     1      24.245   8.364  46.581  1.00  0.00     0.161 HD
HETATM   30  H24 UNL     1      27.418   3.720  48.269  1.00  0.00     0.158 HD
ENDROOT
TORSDOF 0
ENDMDL
MODEL 7
REMARK VINA RESULT:      -8.8      2.292      7.169
REMARK  0 active torsions:
REMARK  status: ('A' for Active; 'I' for Inactive)
ROOT
HETATM    1  C1  UNL     1      23.811  -1.200  55.340  1.00  0.00     0.016 C 
HETATM    2  C2  UNL     1      22.765  -1.129  54.259  1.00  0.00     0.031 C 
HETATM    3  C3  UNL     1      21.476  -0.659  54.877  1.00  0.00     0.128 C 
HETATM    4  N1  UNL     1      20.993   0.429  54.003  1.00  0.00    -0.389 N 
HETATM    5  C4  UNL     1      21.677   0.191  52.781  1.00  0.00     0.027 C 
HETATM    6  C5  UNL     1      21.093   0.280  51.622  1.00  0.00     0.006 C 
HETATM    7  C6  UNL     1      19.962   0.523  50.733  1.00  0.00     0.056 C 
HETATM    8  C7  UNL     1      20.318   1.505  49.634  1.00  0.00    -0.022 C 
HETATM    9  C8  UNL     1      19.758   2.646  49.518  1.00  0.00     0.008 C 
HETATM   10  C9  UNL     1      19.294   3.980  49.151  1.00  0.00     0.060 C 
HETATM   11  N2  UNL     1      19.753   4.665  48.105  1.00  0.00    -0.277 N 
HETATM   12  C10 UNL     1      19.212   5.999  47.834  1.00  0.00     0.102 A 
HETATM   13  C11 UNL     1      20.371   6.142  48.470  1.00  0.00     0.100 A 
HETATM   14  C12 UNL     1      21.648   5.832  49.155  1.00  0.00     0.143 C 
HETATM   15  N3  UNL     1      22.747   6.471  48.450  1.00  0.00    -0.373 N 
HETATM   16  C13 UNL     1      24.147   6.234  48.711  1.00  0.00     0.131 A 
HETATM   17  N4  UNL     1      24.867   7.062  47.949  1.00  0.00    -0.243 NA
HETATM   18  C14 UNL     1      26.186   7.205  47.859  1.00  0.00     0.119 A 
HETATM   19  C15 UNL     1      26.941   6.331  48.712  1.00  0.00     0.020 A 
HETATM   20  C16 UNL     1      26.124   5.527  49.449  1.00  0.00     0.014 A 
HETATM   21  C17 UNL     1      24.766   5.348  49.569  1.00  0.00     0.005 A 
HETATM   22  C18 UNL     1      24.485   4.281  50.529  1.00  0.00     0.161 C 
HETATM   23  N5  UNL     1      25.171   3.040  50.109  1.00  0.00    -0.398 N 
HETATM   24  C19 UNL     1      24.967   2.095  51.093  1.00  0.00     0.057 C 
HETATM   25  C20 UNL     1      24.692   1.201  52.013  1.00  0.00     0.019 C 
HETATM   26  C21 UNL     1      24.454   0.173  53.081  1.00  0.00     0.064 C 
HETATM   27  C22 UNL     1      23.093  -0.105  53.196  1.00  0.00    -0.043 C 
HETATM   28  H7  UNL     1      20.408   1.291  53.789  1.00  0.00     0.159 HD
HETATM   29  H18 UNL     1      22.420   7.167  47.713  1.00  0.00     0.161 HD
HETATM   30  H24 UNL     1      25.737   2.609  49.357  1.00  0.00     0.158 HD
ENDROOT
TORSDOF 0
ENDMDL
MODEL 8
REMARK VINA RESULT:      -8.7      6.836     10.108
REMARK  0 active torsions:
REMARK  status: ('A' for Active; 'I' for Inactive)
ROOT
HETATM    1  C1  UNL     1      24.416   3.435  51.055  1.00  0.00     0.016 C 
HETATM    2  C2  UNL     1      24.217   4.791  50.431  1.00  0.00     0.031 C 
HETATM    3  C3  UNL     1      23.890   5.772  51.525  1.00  0.00     0.128 C 
HETATM    4  N1  UNL     1      24.784   6.926  51.300  1.00  0.00    -0.389 N 
HETATM    5  C4  UNL     1      25.155   6.787  49.936  1.00  0.00     0.027 C 
HETATM    6  C5  UNL     1      25.202   7.797  49.116  1.00  0.00     0.006 C 
HETATM    7  C6  UNL     1      25.071   9.202  48.750  1.00  0.00     0.056 C 
HETATM    8  C7  UNL     1      26.312   9.713  48.044  1.00  0.00    -0.022 C 
HETATM    9  C8  UNL     1      27.056  10.630  48.529  1.00  0.00     0.008 C 
HETATM   10  C9  UNL     1      28.063  11.639  48.837  1.00  0.00     0.060 C 
HETATM   11  N2  UNL     1      29.085  11.938  48.038  1.00  0.00    -0.277 N 
HETATM   12  C10 UNL     1      30.037  12.971  48.453  1.00  0.00     0.102 A 
HETATM   13  C11 UNL     1      30.566  11.784  48.731  1.00  0.00     0.100 A 
HETATM   14  C12 UNL     1      30.751  10.319  48.849  1.00  0.00     0.143 C 
HETATM   15  N3  UNL     1      31.960   9.921  48.147  1.00  0.00    -0.373 N 
HETATM   16  C13 UNL     1      32.355   8.558  47.883  1.00  0.00     0.131 A 
HETATM   17  N4  UNL     1      33.562   8.568  47.311  1.00  0.00    -0.243 NA
HETATM   18  C14 UNL     1      34.318   7.553  46.903  1.00  0.00     0.119 A 
HETATM   19  C15 UNL     1      33.740   6.255  47.111  1.00  0.00     0.020 A 
HETATM   20  C16 UNL     1      32.513   6.345  47.697  1.00  0.00     0.014 A 
HETATM   21  C17 UNL     1      31.702   7.367  48.130  1.00  0.00     0.005 A 
HETATM   22  C18 UNL     1      30.452   6.823  48.660  1.00  0.00     0.161 C 
HETATM   23  N5  UNL     1      29.793   5.992  47.628  1.00  0.00    -0.398 N 
HETATM   24  C19 UNL     1      28.678   5.416  48.203  1.00  0.00     0.057 C 
HETATM   25  C20 UNL     1      27.589   4.944  48.761  1.00  0.00     0.019 C 
HETATM   26  C21 UNL     1      26.370   4.333  49.388  1.00  0.00     0.064 C 
HETATM   27  C22 UNL     1      25.473   5.324  49.781  1.00  0.00    -0.043 C 
HETATM   28  H7  UNL     1      25.297   7.806  51.602  1.00  0.00     0.159 HD
HETATM   29  H18 UNL     1      32.561  10.749  47.852  1.00  0.00     0.161 HD
HETATM   30  H24 UNL     1      29.844   5.687  46.641  1.00  0.00     0.158 HD
ENDROOT
TORSDOF 0
ENDMDL
MODEL 9
REMARK VINA RESULT:      -8.3      4.914      8.653
REMARK  0 active torsions:
REMARK  status: ('A' for Active; 'I' for Inactive)
ROOT
HETATM    1  C1  UNL     1      30.457  11.721  48.353  1.00  0.00     0.016 C 
HETATM    2  C2  UNL     1      30.401  10.231  48.145  1.00  0.00     0.031 C 
HETATM    3  C3  UNL     1      31.131   9.566  49.281  1.00  0.00     0.128 C 
HETATM    4  N1  UNL     1      30.223   8.507  49.767  1.00  0.00    -0.389 N 
HETATM    5  C4  UNL     1      29.350   8.299  48.666  1.00  0.00     0.027 C 
HETATM    6  C5  UNL     1      28.990   7.112  48.272  1.00  0.00     0.006 C 
HETATM    7  C6  UNL     1      28.973   5.655  48.330  1.00  0.00     0.056 C 
HETATM    8  C7  UNL     1      27.556   5.114  48.327  1.00  0.00    -0.022 C 
HETATM    9  C8  UNL     1      27.062   4.463  49.308  1.00  0.00     0.008 C 
HETATM   10  C9  UNL     1      26.257   3.705  50.260  1.00  0.00     0.060 C 
HETATM   11  N2  UNL     1      25.005   3.315  50.028  1.00  0.00    -0.277 N 
HETATM   12  C10 UNL     1      24.293   2.558  51.061  1.00  0.00     0.102 A 
HETATM   13  C11 UNL     1      23.910   3.828  51.140  1.00  0.00     0.100 A 
HETATM   14  C12 UNL     1      23.782   5.278  50.867  1.00  0.00     0.143 C 
HETATM   15  N3  UNL     1      22.393   5.600  50.579  1.00  0.00    -0.373 N 
HETATM   16  C13 UNL     1      21.923   6.870  50.079  1.00  0.00     0.131 A 
HETATM   17  N4  UNL     1      20.589   6.840  50.029  1.00  0.00    -0.243 NA
HETATM   18  C14 UNL     1      19.730   7.780  49.643  1.00  0.00     0.119 A 
HETATM   19  C15 UNL     1      20.341   9.008  49.216  1.00  0.00     0.020 A 
HETATM   20  C16 UNL     1      21.699   8.944  49.302  1.00  0.00     0.014 A 
HETATM   21  C17 UNL     1      22.618   7.998  49.691  1.00  0.00     0.005 A 
HETATM   22  C18 UNL     1      23.974   8.520  49.526  1.00  0.00     0.161 C 
HETATM   23  N5  UNL     1      24.177   8.945  48.124  1.00  0.00    -0.398 N 
HETATM   24  C19 UNL     1      25.426   9.526  48.039  1.00  0.00     0.057 C 
HETATM   25  C20 UNL     1      26.646  10.006  47.979  1.00  0.00     0.019 C 
HETATM   26  C21 UNL     1      28.011  10.624  47.891  1.00  0.00     0.064 C 
HETATM   27  C22 UNL     1      28.993   9.685  48.204  1.00  0.00    -0.043 C 
HETATM   28  H7  UNL     1      29.870   7.813  50.491  1.00  0.00     0.159 HD
HETATM   29  H18 UNL     1      21.727   4.798  50.796  1.00  0.00     0.161 HD
HETATM   30  H24 UNL     1      23.745   8.964  47.184  1.00  0.00     0.158 HD
ENDROOT
TORSDOF 0
ENDMDL
