MODEL 1
REMARK VINA RESULT:      -7.2      0.000      0.000
REMARK  3 active torsions:
REMARK  status: ('A' for Active; 'I' for Inactive)
REMARK    1  A    between atoms: O1_2  and  C2_3 
REMARK    2  A    between atoms: C8_11  and  N3_12 
REMARK    3  A    between atoms: N3_12  and  C9_13 
ROOT
HETATM    1  C2  UNL     1      26.848   1.626  52.617  1.00  0.00     0.163 A 
HETATM    2  C3  UNL     1      28.082   0.881  52.991  1.00  0.00     0.084 A 
HETATM    3  C4  UNL     1      27.864  -0.331  53.799  1.00  0.00     0.093 A 
HETATM    4  N1  UNL     1      26.799  -0.905  54.268  1.00  0.00    -0.263 NA
HETATM    5  C5  UNL     1      25.547  -0.263  53.960  1.00  0.00     0.090 A 
HETATM    6  C6  UNL     1      24.231  -0.218  54.049  1.00  0.00     0.101 A 
HETATM    7  C7  UNL     1      23.210  -0.994  54.644  1.00  0.00     0.104 C 
HETATM    8  N2  UNL     1      22.373  -1.634  55.126  1.00  0.00    -0.191 NA
HETATM    9  C8  UNL     1      24.313   0.999  53.250  1.00  0.00     0.067 A 
HETATM   10  C15 UNL     1      25.622   0.971  53.152  1.00  0.00     0.029 A 
ENDROOT
BRANCH   9  11
HETATM   11  N3  UNL     1      23.296   1.895  52.757  1.00  0.00    -0.354 N 
HETATM   12  H8  UNL     1      23.136   2.823  53.175  1.00  0.00     0.166 HD
BRANCH  11  13
HETATM   13  C9  UNL     1      22.462   1.564  51.679  1.00  0.00     0.033 A 
HETATM   14  C10 UNL     1      21.311   0.803  51.777  1.00  0.00     0.029 A 
HETATM   15  C11 UNL     1      20.527   0.511  50.661  1.00  0.00     0.004 A 
HETATM   16  C12 UNL     1      20.865   0.970  49.414  1.00  0.00     0.019 A 
HETATM   17  C13 UNL     1      22.012   1.732  49.304  1.00  0.00     0.013 A 
HETATM   18 BR1  UNL     1      22.484   2.370  47.573  1.00  0.00    -0.051 Br
HETATM   19  C14 UNL     1      22.777   2.013  50.410  1.00  0.00     0.048 A 
ENDBRANCH  11  13
ENDBRANCH   9  11
BRANCH   1  20
HETATM   20  O1  UNL     1      26.707   1.693  51.221  1.00  0.00    -0.386 OA
HETATM   21  C1  UNL     1      26.430   2.984  50.789  1.00  0.00     0.202 C 
ENDBRANCH   1  20
TORSDOF 3
ENDMDL
MODEL 2
REMARK VINA RESULT:      -7.1      2.971      6.420
REMARK  3 active torsions:
REMARK  status: ('A' for Active; 'I' for Inactive)
REMARK    1  A    between atoms: O1_2  and  C2_3 
REMARK    2  A    between atoms: C8_11  and  N3_12 
REMARK    3  A    between atoms: N3_12  and  C9_13 
ROOT
HETATM    1  C2  UNL     1      22.838   0.891  52.908  1.00  0.00     0.163 A 
HETATM    2  C3  UNL     1      21.684   0.563  52.026  1.00  0.00     0.084 A 
HETATM    3  C4  UNL     1      21.772   1.087  50.654  1.00  0.00     0.093 A 
HETATM    4  N1  UNL     1      22.664   1.794  50.029  1.00  0.00    -0.263 NA
HETATM    5  C5  UNL     1      23.827   2.165  50.794  1.00  0.00     0.090 A 
HETATM    6  C6  UNL     1      24.993   2.775  50.881  1.00  0.00     0.101 A 
HETATM    7  C7  UNL     1      25.829   3.529  50.027  1.00  0.00     0.104 C 
HETATM    8  N2  UNL     1      26.517   4.142  49.324  1.00  0.00    -0.191 NA
HETATM    9  C8  UNL     1      25.025   2.313  52.264  1.00  0.00     0.067 A 
HETATM   10  C15 UNL     1      23.866   1.701  52.196  1.00  0.00     0.029 A 
ENDROOT
BRANCH   9  11
HETATM   11  N3  UNL     1      26.001   2.485  53.313  1.00  0.00    -0.354 N 
HETATM   12  H8  UNL     1      25.917   3.228  54.021  1.00  0.00     0.166 HD
BRANCH  11  13
HETATM   13  C9  UNL     1      27.124   1.654  53.435  1.00  0.00     0.033 A 
HETATM   14  C10 UNL     1      28.377   2.075  53.843  1.00  0.00     0.029 A 
HETATM   15  C11 UNL     1      29.452   1.192  53.943  1.00  0.00     0.004 A 
HETATM   16  C12 UNL     1      29.310  -0.139  53.642  1.00  0.00     0.019 A 
HETATM   17  C13 UNL     1      28.064  -0.571  53.234  1.00  0.00     0.013 A 
HETATM   18 BR1  UNL     1      27.864  -2.418  52.814  1.00  0.00    -0.051 Br
HETATM   19  C14 UNL     1      27.012   0.308  53.139  1.00  0.00     0.048 A 
ENDBRANCH  11  13
ENDBRANCH   9  11
BRANCH   1  20
HETATM   20  O1  UNL     1      23.472  -0.278  53.360  1.00  0.00    -0.386 OA
HETATM   21  C1  UNL     1      22.769  -0.882  54.395  1.00  0.00     0.202 C 
ENDBRANCH   1  20
TORSDOF 3
ENDMDL
MODEL 3
REMARK VINA RESULT:      -7.0      2.449      4.164
REMARK  3 active torsions:
REMARK  status: ('A' for Active; 'I' for Inactive)
REMARK    1  A    between atoms: O1_2  and  C2_3 
REMARK    2  A    between atoms: C8_11  and  N3_12 
REMARK    3  A    between atoms: N3_12  and  C9_13 
ROOT
HETATM    1  C2  UNL     1      22.792  -0.496  53.547  1.00  0.00     0.163 A 
HETATM    2  C3  UNL     1      22.368  -1.389  54.661  1.00  0.00     0.084 A 
HETATM    3  C4  UNL     1      23.411  -1.695  55.653  1.00  0.00     0.093 A 
HETATM    4  N1  UNL     1      24.656  -1.346  55.769  1.00  0.00    -0.263 NA
HETATM    5  C5  UNL     1      25.168  -0.478  54.740  1.00  0.00     0.090 A 
HETATM    6  C6  UNL     1      26.161   0.214  54.215  1.00  0.00     0.101 A 
HETATM    7  C7  UNL     1      27.516   0.471  54.525  1.00  0.00     0.104 C 
HETATM    8  N2  UNL     1      28.625   0.687  54.784  1.00  0.00    -0.191 NA
HETATM    9  C8  UNL     1      25.220   0.592  53.168  1.00  0.00     0.067 A 
HETATM   10  C15 UNL     1      24.220  -0.091  53.675  1.00  0.00     0.029 A 
ENDROOT
BRANCH   9  11
HETATM   11  N3  UNL     1      25.365   1.426  51.999  1.00  0.00    -0.354 N 
HETATM   12  H8  UNL     1      26.019   1.192  51.239  1.00  0.00     0.166 HD
BRANCH  11  13
HETATM   13  C9  UNL     1      24.628   2.605  51.823  1.00  0.00     0.033 A 
HETATM   14  C10 UNL     1      24.160   3.405  52.851  1.00  0.00     0.029 A 
HETATM   15  C11 UNL     1      23.431   4.568  52.602  1.00  0.00     0.004 A 
HETATM   16  C12 UNL     1      23.148   4.971  51.322  1.00  0.00     0.019 A 
HETATM   17  C13 UNL     1      23.610   4.180  50.288  1.00  0.00     0.013 A 
HETATM   18 BR1  UNL     1      23.218   4.737  48.509  1.00  0.00    -0.051 Br
HETATM   19  C14 UNL     1      24.327   3.036  50.545  1.00  0.00     0.048 A 
ENDBRANCH  11  13
ENDBRANCH   9  11
BRANCH   1  20
HETATM   20  O1  UNL     1      22.027   0.682  53.529  1.00  0.00    -0.386 OA
HETATM   21  C1  UNL     1      20.742   0.473  54.014  1.00  0.00     0.202 C 
ENDBRANCH   1  20
TORSDOF 3
ENDMDL
MODEL 4
REMARK VINA RESULT:      -6.9      1.762      2.202
REMARK  3 active torsions:
REMARK  status: ('A' for Active; 'I' for Inactive)
REMARK    1  A    between atoms: O1_2  and  C2_3 
REMARK    2  A    between atoms: C8_11  and  N3_12 
REMARK    3  A    between atoms: N3_12  and  C9_13 
ROOT
HETATM    1  C2  UNL     1      26.188   1.555  52.644  1.00  0.00     0.163 A 
HETATM    2  C3  UNL     1      27.403   0.802  53.062  1.00  0.00     0.084 A 
HETATM    3  C4  UNL     1      27.145  -0.434  53.820  1.00  0.00     0.093 A 
HETATM    4  N1  UNL     1      26.057  -1.023  54.214  1.00  0.00    -0.263 NA
HETATM    5  C5  UNL     1      24.822  -0.374  53.858  1.00  0.00     0.090 A 
HETATM    6  C6  UNL     1      23.503  -0.334  53.876  1.00  0.00     0.101 A 
HETATM    7  C7  UNL     1      22.454  -1.129  54.392  1.00  0.00     0.104 C 
HETATM    8  N2  UNL     1      21.594  -1.783  54.809  1.00  0.00    -0.191 NA
HETATM    9  C8  UNL     1      23.624   0.906  53.119  1.00  0.00     0.067 A 
HETATM   10  C15 UNL     1      24.937   0.883  53.091  1.00  0.00     0.029 A 
ENDROOT
BRANCH   9  11
HETATM   11  N3  UNL     1      22.633   1.816  52.599  1.00  0.00    -0.354 N 
HETATM   12  H8  UNL     1      21.704   1.918  53.031  1.00  0.00     0.166 HD
BRANCH  11  13
HETATM   13  C9  UNL     1      22.869   2.618  51.473  1.00  0.00     0.033 A 
HETATM   14  C10 UNL     1      22.863   2.166  50.166  1.00  0.00     0.029 A 
HETATM   15  C11 UNL     1      23.107   3.022  49.092  1.00  0.00     0.004 A 
HETATM   16  C12 UNL     1      23.362   4.355  49.288  1.00  0.00     0.019 A 
HETATM   17  C13 UNL     1      23.370   4.818  50.589  1.00  0.00     0.013 A 
HETATM   18 BR1  UNL     1      23.725   6.669  50.864  1.00  0.00    -0.051 Br
HETATM   19  C14 UNL     1      23.129   3.966  51.639  1.00  0.00     0.048 A 
ENDBRANCH  11  13
ENDBRANCH   9  11
BRANCH   1  20
HETATM   20  O1  UNL     1      26.123   1.664  51.245  1.00  0.00    -0.386 OA
HETATM   21  C1  UNL     1      26.595   2.892  50.797  1.00  0.00     0.202 C 
ENDBRANCH   1  20
TORSDOF 3
ENDMDL
MODEL 5
REMARK VINA RESULT:      -6.9      2.893      5.542
REMARK  3 active torsions:
REMARK  status: ('A' for Active; 'I' for Inactive)
REMARK    1  A    between atoms: O1_2  and  C2_3 
REMARK    2  A    between atoms: C8_11  and  N3_12 
REMARK    3  A    between atoms: N3_12  and  C9_13 
ROOT
HETATM    1  C2  UNL     1      22.606   2.622  51.095  1.00  0.00     0.163 A 
HETATM    2  C3  UNL     1      21.295   3.308  51.265  1.00  0.00     0.084 A 
HETATM    3  C4  UNL     1      20.446   2.781  52.345  1.00  0.00     0.093 A 
HETATM    4  N1  UNL     1      20.597   1.819  53.204  1.00  0.00    -0.263 NA
HETATM    5  C5  UNL     1      21.836   1.090  53.126  1.00  0.00     0.090 A 
HETATM    6  C6  UNL     1      22.630   0.131  53.563  1.00  0.00     0.101 A 
HETATM    7  C7  UNL     1      22.594  -0.858  54.573  1.00  0.00     0.104 C 
HETATM    8  N2  UNL     1      22.567  -1.664  55.404  1.00  0.00    -0.191 NA
HETATM    9  C8  UNL     1      23.563   0.560  52.527  1.00  0.00     0.067 A 
HETATM   10  C15 UNL     1      22.786   1.518  52.078  1.00  0.00     0.029 A 
ENDROOT
BRANCH   9  11
HETATM   11  N3  UNL     1      24.871   0.081  52.153  1.00  0.00    -0.354 N 
HETATM   12  H8  UNL     1      25.000  -0.662  51.451  1.00  0.00     0.166 HD
BRANCH  11  13
HETATM   13  C9  UNL     1      26.047   0.592  52.718  1.00  0.00     0.033 A 
HETATM   14  C10 UNL     1      26.213   1.896  53.152  1.00  0.00     0.029 A 
HETATM   15  C11 UNL     1      27.414   2.338  53.706  1.00  0.00     0.004 A 
HETATM   16  C12 UNL     1      28.486   1.495  53.847  1.00  0.00     0.019 A 
HETATM   17  C13 UNL     1      28.332   0.191  53.418  1.00  0.00     0.013 A 
HETATM   18 BR1  UNL     1      29.820  -0.982  53.611  1.00  0.00    -0.051 Br
HETATM   19  C14 UNL     1      27.144  -0.234  52.873  1.00  0.00     0.048 A 
ENDBRANCH  11  13
ENDBRANCH   9  11
BRANCH   1  20
HETATM   20  O1  UNL     1      23.670   3.520  51.280  1.00  0.00    -0.386 OA
HETATM   21  C1  UNL     1      24.589   3.457  50.239  1.00  0.00     0.202 C 
ENDBRANCH   1  20
TORSDOF 3
ENDMDL
MODEL 6
REMARK VINA RESULT:      -6.7      2.563      3.717
REMARK  3 active torsions:
REMARK  status: ('A' for Active; 'I' for Inactive)
REMARK    1  A    between atoms: O1_2  and  C2_3 
REMARK    2  A    between atoms: C8_11  and  N3_12 
REMARK    3  A    between atoms: N3_12  and  C9_13 
ROOT
HETATM    1  C2  UNL     1      26.199  -0.248  52.697  1.00  0.00     0.163 A 
HETATM    2  C3  UNL     1      27.486   0.040  53.389  1.00  0.00     0.084 A 
HETATM    3  C4  UNL     1      27.654   1.428  53.851  1.00  0.00     0.093 A 
HETATM    4  N1  UNL     1      26.901   2.483  53.783  1.00  0.00    -0.263 NA
HETATM    5  C5  UNL     1      25.628   2.312  53.132  1.00  0.00     0.090 A 
HETATM    6  C6  UNL     1      24.476   2.807  52.721  1.00  0.00     0.101 A 
HETATM    7  C7  UNL     1      23.821   4.059  52.754  1.00  0.00     0.104 C 
HETATM    8  N2  UNL     1      23.282   5.084  52.788  1.00  0.00    -0.191 NA
HETATM    9  C8  UNL     1      24.189   1.469  52.216  1.00  0.00     0.067 A 
HETATM   10  C15 UNL     1      25.330   0.959  52.617  1.00  0.00     0.029 A 
ENDROOT
BRANCH   9  11
HETATM   11  N3  UNL     1      23.045   0.928  51.524  1.00  0.00    -0.354 N 
HETATM   12  H8  UNL     1      22.996   0.891  50.496  1.00  0.00     0.166 HD
BRANCH  11  13
HETATM   13  C9  UNL     1      21.929   0.420  52.203  1.00  0.00     0.033 A 
HETATM   14  C10 UNL     1      21.945  -0.063  53.500  1.00  0.00     0.029 A 
HETATM   15  C11 UNL     1      20.795  -0.555  54.115  1.00  0.00     0.004 A 
HETATM   16  C12 UNL     1      19.591  -0.579  53.457  1.00  0.00     0.019 A 
HETATM   17  C13 UNL     1      19.562  -0.100  52.163  1.00  0.00     0.013 A 
HETATM   18 BR1  UNL     1      17.892  -0.133  51.247  1.00  0.00    -0.051 Br
HETATM   19  C14 UNL     1      20.702   0.383  51.566  1.00  0.00     0.048 A 
ENDBRANCH  11  13
ENDBRANCH   9  11
BRANCH   1  20
HETATM   20  O1  UNL     1      25.473  -1.236  53.382  1.00  0.00    -0.386 OA
HETATM   21  C1  UNL     1      25.288  -0.912  54.720  1.00  0.00     0.202 C 
ENDBRANCH   1  20
TORSDOF 3
ENDMDL
MODEL 7
REMARK VINA RESULT:      -6.7      2.332      4.325
REMARK  3 active torsions:
REMARK  status: ('A' for Active; 'I' for Inactive)
REMARK    1  A    between atoms: O1_2  and  C2_3 
REMARK    2  A    between atoms: C8_11  and  N3_12 
REMARK    3  A    between atoms: N3_12  and  C9_13 
ROOT
HETATM    1  C2  UNL     1      21.351   0.267  52.684  1.00  0.00     0.163 A 
HETATM    2  C3  UNL     1      20.560  -0.573  53.625  1.00  0.00     0.084 A 
HETATM    3  C4  UNL     1      21.347  -1.286  54.645  1.00  0.00     0.093 A 
HETATM    4  N1  UNL     1      22.617  -1.342  54.907  1.00  0.00    -0.263 NA
HETATM    5  C5  UNL     1      23.474  -0.561  54.053  1.00  0.00     0.090 A 
HETATM    6  C6  UNL     1      24.679  -0.146  53.711  1.00  0.00     0.101 A 
HETATM    7  C7  UNL     1      26.004  -0.343  54.161  1.00  0.00     0.104 C 
HETATM    8  N2  UNL     1      27.090  -0.499  54.534  1.00  0.00    -0.191 NA
HETATM    9  C8  UNL     1      24.016   0.611  52.655  1.00  0.00     0.067 A 
HETATM   10  C15 UNL     1      22.810   0.208  52.980  1.00  0.00     0.029 A 
ENDROOT
BRANCH   9  11
HETATM   11  N3  UNL     1      24.531   1.485  51.630  1.00  0.00    -0.354 N 
HETATM   12  H8  UNL     1      25.277   1.190  50.984  1.00  0.00     0.166 HD
BRANCH  11  13
HETATM   13  C9  UNL     1      24.052   2.790  51.446  1.00  0.00     0.033 A 
HETATM   14  C10 UNL     1      23.787   3.685  52.467  1.00  0.00     0.029 A 
HETATM   15  C11 UNL     1      23.310   4.970  52.212  1.00  0.00     0.004 A 
HETATM   16  C12 UNL     1      23.085   5.404  50.930  1.00  0.00     0.019 A 
HETATM   17  C13 UNL     1      23.346   4.520  49.903  1.00  0.00     0.013 A 
HETATM   18 BR1  UNL     1      23.033   5.119  48.122  1.00  0.00    -0.051 Br
HETATM   19  C14 UNL     1      23.815   3.255  50.166  1.00  0.00     0.048 A 
ENDBRANCH  11  13
ENDBRANCH   9  11
BRANCH   1  20
HETATM   20  O1  UNL     1      20.965   1.615  52.770  1.00  0.00    -0.386 OA
HETATM   21  C1  UNL     1      20.269   2.028  51.640  1.00  0.00     0.202 C 
ENDBRANCH   1  20
TORSDOF 3
ENDMDL
MODEL 8
REMARK VINA RESULT:      -6.5      2.553      4.151
REMARK  3 active torsions:
REMARK  status: ('A' for Active; 'I' for Inactive)
REMARK    1  A    between atoms: O1_2  and  C2_3 
REMARK    2  A    between atoms: C8_11  and  N3_12 
REMARK    3  A    between atoms: N3_12  and  C9_13 
ROOT
HETATM    1  C2  UNL     1      23.515   0.901  52.438  1.00  0.00     0.163 A 
HETATM    2  C3  UNL     1      23.205  -0.291  53.276  1.00  0.00     0.084 A 
HETATM    3  C4  UNL     1      24.274  -0.703  54.201  1.00  0.00     0.093 A 
HETATM    4  N1  UNL     1      25.460  -0.239  54.451  1.00  0.00    -0.263 NA
HETATM    5  C5  UNL     1      25.859   0.919  53.692  1.00  0.00     0.090 A 
HETATM    6  C6  UNL     1      26.754   1.842  53.398  1.00  0.00     0.101 A 
HETATM    7  C7  UNL     1      28.060   2.183  53.818  1.00  0.00     0.104 C 
HETATM    8  N2  UNL     1      29.128   2.466  54.166  1.00  0.00    -0.191 NA
HETATM    9  C8  UNL     1      25.777   2.350  52.442  1.00  0.00     0.067 A 
HETATM   10  C15 UNL     1      24.874   1.439  52.721  1.00  0.00     0.029 A 
ENDROOT
BRANCH   9  11
HETATM   11  N3  UNL     1      25.818   3.464  51.526  1.00  0.00    -0.354 N 
HETATM   12  H8  UNL     1      26.649   4.066  51.434  1.00  0.00     0.166 HD
BRANCH  11  13
HETATM   13  C9  UNL     1      24.732   3.799  50.705  1.00  0.00     0.033 A 
HETATM   14  C10 UNL     1      24.409   3.158  49.521  1.00  0.00     0.029 A 
HETATM   15  C11 UNL     1      23.312   3.546  48.752  1.00  0.00     0.004 A 
HETATM   16  C12 UNL     1      22.502   4.582  49.140  1.00  0.00     0.019 A 
HETATM   17  C13 UNL     1      22.814   5.229  50.319  1.00  0.00     0.013 A 
HETATM   18 BR1  UNL     1      21.691   6.670  50.859  1.00  0.00    -0.051 Br
HETATM   19  C14 UNL     1      23.898   4.839  51.069  1.00  0.00     0.048 A 
ENDBRANCH  11  13
ENDBRANCH   9  11
BRANCH   1  20
HETATM   20  O1  UNL     1      22.599   1.937  52.684  1.00  0.00    -0.386 OA
HETATM   21  C1  UNL     1      21.560   1.941  51.762  1.00  0.00     0.202 C 
ENDBRANCH   1  20
TORSDOF 3
ENDMDL
MODEL 9
REMARK VINA RESULT:      -6.5      3.366      6.529
REMARK  3 active torsions:
REMARK  status: ('A' for Active; 'I' for Inactive)
REMARK    1  A    between atoms: O1_2  and  C2_3 
REMARK    2  A    between atoms: C8_11  and  N3_12 
REMARK    3  A    between atoms: N3_12  and  C9_13 
ROOT
HETATM    1  C2  UNL     1      21.748   4.300  50.788  1.00  0.00     0.163 A 
HETATM    2  C3  UNL     1      20.993   4.766  49.591  1.00  0.00     0.084 A 
HETATM    3  C4  UNL     1      21.817   5.079  48.412  1.00  0.00     0.093 A 
HETATM    4  N1  UNL     1      23.094   5.036  48.185  1.00  0.00    -0.263 NA
HETATM    5  C5  UNL     1      23.918   4.595  49.281  1.00  0.00     0.090 A 
HETATM    6  C6  UNL     1      25.107   4.319  49.780  1.00  0.00     0.101 A 
HETATM    7  C7  UNL     1      26.446   4.342  49.329  1.00  0.00     0.104 C 
HETATM    8  N2  UNL     1      27.543   4.356  48.957  1.00  0.00    -0.191 NA
HETATM    9  C8  UNL     1      24.406   3.976  51.012  1.00  0.00     0.067 A 
HETATM   10  C15 UNL     1      23.214   4.247  50.532  1.00  0.00     0.029 A 
ENDROOT
BRANCH   9  11
HETATM   11  N3  UNL     1      24.882   3.508  52.291  1.00  0.00    -0.354 N 
HETATM   12  H8  UNL     1      25.115   4.156  53.058  1.00  0.00     0.166 HD
BRANCH  11  13
HETATM   13  C9  UNL     1      25.058   2.146  52.573  1.00  0.00     0.033 A 
HETATM   14  C10 UNL     1      26.235   1.446  52.380  1.00  0.00     0.029 A 
HETATM   15  C11 UNL     1      26.340   0.088  52.683  1.00  0.00     0.004 A 
HETATM   16  C12 UNL     1      25.275  -0.612  53.190  1.00  0.00     0.019 A 
HETATM   17  C13 UNL     1      24.095   0.077  53.388  1.00  0.00     0.013 A 
HETATM   18 BR1  UNL     1      22.615  -0.893  54.091  1.00  0.00    -0.051 Br
HETATM   19  C14 UNL     1      24.003   1.414  53.085  1.00  0.00     0.048 A 
ENDBRANCH  11  13
ENDBRANCH   9  11
BRANCH   1  20
HETATM   20  O1  UNL     1      21.345   3.007  51.162  1.00  0.00    -0.386 OA
HETATM   21  C1  UNL     1      20.595   3.016  52.332  1.00  0.00     0.202 C 
ENDBRANCH   1  20
TORSDOF 3
ENDMDL
