MODEL 1
REMARK VINA RESULT:      -7.4      0.000      0.000
REMARK  7 active torsions:
REMARK  status: ('A' for Active; 'I' for Inactive)
REMARK    1  A    between atoms: C2_2  and  C3_3 
REMARK    2  A    between atoms: C4_4  and  C5_5 
REMARK    3  A    between atoms: C6_6  and  C7_7 
REMARK    4  A    between atoms: C6_6  and  N1_9 
REMARK    5  A    between atoms: C7_7  and  O1_8 
REMARK    6  A    between atoms: N1_9  and  C8_10 
REMARK       I    between atoms: N4_21  and  C16_22 
REMARK    7  A    between atoms: C16_22  and  C17_24 
ROOT
HETATM    1  C8  UNL     1      26.432   3.455  49.885  1.00  0.00     0.103 C 
HETATM    2  C9  UNL     1      26.229   4.713  49.523  1.00  0.00     0.023 A 
HETATM    3  C10 UNL     1      25.000   5.404  49.894  1.00  0.00     0.122 A 
HETATM    4  N2  UNL     1      23.983   5.033  50.550  1.00  0.00    -0.166 NA
HETATM    5  C11 UNL     1      22.906   5.854  50.796  1.00  0.00     0.207 C 
HETATM    6  N3  UNL     1      22.001   6.546  51.023  1.00  0.00    -0.170 NA
HETATM    7  S1  UNL     1      25.188   7.063  49.184  1.00  0.00    -0.071 SA
HETATM    8  C12 UNL     1      26.819   6.731  48.474  1.00  0.00     0.010 A 
HETATM    9  C13 UNL     1      27.178   5.491  48.750  1.00  0.00    -0.027 A 
HETATM   10  C14 UNL     1      28.513   5.126  48.205  1.00  0.00     0.060 C 
HETATM   11  C15 UNL     1      29.527   6.183  48.567  1.00  0.00     0.131 C 
HETATM   12  N4  UNL     1      29.030   7.520  48.271  1.00  0.00    -0.347 N 
HETATM   13  C16 UNL     1      29.828   8.660  48.548  1.00  0.00     0.219 C 
HETATM   14  O2  UNL     1      29.362   9.794  48.278  1.00  0.00    -0.273 OA
HETATM   15  C19 UNL     1      27.705   7.630  47.690  1.00  0.00     0.172 C 
ENDROOT
BRANCH   1  16
HETATM   16  N1  UNL     1      25.457   2.768  50.636  1.00  0.00    -0.366 N 
HETATM   17  H10 UNL     1      24.397   2.807  50.555  1.00  0.00     0.165 HD
BRANCH  16  18
HETATM   18  C6  UNL     1      25.694   1.849  51.695  1.00  0.00     0.032 C 
HETATM   19  C5  UNL     1      26.598   0.884  51.668  1.00  0.00     0.027 C 
BRANCH  19  20
HETATM   20  C4  UNL     1      26.774  -0.015  52.796  1.00  0.00     0.002 C 
HETATM   21  C3  UNL     1      27.814   0.048  53.615  1.00  0.00    -0.001 C 
BRANCH  21  22
HETATM   22  C2  UNL     1      28.928   0.981  53.550  1.00  0.00    -0.010 C 
HETATM   23  C1  UNL     1      28.891   2.272  53.925  1.00  0.00     0.011 C 
ENDBRANCH  21  22
ENDBRANCH  19  20
BRANCH  18  24
HETATM   24  C7  UNL     1      24.723   2.246  52.741  1.00  0.00     0.220 C 
BRANCH  24  25
HETATM   25  O1  UNL     1      24.833   3.590  53.104  1.00  0.00    -0.395 OA
HETATM   26  H9  UNL     1      23.986   3.807  53.573  1.00  0.00     0.209 HD
ENDBRANCH  24  25
ENDBRANCH  18  24
ENDBRANCH  16  18
ENDBRANCH   1  16
BRANCH  13  27
HETATM   27  C17 UNL     1      31.171   8.487  49.141  1.00  0.00     0.098 C 
HETATM   28  C18 UNL     1      32.269   8.692  48.142  1.00  0.00     0.014 C 
ENDBRANCH  13  27
TORSDOF 7
ENDMDL
MODEL 2
REMARK VINA RESULT:      -7.2      5.501      6.930
REMARK  7 active torsions:
REMARK  status: ('A' for Active; 'I' for Inactive)
REMARK    1  A    between atoms: C2_2  and  C3_3 
REMARK    2  A    between atoms: C4_4  and  C5_5 
REMARK    3  A    between atoms: C6_6  and  C7_7 
REMARK    4  A    between atoms: C6_6  and  N1_9 
REMARK    5  A    between atoms: C7_7  and  O1_8 
REMARK    6  A    between atoms: N1_9  and  C8_10 
REMARK       I    between atoms: N4_21  and  C16_22 
REMARK    7  A    between atoms: C16_22  and  C17_24 
ROOT
HETATM    1  C8  UNL     1      25.009   1.814  52.516  1.00  0.00     0.103 C 
HETATM    2  C9  UNL     1      23.853   1.431  51.996  1.00  0.00     0.023 A 
HETATM    3  C10 UNL     1      22.985   0.505  52.715  1.00  0.00     0.122 A 
HETATM    4  N2  UNL     1      23.104  -0.072  53.836  1.00  0.00    -0.166 NA
HETATM    5  C11 UNL     1      22.153  -0.927  54.346  1.00  0.00     0.207 C 
HETATM    6  N3  UNL     1      21.348  -1.636  54.790  1.00  0.00    -0.170 NA
HETATM    7  S1  UNL     1      21.555   0.290  51.620  1.00  0.00    -0.071 SA
HETATM    8  C12 UNL     1      22.187   1.402  50.339  1.00  0.00     0.010 A 
HETATM    9  C13 UNL     1      23.360   1.882  50.709  1.00  0.00    -0.027 A 
HETATM   10  C14 UNL     1      23.960   2.810  49.714  1.00  0.00     0.060 C 
HETATM   11  C15 UNL     1      22.946   3.846  49.295  1.00  0.00     0.131 C 
HETATM   12  N4  UNL     1      21.671   3.232  48.949  1.00  0.00    -0.347 N 
HETATM   13  C16 UNL     1      20.576   4.036  48.538  1.00  0.00     0.219 C 
HETATM   14  O2  UNL     1      19.494   3.468  48.249  1.00  0.00    -0.273 OA
HETATM   15  C19 UNL     1      21.574   1.788  49.042  1.00  0.00     0.172 C 
ENDROOT
BRANCH   1  16
HETATM   16  N1  UNL     1      25.415   1.329  53.775  1.00  0.00    -0.366 N 
HETATM   17  H10 UNL     1      24.828   1.131  54.639  1.00  0.00     0.165 HD
BRANCH  16  18
HETATM   18  C6  UNL     1      26.740   0.990  54.167  1.00  0.00     0.032 C 
HETATM   19  C5  UNL     1      27.837   1.430  53.575  1.00  0.00     0.027 C 
BRANCH  19  20
HETATM   20  C4  UNL     1      29.155   1.032  54.040  1.00  0.00     0.002 C 
HETATM   21  C3  UNL     1      29.708  -0.134  53.738  1.00  0.00    -0.001 C 
BRANCH  21  22
HETATM   22  C2  UNL     1      29.134  -1.192  52.921  1.00  0.00    -0.010 C 
HETATM   23  C1  UNL     1      29.021  -2.484  53.278  1.00  0.00     0.011 C 
ENDBRANCH  21  22
ENDBRANCH  19  20
BRANCH  18  24
HETATM   24  C7  UNL     1      26.553   0.083  55.324  1.00  0.00     0.220 C 
BRANCH  24  25
HETATM   25  O1  UNL     1      25.682  -0.975  55.050  1.00  0.00    -0.395 OA
HETATM   26  H9  UNL     1      26.186  -1.798  55.283  1.00  0.00     0.209 HD
ENDBRANCH  24  25
ENDBRANCH  18  24
ENDBRANCH  16  18
ENDBRANCH   1  16
BRANCH  13  27
HETATM   27  C17 UNL     1      20.733   5.504  48.463  1.00  0.00     0.098 C 
HETATM   28  C18 UNL     1      20.035   6.213  49.584  1.00  0.00     0.014 C 
ENDBRANCH  13  27
TORSDOF 7
ENDMDL
MODEL 3
REMARK VINA RESULT:      -7.0      1.463      2.366
REMARK  7 active torsions:
REMARK  status: ('A' for Active; 'I' for Inactive)
REMARK    1  A    between atoms: C2_2  and  C3_3 
REMARK    2  A    between atoms: C4_4  and  C5_5 
REMARK    3  A    between atoms: C6_6  and  C7_7 
REMARK    4  A    between atoms: C6_6  and  N1_9 
REMARK    5  A    between atoms: C7_7  and  O1_8 
REMARK    6  A    between atoms: N1_9  and  C8_10 
REMARK       I    between atoms: N4_21  and  C16_22 
REMARK    7  A    between atoms: C16_22  and  C17_24 
ROOT
HETATM    1  C8  UNL     1      26.369   3.587  49.858  1.00  0.00     0.103 C 
HETATM    2  C9  UNL     1      26.256   4.849  49.473  1.00  0.00     0.023 A 
HETATM    3  C10 UNL     1      25.065   5.622  49.803  1.00  0.00     0.122 A 
HETATM    4  N2  UNL     1      24.011   5.326  50.439  1.00  0.00    -0.166 NA
HETATM    5  C11 UNL     1      22.982   6.217  50.647  1.00  0.00     0.207 C 
HETATM    6  N3  UNL     1      22.118   6.968  50.841  1.00  0.00    -0.170 NA
HETATM    7  S1  UNL     1      25.374   7.255  49.075  1.00  0.00    -0.071 SA
HETATM    8  C12 UNL     1      26.997   6.809  48.411  1.00  0.00     0.010 A 
HETATM    9  C13 UNL     1      27.270   5.553  48.713  1.00  0.00    -0.027 A 
HETATM   10  C14 UNL     1      28.592   5.097  48.206  1.00  0.00     0.060 C 
HETATM   11  C15 UNL     1      29.662   6.093  48.579  1.00  0.00     0.131 C 
HETATM   12  N4  UNL     1      29.258   7.454  48.251  1.00  0.00    -0.347 N 
HETATM   13  C16 UNL     1      30.120   8.546  48.532  1.00  0.00     0.219 C 
HETATM   14  O2  UNL     1      29.734   9.703  48.235  1.00  0.00    -0.273 OA
HETATM   15  C19 UNL     1      27.957   7.638  47.636  1.00  0.00     0.172 C 
ENDROOT
BRANCH   1  16
HETATM   16  N1  UNL     1      25.336   2.975  50.594  1.00  0.00    -0.366 N 
HETATM   17  H10 UNL     1      24.287   3.150  50.551  1.00  0.00     0.165 HD
BRANCH  16  18
HETATM   18  C6  UNL     1      25.482   1.961  51.580  1.00  0.00     0.032 C 
HETATM   19  C5  UNL     1      24.497   1.208  52.040  1.00  0.00     0.027 C 
BRANCH  19  20
HETATM   20  C4  UNL     1      24.734   0.193  53.052  1.00  0.00     0.002 C 
HETATM   21  C3  UNL     1      23.758  -0.482  53.642  1.00  0.00    -0.001 C 
BRANCH  21  22
HETATM   22  C2  UNL     1      22.329  -0.347  53.406  1.00  0.00    -0.010 C 
HETATM   23  C1  UNL     1      21.417   0.040  54.315  1.00  0.00     0.011 C 
ENDBRANCH  21  22
ENDBRANCH  19  20
BRANCH  18  24
HETATM   24  C7  UNL     1      26.925   1.991  51.918  1.00  0.00     0.220 C 
BRANCH  24  25
HETATM   25  O1  UNL     1      27.184   2.615  53.141  1.00  0.00    -0.395 OA
HETATM   26  H9  UNL     1      26.598   3.416  53.157  1.00  0.00     0.209 HD
ENDBRANCH  24  25
ENDBRANCH  18  24
ENDBRANCH  16  18
ENDBRANCH   1  16
BRANCH  13  27
HETATM   27  C17 UNL     1      31.435   8.297  49.161  1.00  0.00     0.098 C 
HETATM   28  C18 UNL     1      32.569   8.438  48.191  1.00  0.00     0.014 C 
ENDBRANCH  13  27
TORSDOF 7
ENDMDL
MODEL 4
REMARK VINA RESULT:      -7.0      2.963      4.493
REMARK  7 active torsions:
REMARK  status: ('A' for Active; 'I' for Inactive)
REMARK    1  A    between atoms: C2_2  and  C3_3 
REMARK    2  A    between atoms: C4_4  and  C5_5 
REMARK    3  A    between atoms: C6_6  and  C7_7 
REMARK    4  A    between atoms: C6_6  and  N1_9 
REMARK    5  A    between atoms: C7_7  and  O1_8 
REMARK    6  A    between atoms: N1_9  and  C8_10 
REMARK       I    between atoms: N4_21  and  C16_22 
REMARK    7  A    between atoms: C16_22  and  C17_24 
ROOT
HETATM    1  C8  UNL     1      28.116   5.551  48.492  1.00  0.00     0.103 C 
HETATM    2  C9  UNL     1      28.997   6.496  48.202  1.00  0.00     0.023 A 
HETATM    3  C10 UNL     1      28.676   7.902  48.413  1.00  0.00     0.122 A 
HETATM    4  N2  UNL     1      27.638   8.477  48.855  1.00  0.00    -0.166 NA
HETATM    5  C11 UNL     1      27.531   9.844  48.980  1.00  0.00     0.207 C 
HETATM    6  N3  UNL     1      27.440  10.995  49.104  1.00  0.00    -0.170 NA
HETATM    7  S1  UNL     1      30.166   8.788  47.879  1.00  0.00    -0.071 SA
HETATM    8  C12 UNL     1      31.072   7.286  47.432  1.00  0.00     0.010 A 
HETATM    9  C13 UNL     1      30.318   6.228  47.665  1.00  0.00    -0.027 A 
HETATM   10  C14 UNL     1      30.983   4.942  47.327  1.00  0.00     0.060 C 
HETATM   11  C15 UNL     1      32.362   4.895  47.939  1.00  0.00     0.131 C 
HETATM   12  N4  UNL     1      33.104   6.119  47.669  1.00  0.00    -0.347 N 
HETATM   13  C16 UNL     1      34.423   6.282  48.168  1.00  0.00     0.219 C 
HETATM   14  O2  UNL     1      35.028   7.352  47.913  1.00  0.00    -0.273 OA
HETATM   15  C19 UNL     1      32.445   7.144  46.883  1.00  0.00     0.172 C 
ENDROOT
BRANCH   1  16
HETATM   16  N1  UNL     1      26.852   5.896  49.010  1.00  0.00    -0.366 N 
HETATM   17  H10 UNL     1      26.326   6.817  48.937  1.00  0.00     0.165 HD
BRANCH  16  18
HETATM   18  C6  UNL     1      25.987   5.057  49.764  1.00  0.00     0.032 C 
HETATM   19  C5  UNL     1      26.068   3.738  49.812  1.00  0.00     0.027 C 
BRANCH  19  20
HETATM   20  C4  UNL     1      25.139   2.955  50.610  1.00  0.00     0.002 C 
HETATM   21  C3  UNL     1      25.525   1.975  51.414  1.00  0.00    -0.001 C 
BRANCH  21  22
HETATM   22  C2  UNL     1      26.884   1.513  51.647  1.00  0.00    -0.010 C 
HETATM   23  C1  UNL     1      27.334   0.937  52.776  1.00  0.00     0.011 C 
ENDBRANCH  21  22
ENDBRANCH  19  20
BRANCH  18  24
HETATM   24  C7  UNL     1      25.050   6.000  50.419  1.00  0.00     0.220 C 
BRANCH  24  25
HETATM   25  O1  UNL     1      25.688   7.137  50.923  1.00  0.00    -0.395 OA
HETATM   26  H9  UNL     1      25.935   6.908  51.857  1.00  0.00     0.209 HD
ENDBRANCH  24  25
ENDBRANCH  18  24
ENDBRANCH  16  18
ENDBRANCH   1  16
BRANCH  13  27
HETATM   27  C17 UNL     1      35.044   5.202  48.964  1.00  0.00     0.098 C 
HETATM   28  C18 UNL     1      36.187   5.693  49.801  1.00  0.00     0.014 C 
ENDBRANCH  13  27
TORSDOF 7
ENDMDL
MODEL 5
REMARK VINA RESULT:      -7.0      1.648      2.080
REMARK  7 active torsions:
REMARK  status: ('A' for Active; 'I' for Inactive)
REMARK    1  A    between atoms: C2_2  and  C3_3 
REMARK    2  A    between atoms: C4_4  and  C5_5 
REMARK    3  A    between atoms: C6_6  and  C7_7 
REMARK    4  A    between atoms: C6_6  and  N1_9 
REMARK    5  A    between atoms: C7_7  and  O1_8 
REMARK    6  A    between atoms: N1_9  and  C8_10 
REMARK       I    between atoms: N4_21  and  C16_22 
REMARK    7  A    between atoms: C16_22  and  C17_24 
ROOT
HETATM    1  C8  UNL     1      26.014   4.620  49.587  1.00  0.00     0.103 C 
HETATM    2  C9  UNL     1      26.281   5.776  49.000  1.00  0.00     0.023 A 
HETATM    3  C10 UNL     1      25.283   6.838  48.961  1.00  0.00     0.122 A 
HETATM    4  N2  UNL     1      24.100   6.906  49.407  1.00  0.00    -0.166 NA
HETATM    5  C11 UNL     1      23.305   8.021  49.264  1.00  0.00     0.207 C 
HETATM    6  N3  UNL     1      22.635   8.964  49.162  1.00  0.00    -0.170 NA
HETATM    7  S1  UNL     1      26.101   8.190  48.070  1.00  0.00    -0.071 SA
HETATM    8  C12 UNL     1      27.648   7.284  47.824  1.00  0.00     0.010 A 
HETATM    9  C13 UNL     1      27.548   6.083  48.363  1.00  0.00    -0.027 A 
HETATM   10  C14 UNL     1      28.778   5.262  48.210  1.00  0.00     0.060 C 
HETATM   11  C15 UNL     1      29.988   6.057  48.636  1.00  0.00     0.131 C 
HETATM   12  N4  UNL     1      29.993   7.382  48.030  1.00  0.00    -0.347 N 
HETATM   13  C16 UNL     1      31.042   8.295  48.310  1.00  0.00     0.219 C 
HETATM   14  O2  UNL     1      31.008   9.427  47.768  1.00  0.00    -0.273 OA
HETATM   15  C19 UNL     1      28.895   7.718  47.143  1.00  0.00     0.172 C 
ENDROOT
BRANCH   1  16
HETATM   16  N1  UNL     1      24.757   4.402  50.183  1.00  0.00    -0.366 N 
HETATM   17  H10 UNL     1      23.803   4.774  49.893  1.00  0.00     0.165 HD
BRANCH  16  18
HETATM   18  C6  UNL     1      24.489   3.612  51.335  1.00  0.00     0.032 C 
HETATM   19  C5  UNL     1      24.994   2.411  51.561  1.00  0.00     0.027 C 
BRANCH  19  20
HETATM   20  C4  UNL     1      24.666   1.671  52.767  1.00  0.00     0.002 C 
HETATM   21  C3  UNL     1      25.238   0.519  53.088  1.00  0.00    -0.001 C 
BRANCH  21  22
HETATM   22  C2  UNL     1      26.256  -0.195  52.333  1.00  0.00    -0.010 C 
HETATM   23  C1  UNL     1      26.945  -1.266  52.765  1.00  0.00     0.011 C 
ENDBRANCH  21  22
ENDBRANCH  19  20
BRANCH  18  24
HETATM   24  C7  UNL     1      23.563   4.447  52.138  1.00  0.00     0.220 C 
BRANCH  24  25
HETATM   25  O1  UNL     1      24.017   5.758  52.302  1.00  0.00    -0.395 OA
HETATM   26  H9  UNL     1      23.806   6.218  51.448  1.00  0.00     0.209 HD
ENDBRANCH  24  25
ENDBRANCH  18  24
ENDBRANCH  16  18
ENDBRANCH   1  16
BRANCH  13  27
HETATM   27  C17 UNL     1      32.135   7.897  49.222  1.00  0.00     0.098 C 
HETATM   28  C18 UNL     1      33.411   7.602  48.493  1.00  0.00     0.014 C 
ENDBRANCH  13  27
TORSDOF 7
ENDMDL
MODEL 6
REMARK VINA RESULT:      -6.9      4.971      7.731
REMARK  7 active torsions:
REMARK  status: ('A' for Active; 'I' for Inactive)
REMARK    1  A    between atoms: C2_2  and  C3_3 
REMARK    2  A    between atoms: C4_4  and  C5_5 
REMARK    3  A    between atoms: C6_6  and  C7_7 
REMARK    4  A    between atoms: C6_6  and  N1_9 
REMARK    5  A    between atoms: C7_7  and  O1_8 
REMARK    6  A    between atoms: N1_9  and  C8_10 
REMARK       I    between atoms: N4_21  and  C16_22 
REMARK    7  A    between atoms: C16_22  and  C17_24 
ROOT
HETATM    1  C8  UNL     1      22.135   0.521  52.782  1.00  0.00     0.103 C 
HETATM    2  C9  UNL     1      23.063   1.367  52.364  1.00  0.00     0.023 A 
HETATM    3  C10 UNL     1      22.722   2.750  52.052  1.00  0.00     0.122 A 
HETATM    4  N2  UNL     1      21.627   3.384  52.098  1.00  0.00    -0.166 NA
HETATM    5  C11 UNL     1      21.513   4.712  51.757  1.00  0.00     0.207 C 
HETATM    6  N3  UNL     1      21.411   5.838  51.487  1.00  0.00    -0.170 NA
HETATM    7  S1  UNL     1      24.293   3.493  51.532  1.00  0.00    -0.071 SA
HETATM    8  C12 UNL     1      25.250   1.973  51.756  1.00  0.00     0.010 A 
HETATM    9  C13 UNL     1      24.456   1.008  52.181  1.00  0.00    -0.027 A 
HETATM   10  C14 UNL     1      25.159  -0.285  52.395  1.00  0.00     0.060 C 
HETATM   11  C15 UNL     1      26.403  -0.067  53.222  1.00  0.00     0.131 C 
HETATM   12  N4  UNL     1      27.194   1.043  52.708  1.00  0.00    -0.347 N 
HETATM   13  C16 UNL     1      28.402   1.420  53.351  1.00  0.00     0.219 C 
HETATM   14  O2  UNL     1      29.054   2.383  52.877  1.00  0.00    -0.273 OA
HETATM   15  C19 UNL     1      26.699   1.732  51.532  1.00  0.00     0.172 C 
ENDROOT
BRANCH   1  16
HETATM   16  N1  UNL     1      20.801   0.949  52.933  1.00  0.00    -0.366 N 
HETATM   17  H10 UNL     1      20.415   1.747  53.521  1.00  0.00     0.165 HD
BRANCH  16  18
HETATM   18  C6  UNL     1      19.653   0.386  52.310  1.00  0.00     0.032 C 
HETATM   19  C5  UNL     1      18.686  -0.253  52.946  1.00  0.00     0.027 C 
BRANCH  19  20
HETATM   20  C4  UNL     1      17.546  -0.799  52.230  1.00  0.00     0.002 C 
HETATM   21  C3  UNL     1      16.978  -1.953  52.548  1.00  0.00    -0.001 C 
BRANCH  21  22
HETATM   22  C2  UNL     1      17.363  -2.855  53.622  1.00  0.00    -0.010 C 
HETATM   23  C1  UNL     1      17.165  -4.186  53.637  1.00  0.00     0.011 C 
ENDBRANCH  21  22
ENDBRANCH  19  20
BRANCH  18  24
HETATM   24  C7  UNL     1      19.837   0.693  50.871  1.00  0.00     0.220 C 
BRANCH  24  25
HETATM   25  O1  UNL     1      19.380   1.967  50.524  1.00  0.00    -0.395 OA
HETATM   26  H9  UNL     1      18.926   1.854  49.649  1.00  0.00     0.209 HD
ENDBRANCH  24  25
ENDBRANCH  18  24
ENDBRANCH  16  18
ENDBRANCH   1  16
BRANCH  13  27
HETATM   27  C17 UNL     1      28.857   0.681  54.547  1.00  0.00     0.098 C 
HETATM   28  C18 UNL     1      29.648  -0.543  54.197  1.00  0.00     0.014 C 
ENDBRANCH  13  27
TORSDOF 7
ENDMDL
MODEL 7
REMARK VINA RESULT:      -6.8      1.267      1.462
REMARK  7 active torsions:
REMARK  status: ('A' for Active; 'I' for Inactive)
REMARK    1  A    between atoms: C2_2  and  C3_3 
REMARK    2  A    between atoms: C4_4  and  C5_5 
REMARK    3  A    between atoms: C6_6  and  C7_7 
REMARK    4  A    between atoms: C6_6  and  N1_9 
REMARK    5  A    between atoms: C7_7  and  O1_8 
REMARK    6  A    between atoms: N1_9  and  C8_10 
REMARK       I    between atoms: N4_21  and  C16_22 
REMARK    7  A    between atoms: C16_22  and  C17_24 
ROOT
HETATM    1  C8  UNL     1      25.891   4.022  50.467  1.00  0.00     0.103 C 
HETATM    2  C9  UNL     1      25.690   5.153  49.809  1.00  0.00     0.023 A 
HETATM    3  C10 UNL     1      24.473   5.929  50.020  1.00  0.00     0.122 A 
HETATM    4  N2  UNL     1      23.467   5.742  50.766  1.00  0.00    -0.166 NA
HETATM    5  C11 UNL     1      22.401   6.610  50.821  1.00  0.00     0.207 C 
HETATM    6  N3  UNL     1      21.505   7.347  50.887  1.00  0.00    -0.170 NA
HETATM    7  S1  UNL     1      24.657   7.359  48.919  1.00  0.00    -0.071 SA
HETATM    8  C12 UNL     1      26.271   6.843  48.283  1.00  0.00     0.010 A 
HETATM    9  C13 UNL     1      26.628   5.706  48.850  1.00  0.00    -0.027 A 
HETATM   10  C14 UNL     1      27.948   5.203  48.388  1.00  0.00     0.060 C 
HETATM   11  C15 UNL     1      28.977   6.305  48.459  1.00  0.00     0.131 C 
HETATM   12  N4  UNL     1      28.482   7.533  47.851  1.00  0.00    -0.347 N 
HETATM   13  C16 UNL     1      29.293   8.697  47.823  1.00  0.00     0.219 C 
HETATM   14  O2  UNL     1      28.829   9.735  47.290  1.00  0.00    -0.273 OA
HETATM   15  C19 UNL     1      27.146   7.511  47.285  1.00  0.00     0.172 C 
ENDROOT
BRANCH   1  16
HETATM   16  N1  UNL     1      24.929   3.553  51.382  1.00  0.00    -0.366 N 
HETATM   17  H10 UNL     1      24.214   4.104  51.945  1.00  0.00     0.165 HD
BRANCH  16  18
HETATM   18  C6  UNL     1      24.703   2.200  51.758  1.00  0.00     0.032 C 
HETATM   19  C5  UNL     1      25.480   1.503  52.570  1.00  0.00     0.027 C 
BRANCH  19  20
HETATM   20  C4  UNL     1      25.176   0.122  52.901  1.00  0.00     0.002 C 
HETATM   21  C3  UNL     1      26.100  -0.826  52.971  1.00  0.00    -0.001 C 
BRANCH  21  22
HETATM   22  C2  UNL     1      27.529  -0.677  52.741  1.00  0.00    -0.010 C 
HETATM   23  C1  UNL     1      28.467  -0.547  53.696  1.00  0.00     0.011 C 
ENDBRANCH  21  22
ENDBRANCH  19  20
BRANCH  18  24
HETATM   24  C7  UNL     1      23.460   1.828  51.041  1.00  0.00     0.220 C 
BRANCH  24  25
HETATM   25  O1  UNL     1      22.581   2.903  50.885  1.00  0.00    -0.395 OA
HETATM   26  H9  UNL     1      21.713   2.498  50.626  1.00  0.00     0.209 HD
ENDBRANCH  24  25
ENDBRANCH  18  24
ENDBRANCH  16  18
ENDBRANCH   1  16
BRANCH  13  27
HETATM   27  C17 UNL     1      30.647   8.661  48.416  1.00  0.00     0.098 C 
HETATM   28  C18 UNL     1      30.843   9.718  49.460  1.00  0.00     0.014 C 
ENDBRANCH  13  27
TORSDOF 7
ENDMDL
MODEL 8
REMARK VINA RESULT:      -6.6      2.786      7.514
REMARK  7 active torsions:
REMARK  status: ('A' for Active; 'I' for Inactive)
REMARK    1  A    between atoms: C2_2  and  C3_3 
REMARK    2  A    between atoms: C4_4  and  C5_5 
REMARK    3  A    between atoms: C6_6  and  C7_7 
REMARK    4  A    between atoms: C6_6  and  N1_9 
REMARK    5  A    between atoms: C7_7  and  O1_8 
REMARK    6  A    between atoms: N1_9  and  C8_10 
REMARK       I    between atoms: N4_21  and  C16_22 
REMARK    7  A    between atoms: C16_22  and  C17_24 
ROOT
HETATM    1  C8  UNL     1      24.107   5.871  50.671  1.00  0.00     0.103 C 
HETATM    2  C9  UNL     1      23.531   4.681  50.599  1.00  0.00     0.023 A 
HETATM    3  C10 UNL     1      22.908   4.231  49.360  1.00  0.00     0.122 A 
HETATM    4  N2  UNL     1      22.784   4.779  48.225  1.00  0.00    -0.166 NA
HETATM    5  C11 UNL     1      22.149   4.175  47.164  1.00  0.00     0.207 C 
HETATM    6  N3  UNL     1      21.631   3.665  46.258  1.00  0.00    -0.170 NA
HETATM    7  S1  UNL     1      22.272   2.578  49.753  1.00  0.00    -0.071 SA
HETATM    8  C12 UNL     1      22.856   2.604  51.465  1.00  0.00     0.010 A 
HETATM    9  C13 UNL     1      23.468   3.748  51.708  1.00  0.00    -0.027 A 
HETATM   10  C14 UNL     1      23.984   3.860  53.097  1.00  0.00     0.060 C 
HETATM   11  C15 UNL     1      24.770   2.624  53.459  1.00  0.00     0.131 C 
HETATM   12  N4  UNL     1      24.039   1.411  53.117  1.00  0.00    -0.347 N 
HETATM   13  C16 UNL     1      24.609   0.136  53.366  1.00  0.00     0.219 C 
HETATM   14  O2  UNL     1      23.946  -0.885  53.056  1.00  0.00    -0.273 OA
HETATM   15  C19 UNL     1      22.726   1.565  52.519  1.00  0.00     0.172 C 
ENDROOT
BRANCH   1  16
HETATM   16  N1  UNL     1      24.125   6.719  49.546  1.00  0.00    -0.366 N 
HETATM   17  H10 UNL     1      23.320   7.018  48.919  1.00  0.00     0.165 HD
BRANCH  16  18
HETATM   18  C6  UNL     1      25.260   7.375  48.996  1.00  0.00     0.032 C 
HETATM   19  C5  UNL     1      25.849   7.040  47.860  1.00  0.00     0.027 C 
BRANCH  19  20
HETATM   20  C4  UNL     1      27.008   7.765  47.370  1.00  0.00     0.002 C 
HETATM   21  C3  UNL     1      28.251   7.333  47.526  1.00  0.00    -0.001 C 
BRANCH  21  22
HETATM   22  C2  UNL     1      28.679   6.109  48.185  1.00  0.00    -0.010 C 
HETATM   23  C1  UNL     1      29.863   5.496  48.008  1.00  0.00     0.011 C 
ENDBRANCH  21  22
ENDBRANCH  19  20
BRANCH  18  24
HETATM   24  C7  UNL     1      25.567   8.446  49.974  1.00  0.00     0.220 C 
BRANCH  24  25
HETATM   25  O1  UNL     1      26.697   8.168  50.747  1.00  0.00    -0.395 OA
HETATM   26  H9  UNL     1      26.473   7.346  51.255  1.00  0.00     0.209 HD
ENDBRANCH  24  25
ENDBRANCH  18  24
ENDBRANCH  16  18
ENDBRANCH   1  16
BRANCH  13  27
HETATM   27  C17 UNL     1      25.952   0.040  53.977  1.00  0.00     0.098 C 
HETATM   28  C18 UNL     1      26.985  -0.460  53.013  1.00  0.00     0.014 C 
ENDBRANCH  13  27
TORSDOF 7
ENDMDL
MODEL 9
REMARK VINA RESULT:      -6.5      5.208      9.547
REMARK  7 active torsions:
REMARK  status: ('A' for Active; 'I' for Inactive)
REMARK    1  A    between atoms: C2_2  and  C3_3 
REMARK    2  A    between atoms: C4_4  and  C5_5 
REMARK    3  A    between atoms: C6_6  and  C7_7 
REMARK    4  A    between atoms: C6_6  and  N1_9 
REMARK    5  A    between atoms: C7_7  and  O1_8 
REMARK    6  A    between atoms: N1_9  and  C8_10 
REMARK       I    between atoms: N4_21  and  C16_22 
REMARK    7  A    between atoms: C16_22  and  C17_24 
ROOT
HETATM    1  C8  UNL     1      22.665   1.714  51.072  1.00  0.00     0.103 C 
HETATM    2  C9  UNL     1      21.611   1.108  51.598  1.00  0.00     0.023 A 
HETATM    3  C10 UNL     1      21.753   0.256  52.772  1.00  0.00     0.122 A 
HETATM    4  N2  UNL     1      22.760  -0.066  53.469  1.00  0.00    -0.166 NA
HETATM    5  C11 UNL     1      22.682  -0.901  54.561  1.00  0.00     0.207 C 
HETATM    6  N3  UNL     1      22.622  -1.591  55.494  1.00  0.00    -0.170 NA
HETATM    7  S1  UNL     1      20.069  -0.332  53.105  1.00  0.00    -0.071 SA
HETATM    8  C12 UNL     1      19.329   0.561  51.717  1.00  0.00     0.010 A 
HETATM    9  C13 UNL     1      20.265   1.233  51.072  1.00  0.00    -0.027 A 
HETATM   10  C14 UNL     1      19.747   2.002  49.910  1.00  0.00     0.060 C 
HETATM   11  C15 UNL     1      18.543   2.814  50.321  1.00  0.00     0.131 C 
HETATM   12  N4  UNL     1      17.586   2.006  51.064  1.00  0.00    -0.347 N 
HETATM   13  C16 UNL     1      16.386   2.584  51.553  1.00  0.00     0.219 C 
HETATM   14  O2  UNL     1      15.587   1.853  52.188  1.00  0.00    -0.273 OA
HETATM   15  C19 UNL     1      17.910   0.608  51.277  1.00  0.00     0.172 C 
ENDROOT
BRANCH   1  16
HETATM   16  N1  UNL     1      23.940   1.540  51.644  1.00  0.00    -0.366 N 
HETATM   17  H10 UNL     1      24.208   1.054  52.551  1.00  0.00     0.165 HD
BRANCH  16  18
HETATM   18  C6  UNL     1      25.178   1.992  51.110  1.00  0.00     0.032 C 
HETATM   19  C5  UNL     1      25.307   2.956  50.214  1.00  0.00     0.027 C 
BRANCH  19  20
HETATM   20  C4  UNL     1      26.613   3.356  49.720  1.00  0.00     0.002 C 
HETATM   21  C3  UNL     1      26.849   4.541  49.175  1.00  0.00    -0.001 C 
BRANCH  21  22
HETATM   22  C2  UNL     1      25.895   5.621  48.975  1.00  0.00    -0.010 C 
HETATM   23  C1  UNL     1      25.622   6.599  49.857  1.00  0.00     0.011 C 
ENDBRANCH  21  22
ENDBRANCH  19  20
BRANCH  18  24
HETATM   24  C7  UNL     1      26.193   1.147  51.784  1.00  0.00     0.220 C 
BRANCH  24  25
HETATM   25  O1  UNL     1      25.633   0.053  52.450  1.00  0.00    -0.395 OA
HETATM   26  H9  UNL     1      25.941   0.132  53.390  1.00  0.00     0.209 HD
ENDBRANCH  24  25
ENDBRANCH  18  24
ENDBRANCH  16  18
ENDBRANCH   1  16
BRANCH  13  27
HETATM   27  C17 UNL     1      16.108   4.015  51.305  1.00  0.00     0.098 C 
HETATM   28  C18 UNL     1      14.989   4.221  50.330  1.00  0.00     0.014 C 
ENDBRANCH  13  27
TORSDOF 7
ENDMDL
