MODEL 1
REMARK VINA RESULT:      -9.8      0.000      0.000
REMARK  0 active torsions:
REMARK  status: ('A' for Active; 'I' for Inactive)
ROOT
HETATM    1  C1  UNL     1      22.583  -0.983  54.313  1.00  0.00     0.045 A 
HETATM    2  C2  UNL     1      22.842  -1.559  55.370  1.00  0.00    -0.012 A 
HETATM    3  C3  UNL     1      23.104  -0.601  53.967  1.00  0.00     0.036 A 
HETATM    4  C4  UNL     1      24.545  -0.320  54.267  1.00  0.00     0.132 C 
HETATM    5  O1  UNL     1      25.525  -0.643  55.246  1.00  0.00    -0.316 OA
HETATM    6  C5  UNL     1      26.757  -0.180  54.806  1.00  0.00     0.173 A 
HETATM    7  N1  UNL     1      27.998  -0.140  55.120  1.00  0.00    -0.237 NA
HETATM    8  C6  UNL     1      28.927   0.467  54.332  1.00  0.00     0.119 A 
HETATM    9  C7  UNL     1      28.731   1.133  53.124  1.00  0.00     0.020 A 
HETATM   10  C8  UNL     1      27.385   1.172  52.691  1.00  0.00     0.015 A 
HETATM   11  C9  UNL     1      26.507   0.490  53.581  1.00  0.00     0.020 A 
HETATM   12  C10 UNL     1      25.110   0.605  53.191  1.00  0.00     0.153 C 
HETATM   13  N2  UNL     1      24.565   1.921  53.279  1.00  0.00    -0.406 N 
HETATM   14  C11 UNL     1      24.136   2.653  52.163  1.00  0.00     0.156 C 
HETATM   15  C12 UNL     1      22.845   2.301  51.560  1.00  0.00    -0.027 A 
HETATM   16  S1  UNL     1      22.345   1.705  49.988  1.00  0.00    -0.180 SA
HETATM   17  C13 UNL     1      20.877   0.753  50.513  1.00  0.00     0.048 A 
HETATM   18  C14 UNL     1      20.860   1.051  51.885  1.00  0.00     0.103 A 
HETATM   19  C15 UNL     1      20.919   1.373  53.098  1.00  0.00     0.046 A 
HETATM   20  C16 UNL     1      22.027   1.991  52.590  1.00  0.00     0.070 A 
HETATM   21  O2  UNL     1      19.806   0.079  52.348  1.00  0.00    -0.347 OA
HETATM   22  C17 UNL     1      20.409  -0.816  53.436  1.00  0.00     0.132 C 
HETATM   23  C18 UNL     1      21.125  -1.490  54.346  1.00  0.00     0.003 C 
HETATM   24  H8  UNL     1      24.455   2.324  54.190  1.00  0.00     0.154 HD
HETATM   25  H11 UNL     1      21.914   2.946  49.269  1.00  0.00     0.100 HD
ENDROOT
TORSDOF 0
ENDMDL
MODEL 2
REMARK VINA RESULT:      -9.3      2.747      5.735
REMARK  0 active torsions:
REMARK  status: ('A' for Active; 'I' for Inactive)
ROOT
HETATM    1  C1  UNL     1      23.321   0.661  53.364  1.00  0.00     0.045 A 
HETATM    2  C2  UNL     1      22.113   0.452  53.251  1.00  0.00    -0.012 A 
HETATM    3  C3  UNL     1      23.611   1.282  53.105  1.00  0.00     0.036 A 
HETATM    4  C4  UNL     1      23.034   2.472  52.399  1.00  0.00     0.132 C 
HETATM    5  O1  UNL     1      21.771   2.954  51.956  1.00  0.00    -0.316 OA
HETATM    6  C5  UNL     1      21.927   4.262  51.520  1.00  0.00     0.173 A 
HETATM    7  N1  UNL     1      21.277   5.261  51.053  1.00  0.00    -0.237 NA
HETATM    8  C6  UNL     1      21.882   6.440  50.740  1.00  0.00     0.119 A 
HETATM    9  C7  UNL     1      23.232   6.770  50.840  1.00  0.00     0.020 A 
HETATM   10  C8  UNL     1      24.053   5.724  51.325  1.00  0.00     0.015 A 
HETATM   11  C9  UNL     1      23.312   4.550  51.638  1.00  0.00     0.020 A 
HETATM   12  C10 UNL     1      24.160   3.441  52.048  1.00  0.00     0.153 C 
HETATM   13  N2  UNL     1      25.011   2.922  51.028  1.00  0.00    -0.406 N 
HETATM   14  C11 UNL     1      26.410   3.003  51.077  1.00  0.00     0.156 C 
HETATM   15  C12 UNL     1      27.125   2.075  51.961  1.00  0.00    -0.027 A 
HETATM   16  S1  UNL     1      28.160   2.265  53.365  1.00  0.00    -0.180 SA
HETATM   17  C13 UNL     1      27.752   0.703  54.218  1.00  0.00     0.048 A 
HETATM   18  C14 UNL     1      26.885   0.121  53.278  1.00  0.00     0.103 A 
HETATM   19  C15 UNL     1      26.125  -0.326  52.383  1.00  0.00     0.046 A 
HETATM   20  C16 UNL     1      26.462   0.900  51.880  1.00  0.00     0.070 A 
HETATM   21  O2  UNL     1      26.367  -1.041  54.088  1.00  0.00    -0.347 OA
HETATM   22  C17 UNL     1      24.839  -0.951  54.150  1.00  0.00     0.132 C 
HETATM   23  C18 UNL     1      23.527  -0.684  54.092  1.00  0.00     0.003 C 
HETATM   24  H8  UNL     1      24.584   2.449  50.255  1.00  0.00     0.154 HD
HETATM   25  H11 UNL     1      29.540   2.184  52.790  1.00  0.00     0.100 HD
ENDROOT
TORSDOF 0
ENDMDL
MODEL 3
REMARK VINA RESULT:      -8.8      1.998      3.538
REMARK  0 active torsions:
REMARK  status: ('A' for Active; 'I' for Inactive)
ROOT
HETATM    1  C1  UNL     1      23.436   3.134  51.970  1.00  0.00     0.045 A 
HETATM    2  C2  UNL     1      24.080   3.951  51.312  1.00  0.00    -0.012 A 
HETATM    3  C3  UNL     1      23.785   2.628  52.368  1.00  0.00     0.036 A 
HETATM    4  C4  UNL     1      25.233   2.313  52.593  1.00  0.00     0.132 C 
HETATM    5  O1  UNL     1      26.514   2.804  52.216  1.00  0.00    -0.316 OA
HETATM    6  C5  UNL     1      27.478   2.133  52.954  1.00  0.00     0.173 A 
HETATM    7  N1  UNL     1      28.741   2.071  53.156  1.00  0.00    -0.237 NA
HETATM    8  C6  UNL     1      29.293   1.193  54.038  1.00  0.00     0.119 A 
HETATM    9  C7  UNL     1      28.648   0.242  54.827  1.00  0.00     0.020 A 
HETATM   10  C8  UNL     1      27.243   0.206  54.664  1.00  0.00     0.015 A 
HETATM   11  C9  UNL     1      26.777   1.178  53.736  1.00  0.00     0.020 A 
HETATM   12  C10 UNL     1      25.345   1.085  53.493  1.00  0.00     0.153 C 
HETATM   13  N2  UNL     1      24.922  -0.104  52.826  1.00  0.00    -0.406 N 
HETATM   14  C11 UNL     1      24.104  -1.072  53.424  1.00  0.00     0.156 C 
HETATM   15  C12 UNL     1      22.668  -0.787  53.544  1.00  0.00    -0.027 A 
HETATM   16  S1  UNL     1      21.560  -0.600  54.890  1.00  0.00    -0.180 SA
HETATM   17  C13 UNL     1      20.399   0.584  54.125  1.00  0.00     0.048 A 
HETATM   18  C14 UNL     1      20.945   0.674  52.833  1.00  0.00     0.103 A 
HETATM   19  C15 UNL     1      21.496   0.691  51.704  1.00  0.00     0.046 A 
HETATM   20  C16 UNL     1      22.325  -0.136  52.410  1.00  0.00     0.070 A 
HETATM   21  O2  UNL     1      20.137   1.825  52.290  1.00  0.00    -0.347 OA
HETATM   22  C17 UNL     1      21.100   2.926  51.832  1.00  0.00     0.132 C 
HETATM   23  C18 UNL     1      22.100   3.757  51.511  1.00  0.00     0.003 C 
HETATM   24  H8  UNL     1      25.201  -0.232  51.873  1.00  0.00     0.154 HD
HETATM   25  H11 UNL     1      20.914  -1.947  54.995  1.00  0.00     0.100 HD
ENDROOT
TORSDOF 0
ENDMDL
MODEL 4
REMARK VINA RESULT:      -8.8      2.324      3.199
REMARK  0 active torsions:
REMARK  status: ('A' for Active; 'I' for Inactive)
ROOT
HETATM    1  C1  UNL     1      23.248  -0.396  53.521  1.00  0.00     0.045 A 
HETATM    2  C2  UNL     1      24.316  -0.608  54.096  1.00  0.00    -0.012 A 
HETATM    3  C3  UNL     1      23.208   0.116  52.999  1.00  0.00     0.036 A 
HETATM    4  C4  UNL     1      24.208   1.062  52.407  1.00  0.00     0.132 C 
HETATM    5  O1  UNL     1      25.588   1.384  52.525  1.00  0.00    -0.316 OA
HETATM    6  C5  UNL     1      25.922   2.271  51.512  1.00  0.00     0.173 A 
HETATM    7  N1  UNL     1      26.908   2.918  51.013  1.00  0.00    -0.237 NA
HETATM    8  C6  UNL     1      26.768   3.738  49.935  1.00  0.00     0.119 A 
HETATM    9  C7  UNL     1      25.609   4.031  49.219  1.00  0.00     0.020 A 
HETATM   10  C8  UNL     1      24.447   3.386  49.703  1.00  0.00     0.015 A 
HETATM   11  C9  UNL     1      24.716   2.541  50.816  1.00  0.00     0.020 A 
HETATM   12  C10 UNL     1      23.511   1.947  51.376  1.00  0.00     0.153 C 
HETATM   13  N2  UNL     1      22.611   2.871  51.988  1.00  0.00    -0.406 N 
HETATM   14  C11 UNL     1      21.325   3.133  51.496  1.00  0.00     0.156 C 
HETATM   15  C12 UNL     1      20.272   2.142  51.749  1.00  0.00    -0.027 A 
HETATM   16  S1  UNL     1      19.265   1.131  50.730  1.00  0.00    -0.180 SA
HETATM   17  C13 UNL     1      19.049  -0.278  51.872  1.00  0.00     0.048 A 
HETATM   18  C14 UNL     1      19.731   0.205  53.001  1.00  0.00     0.103 A 
HETATM   19  C15 UNL     1      20.355   0.717  53.964  1.00  0.00     0.046 A 
HETATM   20  C16 UNL     1      20.497   1.673  52.997  1.00  0.00     0.070 A 
HETATM   21  O2  UNL     1      19.758  -1.045  53.842  1.00  0.00    -0.347 OA
HETATM   22  C17 UNL     1      21.216  -1.376  54.180  1.00  0.00     0.132 C 
HETATM   23  C18 UNL     1      22.540  -1.492  54.347  1.00  0.00     0.003 C 
HETATM   24  H8  UNL     1      22.906   3.327  52.830  1.00  0.00     0.154 HD
HETATM   25  H11 UNL     1      17.986   1.904  50.631  1.00  0.00     0.100 HD
ENDROOT
TORSDOF 0
ENDMDL
MODEL 5
REMARK VINA RESULT:      -8.6      1.626      2.068
REMARK  0 active torsions:
REMARK  status: ('A' for Active; 'I' for Inactive)
ROOT
HETATM    1  C1  UNL     1      20.901  -0.002  52.833  1.00  0.00     0.045 A 
HETATM    2  C2  UNL     1      20.852  -0.870  53.705  1.00  0.00    -0.012 A 
HETATM    3  C3  UNL     1      21.546   0.289  52.642  1.00  0.00     0.036 A 
HETATM    4  C4  UNL     1      22.954   0.066  53.105  1.00  0.00     0.132 C 
HETATM    5  O1  UNL     1      23.670  -0.755  54.020  1.00  0.00    -0.316 OA
HETATM    6  C5  UNL     1      25.029  -0.568  53.808  1.00  0.00     0.173 A 
HETATM    7  N1  UNL     1      26.181  -0.962  54.204  1.00  0.00    -0.237 NA
HETATM    8  C6  UNL     1      27.337  -0.470  53.679  1.00  0.00     0.119 A 
HETATM    9  C7  UNL     1      27.490   0.502  52.691  1.00  0.00     0.020 A 
HETATM   10  C8  UNL     1      26.274   1.028  52.198  1.00  0.00     0.015 A 
HETATM   11  C9  UNL     1      25.134   0.426  52.802  1.00  0.00     0.020 A 
HETATM   12  C10 UNL     1      23.882   1.027  52.367  1.00  0.00     0.153 C 
HETATM   13  N2  UNL     1      23.686   2.379  52.779  1.00  0.00    -0.406 N 
HETATM   14  C11 UNL     1      23.621   3.456  51.883  1.00  0.00     0.156 C 
HETATM   15  C12 UNL     1      22.381   3.647  51.120  1.00  0.00    -0.027 A 
HETATM   16  S1  UNL     1      21.972   3.626  49.416  1.00  0.00    -0.180 SA
HETATM   17  C13 UNL     1      20.250   3.032  49.556  1.00  0.00     0.048 A 
HETATM   18  C14 UNL     1      20.117   2.974  50.953  1.00  0.00     0.103 A 
HETATM   19  C15 UNL     1      20.084   2.955  52.210  1.00  0.00     0.046 A 
HETATM   20  C16 UNL     1      21.374   3.337  51.967  1.00  0.00     0.070 A 
HETATM   21  O2  UNL     1      18.794   2.258  51.058  1.00  0.00    -0.347 OA
HETATM   22  C17 UNL     1      18.989   0.988  51.893  1.00  0.00     0.132 C 
HETATM   23  C18 UNL     1      19.372  -0.065  52.627  1.00  0.00     0.003 C 
HETATM   24  H8  UNL     1      23.556   2.558  53.756  1.00  0.00     0.154 HD
HETATM   25  H11 UNL     1      21.979   5.076  49.040  1.00  0.00     0.100 HD
ENDROOT
TORSDOF 0
ENDMDL
MODEL 6
REMARK VINA RESULT:      -8.5      6.006      7.478
REMARK  0 active torsions:
REMARK  status: ('A' for Active; 'I' for Inactive)
ROOT
HETATM    1  C1  UNL     1      25.429   3.850  49.723  1.00  0.00     0.045 A 
HETATM    2  C2  UNL     1      26.241   2.924  49.735  1.00  0.00    -0.012 A 
HETATM    3  C3  UNL     1      25.636   4.516  49.498  1.00  0.00     0.036 A 
HETATM    4  C4  UNL     1      26.936   5.079  49.008  1.00  0.00     0.132 C 
HETATM    5  O1  UNL     1      28.262   4.646  48.732  1.00  0.00    -0.316 OA
HETATM    6  C5  UNL     1      28.942   5.681  48.105  1.00  0.00     0.173 A 
HETATM    7  N1  UNL     1      30.070   5.983  47.580  1.00  0.00    -0.237 NA
HETATM    8  C6  UNL     1      30.316   7.210  47.045  1.00  0.00     0.119 A 
HETATM    9  C7  UNL     1      29.463   8.310  46.979  1.00  0.00     0.020 A 
HETATM   10  C8  UNL     1      28.190   8.094  47.556  1.00  0.00     0.015 A 
HETATM   11  C9  UNL     1      28.038   6.773  48.064  1.00  0.00     0.020 A 
HETATM   12  C10 UNL     1      26.766   6.572  48.741  1.00  0.00     0.153 C 
HETATM   13  N2  UNL     1      26.601   7.314  49.950  1.00  0.00    -0.406 N 
HETATM   14  C11 UNL     1      25.646   8.329  50.107  1.00  0.00     0.156 C 
HETATM   15  C12 UNL     1      24.247   7.935  50.313  1.00  0.00    -0.027 A 
HETATM   16  S1  UNL     1      22.757   8.180  49.421  1.00  0.00    -0.180 SA
HETATM   17  C13 UNL     1      21.893   6.647  49.908  1.00  0.00     0.048 A 
HETATM   18  C14 UNL     1      22.829   6.102  50.803  1.00  0.00     0.103 A 
HETATM   19  C15 UNL     1      23.719   5.692  51.589  1.00  0.00     0.046 A 
HETATM   20  C16 UNL     1      24.283   6.836  51.099  1.00  0.00     0.070 A 
HETATM   21  O2  UNL     1      22.226   4.736  51.009  1.00  0.00    -0.347 OA
HETATM   22  C17 UNL     1      23.269   3.679  50.632  1.00  0.00     0.132 C 
HETATM   23  C18 UNL     1      24.308   2.926  50.245  1.00  0.00     0.003 C 
HETATM   24  H8  UNL     1      27.178   7.071  50.732  1.00  0.00     0.154 HD
HETATM   25  H11 UNL     1      22.132   9.355  50.109  1.00  0.00     0.100 HD
ENDROOT
TORSDOF 0
ENDMDL
MODEL 7
REMARK VINA RESULT:      -8.5      8.455     10.193
REMARK  0 active torsions:
REMARK  status: ('A' for Active; 'I' for Inactive)
ROOT
HETATM    1  C1  UNL     1      27.430   6.069  48.521  1.00  0.00     0.045 A 
HETATM    2  C2  UNL     1      27.542   4.848  48.629  1.00  0.00    -0.012 A 
HETATM    3  C3  UNL     1      28.025   6.484  48.420  1.00  0.00     0.036 A 
HETATM    4  C4  UNL     1      29.487   6.177  48.306  1.00  0.00     0.132 C 
HETATM    5  O1  UNL     1      30.354   5.050  48.304  1.00  0.00    -0.316 OA
HETATM    6  C5  UNL     1      31.630   5.476  47.962  1.00  0.00     0.173 A 
HETATM    7  N1  UNL     1      32.819   5.051  47.748  1.00  0.00    -0.237 NA
HETATM    8  C6  UNL     1      33.839   5.887  47.412  1.00  0.00     0.119 A 
HETATM    9  C7  UNL     1      33.805   7.272  47.260  1.00  0.00     0.020 A 
HETATM   10  C8  UNL     1      32.538   7.853  47.499  1.00  0.00     0.015 A 
HETATM   11  C9  UNL     1      31.546   6.885  47.822  1.00  0.00     0.020 A 
HETATM   12  C10 UNL     1      30.264   7.483  48.160  1.00  0.00     0.153 C 
HETATM   13  N2  UNL     1      30.253   8.248  49.365  1.00  0.00    -0.406 N 
HETATM   14  C11 UNL     1      30.036   9.632  49.397  1.00  0.00     0.156 C 
HETATM   15  C12 UNL     1      28.661  10.121  49.230  1.00  0.00    -0.027 A 
HETATM   16  S1  UNL     1      27.850  11.127  48.045  1.00  0.00    -0.180 SA
HETATM   17  C13 UNL     1      26.182  10.391  48.158  1.00  0.00     0.048 A 
HETATM   18  C14 UNL     1      26.388   9.456  49.187  1.00  0.00     0.103 A 
HETATM   19  C15 UNL     1      26.660   8.652  50.113  1.00  0.00     0.046 A 
HETATM   20  C16 UNL     1      27.873   9.241  49.887  1.00  0.00     0.070 A 
HETATM   21  O2  UNL     1      25.091   8.693  49.107  1.00  0.00    -0.347 OA
HETATM   22  C17 UNL     1      25.407   7.211  48.879  1.00  0.00     0.132 C 
HETATM   23  C18 UNL     1      25.896   5.981  48.671  1.00  0.00     0.003 C 
HETATM   24  H8  UNL     1      30.374   7.760  50.231  1.00  0.00     0.154 HD
HETATM   25  H11 UNL     1      27.850  12.482  48.682  1.00  0.00     0.100 HD
ENDROOT
TORSDOF 0
ENDMDL
MODEL 8
REMARK VINA RESULT:      -8.5      4.388      6.492
REMARK  0 active torsions:
REMARK  status: ('A' for Active; 'I' for Inactive)
ROOT
HETATM    1  C1  UNL     1      26.379   5.193  49.153  1.00  0.00     0.045 A 
HETATM    2  C2  UNL     1      27.460   4.696  48.837  1.00  0.00    -0.012 A 
HETATM    3  C3  UNL     1      25.925   4.828  49.598  1.00  0.00     0.036 A 
HETATM    4  C4  UNL     1      25.998   3.494  50.276  1.00  0.00     0.132 C 
HETATM    5  O1  UNL     1      26.899   2.401  50.410  1.00  0.00    -0.316 OA
HETATM    6  C5  UNL     1      26.397   1.531  51.367  1.00  0.00     0.173 A 
HETATM    7  N1  UNL     1      26.659   0.440  51.985  1.00  0.00    -0.237 NA
HETATM    8  C6  UNL     1      25.817  -0.087  52.916  1.00  0.00     0.119 A 
HETATM    9  C7  UNL     1      24.585   0.404  53.341  1.00  0.00     0.020 A 
HETATM   10  C8  UNL     1      24.182   1.600  52.702  1.00  0.00     0.015 A 
HETATM   11  C9  UNL     1      25.147   2.069  51.767  1.00  0.00     0.020 A 
HETATM   12  C10 UNL     1      24.699   3.247  51.039  1.00  0.00     0.153 C 
HETATM   13  N2  UNL     1      23.597   3.030  50.158  1.00  0.00    -0.406 N 
HETATM   14  C11 UNL     1      22.336   3.614  50.344  1.00  0.00     0.156 C 
HETATM   15  C12 UNL     1      22.171   5.030  49.989  1.00  0.00    -0.027 A 
HETATM   16  S1  UNL     1      21.761   6.481  50.883  1.00  0.00    -0.180 SA
HETATM   17  C13 UNL     1      22.692   7.691  49.881  1.00  0.00     0.048 A 
HETATM   18  C14 UNL     1      23.190   6.852  48.871  1.00  0.00     0.103 A 
HETATM   19  C15 UNL     1      23.589   6.030  48.007  1.00  0.00     0.046 A 
HETATM   20  C16 UNL     1      22.909   5.220  48.873  1.00  0.00     0.070 A 
HETATM   21  O2  UNL     1      24.147   7.800  48.194  1.00  0.00    -0.347 OA
HETATM   22  C17 UNL     1      25.545   7.173  48.202  1.00  0.00     0.132 C 
HETATM   23  C18 UNL     1      26.674   6.461  48.324  1.00  0.00     0.003 C 
HETATM   24  H8  UNL     1      23.747   2.456  49.351  1.00  0.00     0.154 HD
HETATM   25  H11 UNL     1      20.293   6.639  50.632  1.00  0.00     0.100 HD
ENDROOT
TORSDOF 0
ENDMDL
MODEL 9
REMARK VINA RESULT:      -8.4      2.733      4.636
REMARK  0 active torsions:
REMARK  status: ('A' for Active; 'I' for Inactive)
ROOT
HETATM    1  C1  UNL     1      25.263   4.085  50.001  1.00  0.00     0.045 A 
HETATM    2  C2  UNL     1      26.409   4.190  49.564  1.00  0.00    -0.012 A 
HETATM    3  C3  UNL     1      25.126   3.641  50.568  1.00  0.00     0.036 A 
HETATM    4  C4  UNL     1      25.987   2.741  51.402  1.00  0.00     0.132 C 
HETATM    5  O1  UNL     1      27.353   2.363  51.519  1.00  0.00    -0.316 OA
HETATM    6  C5  UNL     1      27.500   1.594  52.665  1.00  0.00     0.173 A 
HETATM    7  N1  UNL     1      28.375   0.980  53.371  1.00  0.00    -0.237 NA
HETATM    8  C6  UNL     1      28.048   0.303  54.505  1.00  0.00     0.119 A 
HETATM    9  C7  UNL     1      26.788   0.136  55.078  1.00  0.00     0.020 A 
HETATM   10  C8  UNL     1      25.737   0.755  54.362  1.00  0.00     0.015 A 
HETATM   11  C9  UNL     1      26.198   1.450  53.208  1.00  0.00     0.020 A 
HETATM   12  C10 UNL     1      25.113   2.011  52.418  1.00  0.00     0.153 C 
HETATM   13  N2  UNL     1      24.261   1.050  51.795  1.00  0.00    -0.406 N 
HETATM   14  C11 UNL     1      22.908   0.891  52.125  1.00  0.00     0.156 C 
HETATM   15  C12 UNL     1      21.950   1.879  51.612  1.00  0.00    -0.027 A 
HETATM   16  S1  UNL     1      20.863   3.038  52.354  1.00  0.00    -0.180 SA
HETATM   17  C13 UNL     1      20.876   4.304  51.038  1.00  0.00     0.048 A 
HETATM   18  C14 UNL     1      21.682   3.666  50.081  1.00  0.00     0.103 A 
HETATM   19  C15 UNL     1      22.408   3.021  49.283  1.00  0.00     0.046 A 
HETATM   20  C16 UNL     1      22.367   2.186  50.363  1.00  0.00     0.070 A 
HETATM   21  O2  UNL     1      21.887   4.804  49.114  1.00  0.00    -0.347 OA
HETATM   22  C17 UNL     1      23.392   5.044  48.951  1.00  0.00     0.132 C 
HETATM   23  C18 UNL     1      24.731   5.095  48.962  1.00  0.00     0.003 C 
HETATM   24  H8  UNL     1      24.646   0.486  51.062  1.00  0.00     0.154 HD
HETATM   25  H11 UNL     1      19.547   2.325  52.358  1.00  0.00     0.100 HD
ENDROOT
TORSDOF 0
ENDMDL
