MODEL 1
REMARK VINA RESULT:      -8.0      0.000      0.000
REMARK  5 active torsions:
REMARK  status: ('A' for Active; 'I' for Inactive)
REMARK    1  A    between atoms: C2_2  and  C3_3 
REMARK    2  A    between atoms: C3_3  and  C4_4 
REMARK       I    between atoms: C4_4  and  N1_6 
REMARK    3  A    between atoms: N1_6  and  C5_7 
REMARK    4  A    between atoms: N2_13  and  C11_14 
REMARK    5  A    between atoms: N3_15  and  C12_16 
ROOT
HETATM    1  C5  UNL     1      25.302  -0.719  54.050  1.00  0.00     0.010 A 
HETATM    2  C6  UNL     1      24.419  -0.243  52.999  1.00  0.00     0.112 A 
HETATM    3  C7  UNL     1      22.860  -0.153  52.886  1.00  0.00     0.187 A 
HETATM    4  C8  UNL     1      22.437  -0.915  54.578  1.00  0.00     0.072 A 
HETATM    5  C9  UNL     1      23.219  -1.476  55.717  1.00  0.00     0.017 A 
HETATM    6  C10 UNL     1      24.402  -1.165  55.016  1.00  0.00     0.032 A 
HETATM    7  N2  UNL     1      23.502  -0.796  54.265  1.00  0.00     0.000 N 
HETATM    8  C11 UNL     1      22.747  -0.433  53.518  1.00  0.00     0.187 A 
HETATM    9  N3  UNL     1      21.480   0.082  52.463  1.00  0.00    -0.016 N 
HETATM   10  H10 UNL     1      21.317   0.661  51.567  1.00  0.00     0.289 HD
ENDROOT
BRANCH   9  11
HETATM   11  C12 UNL     1      20.093  -0.224  52.564  1.00  0.00     0.138 A 
HETATM   12  C13 UNL     1      19.273  -0.875  53.371  1.00  0.00     0.037 A 
HETATM   13  C14 UNL     1      17.956  -1.081  53.256  1.00  0.00     0.004 A 
HETATM   14  C15 UNL     1      17.318  -0.533  52.125  1.00  0.00     0.019 A 
HETATM   15  C16 UNL     1      18.050   0.201  51.157  1.00  0.00     0.013 A 
HETATM   16 BR1  UNL     1      16.977   0.802  49.712  1.00  0.00    -0.051 Br
HETATM   17  C17 UNL     1      19.399   0.309  51.436  1.00  0.00     0.056 A 
ENDBRANCH   9  11
BRANCH   1  18
HETATM   18  N1  UNL     1      26.718  -0.551  53.745  1.00  0.00    -0.333 N 
HETATM   19  C4  UNL     1      27.407   0.464  54.483  1.00  0.00     0.227 C 
HETATM   20  O1  UNL     1      26.528   0.913  55.259  1.00  0.00    -0.273 OA
HETATM   21  H6  UNL     1      26.999  -1.249  53.006  1.00  0.00     0.168 HD
BRANCH  19  22
HETATM   22  C3  UNL     1      28.722   0.316  53.847  1.00  0.00     0.095 C 
BRANCH  22  23
HETATM   23  C2  UNL     1      29.979   0.019  53.593  1.00  0.00    -0.000 C 
HETATM   24  C1  UNL     1      29.915  -1.463  53.546  1.00  0.00     0.011 C 
ENDBRANCH  22  23
ENDBRANCH  19  22
ENDBRANCH   1  18
TORSDOF 5
ENDMDL
MODEL 2
REMARK VINA RESULT:      -7.5      5.596      8.185
REMARK  5 active torsions:
REMARK  status: ('A' for Active; 'I' for Inactive)
REMARK    1  A    between atoms: C2_2  and  C3_3 
REMARK    2  A    between atoms: C3_3  and  C4_4 
REMARK       I    between atoms: C4_4  and  N1_6 
REMARK    3  A    between atoms: N1_6  and  C5_7 
REMARK    4  A    between atoms: N2_13  and  C11_14 
REMARK    5  A    between atoms: N3_15  and  C12_16 
ROOT
HETATM    1  C5  UNL     1      24.365   1.217  52.241  1.00  0.00     0.010 A 
HETATM    2  C6  UNL     1      24.064   2.210  51.224  1.00  0.00     0.112 A 
HETATM    3  C7  UNL     1      24.969   3.155  50.366  1.00  0.00     0.187 A 
HETATM    4  C8  UNL     1      26.648   2.633  51.097  1.00  0.00     0.072 A 
HETATM    5  C9  UNL     1      27.098   1.680  52.152  1.00  0.00     0.017 A 
HETATM    6  C10 UNL     1      25.751   1.309  52.346  1.00  0.00     0.032 A 
HETATM    7  N2  UNL     1      25.704   2.163  51.463  1.00  0.00     0.000 N 
HETATM    8  C11 UNL     1      25.566   2.932  50.657  1.00  0.00     0.187 A 
HETATM    9  N3  UNL     1      25.502   4.134  49.419  1.00  0.00    -0.016 N 
HETATM   10  H10 UNL     1      24.824   4.555  48.692  1.00  0.00     0.289 HD
ENDROOT
BRANCH   9  11
HETATM   11  C12 UNL     1      26.542   5.021  49.020  1.00  0.00     0.138 A 
HETATM   12  C13 UNL     1      27.768   4.961  48.529  1.00  0.00     0.037 A 
HETATM   13  C14 UNL     1      28.619   5.955  48.250  1.00  0.00     0.004 A 
HETATM   14  C15 UNL     1      28.172   7.269  48.496  1.00  0.00     0.019 A 
HETATM   15  C16 UNL     1      26.878   7.515  49.019  1.00  0.00     0.013 A 
HETATM   16 BR1  UNL     1      26.526   9.359  49.298  1.00  0.00    -0.051 Br
HETATM   17  C17 UNL     1      26.139   6.370  49.251  1.00  0.00     0.056 A 
ENDBRANCH   9  11
BRANCH   1  18
HETATM   18  N1  UNL     1      23.189   0.513  52.739  1.00  0.00    -0.333 N 
HETATM   19  C4  UNL     1      23.421  -0.456  53.766  1.00  0.00     0.227 C 
HETATM   20  O1  UNL     1      24.655  -0.375  53.975  1.00  0.00    -0.273 OA
HETATM   21  H6  UNL     1      22.333   0.868  52.235  1.00  0.00     0.168 HD
BRANCH  19  22
HETATM   22  C3  UNL     1      22.036  -0.923  53.916  1.00  0.00     0.095 C 
BRANCH  22  23
HETATM   23  C2  UNL     1      20.958  -1.605  54.245  1.00  0.00    -0.000 C 
HETATM   24  C1  UNL     1      19.900  -0.788  53.600  1.00  0.00     0.011 C 
ENDBRANCH  22  23
ENDBRANCH  19  22
ENDBRANCH   1  18
TORSDOF 5
ENDMDL
MODEL 3
REMARK VINA RESULT:      -7.5      2.440      2.874
REMARK  5 active torsions:
REMARK  status: ('A' for Active; 'I' for Inactive)
REMARK    1  A    between atoms: C2_2  and  C3_3 
REMARK    2  A    between atoms: C3_3  and  C4_4 
REMARK       I    between atoms: C4_4  and  N1_6 
REMARK    3  A    between atoms: N1_6  and  C5_7 
REMARK    4  A    between atoms: N2_13  and  C11_14 
REMARK    5  A    between atoms: N3_15  and  C12_16 
ROOT
HETATM    1  C5  UNL     1      25.458   0.039  53.221  1.00  0.00     0.010 A 
HETATM    2  C6  UNL     1      25.163   1.270  52.509  1.00  0.00     0.112 A 
HETATM    3  C7  UNL     1      23.824   2.020  52.201  1.00  0.00     0.187 A 
HETATM    4  C8  UNL     1      22.640   0.780  53.031  1.00  0.00     0.072 A 
HETATM    5  C9  UNL     1      22.793  -0.519  53.746  1.00  0.00     0.017 A 
HETATM    6  C10 UNL     1      24.189  -0.413  53.575  1.00  0.00     0.032 A 
HETATM    7  N2  UNL     1      23.742   0.597  53.035  1.00  0.00     0.000 N 
HETATM    8  C11 UNL     1      23.424   1.542  52.521  1.00  0.00     0.187 A 
HETATM    9  N3  UNL     1      22.793   2.960  51.762  1.00  0.00    -0.016 N 
HETATM   10  H10 UNL     1      23.112   3.908  51.357  1.00  0.00     0.289 HD
ENDROOT
BRANCH   9  11
HETATM   11  C12 UNL     1      21.436   3.229  51.423  1.00  0.00     0.138 A 
HETATM   12  C13 UNL     1      20.295   3.507  52.030  1.00  0.00     0.037 A 
HETATM   13  C14 UNL     1      19.079   3.695  51.504  1.00  0.00     0.004 A 
HETATM   14  C15 UNL     1      18.965   3.595  50.103  1.00  0.00     0.019 A 
HETATM   15  C16 UNL     1      20.094   3.305  49.296  1.00  0.00     0.013 A 
HETATM   16 BR1  UNL     1      19.677   3.185  47.449  1.00  0.00    -0.051 Br
HETATM   17  C17 UNL     1      21.266   3.138  50.009  1.00  0.00     0.056 A 
ENDBRANCH   9  11
BRANCH   1  18
HETATM   18  N1  UNL     1      26.884  -0.251  53.322  1.00  0.00    -0.333 N 
HETATM   19  C4  UNL     1      27.534   0.186  54.519  1.00  0.00     0.227 C 
HETATM   20  O1  UNL     1      26.604   0.692  55.193  1.00  0.00    -0.273 OA
HETATM   21  H6  UNL     1      27.195  -0.767  52.456  1.00  0.00     0.168 HD
BRANCH  19  22
HETATM   22  C3  UNL     1      28.894  -0.253  54.180  1.00  0.00     0.095 C 
BRANCH  22  23
HETATM   23  C2  UNL     1      29.965  -0.680  53.543  1.00  0.00    -0.000 C 
HETATM   24  C1  UNL     1      29.651  -2.123  53.399  1.00  0.00     0.011 C 
ENDBRANCH  22  23
ENDBRANCH  19  22
ENDBRANCH   1  18
TORSDOF 5
ENDMDL
MODEL 4
REMARK VINA RESULT:      -7.4      2.368      3.144
REMARK  5 active torsions:
REMARK  status: ('A' for Active; 'I' for Inactive)
REMARK    1  A    between atoms: C2_2  and  C3_3 
REMARK    2  A    between atoms: C3_3  and  C4_4 
REMARK       I    between atoms: C4_4  and  N1_6 
REMARK    3  A    between atoms: N1_6  and  C5_7 
REMARK    4  A    between atoms: N2_13  and  C11_14 
REMARK    5  A    between atoms: N3_15  and  C12_16 
ROOT
HETATM    1  C5  UNL     1      25.109   2.324  53.087  1.00  0.00     0.010 A 
HETATM    2  C6  UNL     1      24.379   1.160  52.618  1.00  0.00     0.112 A 
HETATM    3  C7  UNL     1      22.994   0.993  51.907  1.00  0.00     0.187 A 
HETATM    4  C8  UNL     1      22.505   2.833  51.868  1.00  0.00     0.072 A 
HETATM    5  C9  UNL     1      23.121   4.107  52.340  1.00  0.00     0.017 A 
HETATM    6  C10 UNL     1      24.232   3.365  52.792  1.00  0.00     0.032 A 
HETATM    7  N2  UNL     1      23.478   2.519  52.316  1.00  0.00     0.000 N 
HETATM    8  C11 UNL     1      22.854   1.680  51.908  1.00  0.00     0.187 A 
HETATM    9  N3  UNL     1      21.793   0.491  51.242  1.00  0.00    -0.016 N 
HETATM   10  H10 UNL     1      21.773  -0.547  50.948  1.00  0.00     0.289 HD
ENDROOT
BRANCH   9  11
HETATM   11  C12 UNL     1      20.426   0.659  50.879  1.00  0.00     0.138 A 
HETATM   12  C13 UNL     1      19.706   1.323  49.991  1.00  0.00     0.037 A 
HETATM   13  C14 UNL     1      18.377   1.369  49.840  1.00  0.00     0.004 A 
HETATM   14  C15 UNL     1      17.604   0.607  50.739  1.00  0.00     0.019 A 
HETATM   15  C16 UNL     1      18.217  -0.169  51.754  1.00  0.00     0.013 A 
HETATM   16 BR1  UNL     1      16.965  -1.073  52.857  1.00  0.00    -0.051 Br
HETATM   17  C17 UNL     1      19.597  -0.094  51.763  1.00  0.00     0.056 A 
ENDBRANCH   9  11
BRANCH   1  18
HETATM   18  N1  UNL     1      26.421   2.009  53.642  1.00  0.00    -0.333 N 
HETATM   19  C4  UNL     1      27.533   2.146  52.752  1.00  0.00     0.227 C 
HETATM   20  O1  UNL     1      27.011   2.566  51.691  1.00  0.00    -0.273 OA
HETATM   21  H6  UNL     1      26.311   1.733  54.655  1.00  0.00     0.168 HD
BRANCH  19  22
HETATM   22  C3  UNL     1      28.584   1.701  53.676  1.00  0.00     0.095 C 
BRANCH  22  23
HETATM   23  C2  UNL     1      29.338   0.990  54.489  1.00  0.00    -0.000 C 
HETATM   24  C1  UNL     1      29.757  -0.115  53.591  1.00  0.00     0.011 C 
ENDBRANCH  22  23
ENDBRANCH  19  22
ENDBRANCH   1  18
TORSDOF 5
ENDMDL
MODEL 5
REMARK VINA RESULT:      -7.3      6.961      9.482
REMARK  5 active torsions:
REMARK  status: ('A' for Active; 'I' for Inactive)
REMARK    1  A    between atoms: C2_2  and  C3_3 
REMARK    2  A    between atoms: C3_3  and  C4_4 
REMARK       I    between atoms: C4_4  and  N1_6 
REMARK    3  A    between atoms: N1_6  and  C5_7 
REMARK    4  A    between atoms: N2_13  and  C11_14 
REMARK    5  A    between atoms: N3_15  and  C12_16 
ROOT
HETATM    1  C5  UNL     1      24.170   2.995  51.098  1.00  0.00     0.010 A 
HETATM    2  C6  UNL     1      25.454   2.885  50.428  1.00  0.00     0.112 A 
HETATM    3  C7  UNL     1      26.401   3.945  49.772  1.00  0.00     0.187 A 
HETATM    4  C8  UNL     1      25.320   5.481  50.085  1.00  0.00     0.072 A 
HETATM    5  C9  UNL     1      23.989   5.734  50.708  1.00  0.00     0.017 A 
HETATM    6  C10 UNL     1      23.896   4.357  50.996  1.00  0.00     0.032 A 
HETATM    7  N2  UNL     1      24.978   4.473  50.424  1.00  0.00     0.000 N 
HETATM    8  C11 UNL     1      25.976   4.484  49.911  1.00  0.00     0.187 A 
HETATM    9  N3  UNL     1      27.495   4.649  49.105  1.00  0.00    -0.016 N 
HETATM   10  H10 UNL     1      28.400   4.099  48.898  1.00  0.00     0.289 HD
ENDROOT
BRANCH   9  11
HETATM   11  C12 UNL     1      27.970   5.777  48.377  1.00  0.00     0.138 A 
HETATM   12  C13 UNL     1      27.492   6.882  47.831  1.00  0.00     0.037 A 
HETATM   13  C14 UNL     1      28.131   7.828  47.132  1.00  0.00     0.004 A 
HETATM   14  C15 UNL     1      29.517   7.654  46.938  1.00  0.00     0.019 A 
HETATM   15  C16 UNL     1      30.192   6.523  47.462  1.00  0.00     0.013 A 
HETATM   16 BR1  UNL     1      32.041   6.497  47.035  1.00  0.00    -0.051 Br
HETATM   17  C17 UNL     1      29.373   5.649  48.151  1.00  0.00     0.056 A 
ENDBRANCH   9  11
BRANCH   1  18
HETATM   18  N1  UNL     1      23.672   1.728  51.622  1.00  0.00    -0.333 N 
HETATM   19  C4  UNL     1      23.960   1.456  52.997  1.00  0.00     0.227 C 
HETATM   20  O1  UNL     1      24.567   2.486  53.380  1.00  0.00    -0.273 OA
HETATM   21  H6  UNL     1      23.153   1.217  50.858  1.00  0.00     0.168 HD
BRANCH  19  22
HETATM   22  C3  UNL     1      23.342   0.126  53.071  1.00  0.00     0.095 C 
BRANCH  22  23
HETATM   23  C2  UNL     1      22.544  -0.886  53.340  1.00  0.00    -0.000 C 
HETATM   24  C1  UNL     1      21.666  -0.285  54.375  1.00  0.00     0.011 C 
ENDBRANCH  22  23
ENDBRANCH  19  22
ENDBRANCH   1  18
TORSDOF 5
ENDMDL
MODEL 6
REMARK VINA RESULT:      -7.3      1.697      1.997
REMARK  5 active torsions:
REMARK  status: ('A' for Active; 'I' for Inactive)
REMARK    1  A    between atoms: C2_2  and  C3_3 
REMARK    2  A    between atoms: C3_3  and  C4_4 
REMARK       I    between atoms: C4_4  and  N1_6 
REMARK    3  A    between atoms: N1_6  and  C5_7 
REMARK    4  A    between atoms: N2_13  and  C11_14 
REMARK    5  A    between atoms: N3_15  and  C12_16 
ROOT
HETATM    1  C5  UNL     1      24.608  -0.083  53.888  1.00  0.00     0.010 A 
HETATM    2  C6  UNL     1      23.959   0.816  52.949  1.00  0.00     0.112 A 
HETATM    3  C7  UNL     1      22.461   1.020  52.542  1.00  0.00     0.187 A 
HETATM    4  C8  UNL     1      21.709  -0.332  53.651  1.00  0.00     0.072 A 
HETATM    5  C9  UNL     1      22.244  -1.339  54.612  1.00  0.00     0.017 A 
HETATM    6  C10 UNL     1      23.538  -0.832  54.373  1.00  0.00     0.032 A 
HETATM    7  N2  UNL     1      22.810  -0.151  53.654  1.00  0.00     0.000 N 
HETATM    8  C11 UNL     1      22.224   0.517  52.968  1.00  0.00     0.187 A 
HETATM    9  N3  UNL     1      21.200   1.471  51.957  1.00  0.00    -0.016 N 
HETATM   10  H10 UNL     1      21.213   2.367  51.354  1.00  0.00     0.289 HD
ENDROOT
BRANCH   9  11
HETATM   11  C12 UNL     1      19.839   1.219  51.619  1.00  0.00     0.138 A 
HETATM   12  C13 UNL     1      19.090   0.218  51.191  1.00  0.00     0.037 A 
HETATM   13  C14 UNL     1      17.786   0.203  50.889  1.00  0.00     0.004 A 
HETATM   14  C15 UNL     1      17.079   1.412  51.047  1.00  0.00     0.019 A 
HETATM   15  C16 UNL     1      17.730   2.586  51.502  1.00  0.00     0.013 A 
HETATM   16 BR1  UNL     1      16.576   4.089  51.595  1.00  0.00    -0.051 Br
HETATM   17  C17 UNL     1      19.077   2.417  51.760  1.00  0.00     0.056 A 
ENDBRANCH   9  11
BRANCH   1  18
HETATM   18  N1  UNL     1      26.048   0.123  53.995  1.00  0.00    -0.333 N 
HETATM   19  C4  UNL     1      26.873  -0.783  53.256  1.00  0.00     0.227 C 
HETATM   20  O1  UNL     1      26.046  -1.516  52.660  1.00  0.00    -0.273 OA
HETATM   21  H6  UNL     1      26.234   0.952  54.621  1.00  0.00     0.168 HD
BRANCH  19  22
HETATM   22  C3  UNL     1      28.177  -0.256  53.678  1.00  0.00     0.095 C 
BRANCH  22  23
HETATM   23  C2  UNL     1      29.459   0.032  53.761  1.00  0.00    -0.000 C 
HETATM   24  C1  UNL     1      29.404   1.414  54.298  1.00  0.00     0.011 C 
ENDBRANCH  22  23
ENDBRANCH  19  22
ENDBRANCH   1  18
TORSDOF 5
ENDMDL
MODEL 7
REMARK VINA RESULT:      -7.1      4.020      4.752
REMARK  5 active torsions:
REMARK  status: ('A' for Active; 'I' for Inactive)
REMARK    1  A    between atoms: C2_2  and  C3_3 
REMARK    2  A    between atoms: C3_3  and  C4_4 
REMARK       I    between atoms: C4_4  and  N1_6 
REMARK    3  A    between atoms: N1_6  and  C5_7 
REMARK    4  A    between atoms: N2_13  and  C11_14 
REMARK    5  A    between atoms: N3_15  and  C12_16 
ROOT
HETATM    1  C5  UNL     1      25.952   0.892  52.379  1.00  0.00     0.010 A 
HETATM    2  C6  UNL     1      26.016   2.025  51.472  1.00  0.00     0.112 A 
HETATM    3  C7  UNL     1      24.916   2.957  50.861  1.00  0.00     0.187 A 
HETATM    4  C8  UNL     1      23.402   2.118  51.656  1.00  0.00     0.072 A 
HETATM    5  C9  UNL     1      23.185   0.947  52.553  1.00  0.00     0.017 A 
HETATM    6  C10 UNL     1      24.582   0.755  52.589  1.00  0.00     0.032 A 
HETATM    7  N2  UNL     1      24.430   1.731  51.856  1.00  0.00     0.000 N 
HETATM    8  C11 UNL     1      24.387   2.623  51.177  1.00  0.00     0.187 A 
HETATM    9  N3  UNL     1      24.172   3.992  50.146  1.00  0.00    -0.016 N 
HETATM   10  H10 UNL     1      24.733   4.783  49.673  1.00  0.00     0.289 HD
ENDROOT
BRANCH   9  11
HETATM   11  C12 UNL     1      22.956   4.457  49.568  1.00  0.00     0.138 A 
HETATM   12  C13 UNL     1      21.848   5.073  49.941  1.00  0.00     0.037 A 
HETATM   13  C14 UNL     1      20.771   5.395  49.215  1.00  0.00     0.004 A 
HETATM   14  C15 UNL     1      20.791   5.046  47.849  1.00  0.00     0.019 A 
HETATM   15  C16 UNL     1      21.907   4.381  47.281  1.00  0.00     0.013 A 
HETATM   16 BR1  UNL     1      21.680   3.986  45.439  1.00  0.00    -0.051 Br
HETATM   17  C17 UNL     1      22.926   4.125  48.180  1.00  0.00     0.056 A 
ENDBRANCH   9  11
BRANCH   1  18
HETATM   18  N1  UNL     1      27.260   0.355  52.739  1.00  0.00    -0.333 N 
HETATM   19  C4  UNL     1      27.675   0.559  54.093  1.00  0.00     0.227 C 
HETATM   20  O1  UNL     1      26.699   1.150  54.616  1.00  0.00    -0.273 OA
HETATM   21  H6  UNL     1      27.682  -0.120  51.897  1.00  0.00     0.168 HD
BRANCH  19  22
HETATM   22  C3  UNL     1      28.999  -0.071  53.992  1.00  0.00     0.095 C 
BRANCH  22  23
HETATM   23  C2  UNL     1      30.043  -0.765  53.591  1.00  0.00    -0.000 C 
HETATM   24  C1  UNL     1      29.422  -2.090  53.343  1.00  0.00     0.011 C 
ENDBRANCH  22  23
ENDBRANCH  19  22
ENDBRANCH   1  18
TORSDOF 5
ENDMDL
MODEL 8
REMARK VINA RESULT:      -7.0      5.854      6.557
REMARK  5 active torsions:
REMARK  status: ('A' for Active; 'I' for Inactive)
REMARK    1  A    between atoms: C2_2  and  C3_3 
REMARK    2  A    between atoms: C3_3  and  C4_4 
REMARK       I    between atoms: C4_4  and  N1_6 
REMARK    3  A    between atoms: N1_6  and  C5_7 
REMARK    4  A    between atoms: N2_13  and  C11_14 
REMARK    5  A    between atoms: N3_15  and  C12_16 
ROOT
HETATM    1  C5  UNL     1      25.220   5.556  50.211  1.00  0.00     0.010 A 
HETATM    2  C6  UNL     1      25.180   4.106  50.139  1.00  0.00     0.112 A 
HETATM    3  C7  UNL     1      24.062   3.060  50.466  1.00  0.00     0.187 A 
HETATM    4  C8  UNL     1      22.726   4.288  51.044  1.00  0.00     0.072 A 
HETATM    5  C9  UNL     1      22.642   5.767  51.210  1.00  0.00     0.017 A 
HETATM    6  C10 UNL     1      23.960   5.865  50.718  1.00  0.00     0.032 A 
HETATM    7  N2  UNL     1      23.724   4.659  50.708  1.00  0.00     0.000 N 
HETATM    8  C11 UNL     1      23.597   3.545  50.666  1.00  0.00     0.187 A 
HETATM    9  N3  UNL     1      23.263   1.850  50.655  1.00  0.00    -0.016 N 
HETATM   10  H10 UNL     1      23.659   0.919  50.279  1.00  0.00     0.289 HD
ENDROOT
BRANCH   9  11
HETATM   11  C12 UNL     1      22.177   1.178  51.284  1.00  0.00     0.138 A 
HETATM   12  C13 UNL     1      20.872   1.034  51.130  1.00  0.00     0.037 A 
HETATM   13  C14 UNL     1      19.998   0.360  51.886  1.00  0.00     0.004 A 
HETATM   14  C15 UNL     1      20.511  -0.310  53.015  1.00  0.00     0.019 A 
HETATM   15  C16 UNL     1      21.893  -0.263  53.327  1.00  0.00     0.013 A 
HETATM   16 BR1  UNL     1      22.330  -1.210  54.913  1.00  0.00    -0.051 Br
HETATM   17  C17 UNL     1      22.644   0.483  52.439  1.00  0.00     0.056 A 
ENDBRANCH   9  11
BRANCH   1  18
HETATM   18  N1  UNL     1      26.475   6.131  49.738  1.00  0.00    -0.333 N 
HETATM   19  C4  UNL     1      26.445   6.726  48.436  1.00  0.00     0.227 C 
HETATM   20  O1  UNL     1      25.248   6.601  48.082  1.00  0.00    -0.273 OA
HETATM   21  H6  UNL     1      27.214   6.009  50.480  1.00  0.00     0.168 HD
BRANCH  19  22
HETATM   22  C3  UNL     1      27.861   7.110  48.360  1.00  0.00     0.095 C 
BRANCH  22  23
HETATM   23  C2  UNL     1      29.174   7.092  48.262  1.00  0.00    -0.000 C 
HETATM   24  C1  UNL     1      29.423   5.640  48.083  1.00  0.00     0.011 C 
ENDBRANCH  22  23
ENDBRANCH  19  22
ENDBRANCH   1  18
TORSDOF 5
ENDMDL
MODEL 9
REMARK VINA RESULT:      -7.0      4.141      8.569
REMARK  5 active torsions:
REMARK  status: ('A' for Active; 'I' for Inactive)
REMARK    1  A    between atoms: C2_2  and  C3_3 
REMARK    2  A    between atoms: C3_3  and  C4_4 
REMARK       I    between atoms: C4_4  and  N1_6 
REMARK    3  A    between atoms: N1_6  and  C5_7 
REMARK    4  A    between atoms: N2_13  and  C11_14 
REMARK    5  A    between atoms: N3_15  and  C12_16 
ROOT
HETATM    1  C5  UNL     1      21.478   2.419  51.559  1.00  0.00     0.010 A 
HETATM    2  C6  UNL     1      22.385   1.308  51.791  1.00  0.00     0.112 A 
HETATM    3  C7  UNL     1      23.829   1.227  52.389  1.00  0.00     0.187 A 
HETATM    4  C8  UNL     1      24.079   3.088  52.705  1.00  0.00     0.072 A 
HETATM    5  C9  UNL     1      23.272   4.322  52.482  1.00  0.00     0.017 A 
HETATM    6  C10 UNL     1      22.234   3.513  51.975  1.00  0.00     0.032 A 
HETATM    7  N2  UNL     1      23.124   2.715  52.263  1.00  0.00     0.000 N 
HETATM    8  C11 UNL     1      23.879   1.918  52.494  1.00  0.00     0.187 A 
HETATM    9  N3  UNL     1      25.132   0.800  52.898  1.00  0.00    -0.016 N 
HETATM   10  H10 UNL     1      25.307  -0.259  53.016  1.00  0.00     0.289 HD
ENDROOT
BRANCH   9  11
HETATM   11  C12 UNL     1      26.489   1.097  53.210  1.00  0.00     0.138 A 
HETATM   12  C13 UNL     1      27.245   2.152  53.457  1.00  0.00     0.037 A 
HETATM   13  C14 UNL     1      28.560   2.216  53.701  1.00  0.00     0.004 A 
HETATM   14  C15 UNL     1      29.269   0.998  53.708  1.00  0.00     0.019 A 
HETATM   15  C16 UNL     1      28.610  -0.233  53.464  1.00  0.00     0.013 A 
HETATM   16 BR1  UNL     1      29.785  -1.724  53.489  1.00  0.00    -0.051 Br
HETATM   17  C17 UNL     1      27.254  -0.108  53.228  1.00  0.00     0.056 A 
ENDBRANCH   9  11
BRANCH   1  18
HETATM   18  N1  UNL     1      20.180   2.014  51.031  1.00  0.00    -0.333 N 
HETATM   19  C4  UNL     1      19.032   2.542  51.704  1.00  0.00     0.227 C 
HETATM   20  O1  UNL     1      19.524   3.282  52.590  1.00  0.00    -0.273 OA
HETATM   21  H6  UNL     1      20.326   1.382  50.199  1.00  0.00     0.168 HD
BRANCH  19  22
HETATM   22  C3  UNL     1      18.003   1.866  50.903  1.00  0.00     0.095 C 
BRANCH  22  23
HETATM   23  C2  UNL     1      17.207   1.485  49.926  1.00  0.00    -0.000 C 
HETATM   24  C1  UNL     1      17.277   0.009  50.063  1.00  0.00     0.011 C 
ENDBRANCH  22  23
ENDBRANCH  19  22
ENDBRANCH   1  18
TORSDOF 5
ENDMDL
