MODEL 1
REMARK VINA RESULT:      -6.4      0.000      0.000
REMARK  6 active torsions:
REMARK  status: ('A' for Active; 'I' for Inactive)
REMARK    1  A    between atoms: C2_2  and  C3_3 
REMARK    2  A    between atoms: C10_13  and  N3_14 
REMARK    3  A    between atoms: N3_14  and  C11_15 
REMARK    4  A    between atoms: C12_16  and  C13_17 
REMARK    5  A    between atoms: C13_17  and  C14_18 
REMARK    6  A    between atoms: C14_18  and  C15_19 
ROOT
HETATM    1  C3  UNL     1      24.120   3.998  50.472  1.00  0.00     0.120 C 
HETATM    2  N1  UNL     1      23.765   5.194  50.833  1.00  0.00    -0.247 NA
HETATM    3  C4  UNL     1      22.604   5.171  51.769  1.00  0.00     0.318 C 
HETATM    4  O1  UNL     1      21.958   3.983  51.613  1.00  0.00    -0.370 OA
HETATM    5  C5  UNL     1      20.905   3.663  52.361  1.00  0.00     0.170 C 
HETATM    6  C6  UNL     1      20.349   2.271  52.058  1.00  0.00     0.027 C 
HETATM    7  C7  UNL     1      21.330   1.202  52.264  1.00  0.00     0.012 C 
HETATM    8  C8  UNL     1      22.543   1.069  51.450  1.00  0.00     0.046 C 
HETATM    9  C9  UNL     1      22.704   1.818  50.204  1.00  0.00     0.135 C 
HETATM   10  N2  UNL     1      23.572   2.730  50.838  1.00  0.00    -0.344 N 
HETATM   11  C10 UNL     1      23.700   1.894  51.960  1.00  0.00     0.190 C 
ENDROOT
BRANCH  11  12
HETATM   12  N3  UNL     1      24.977   1.166  51.917  1.00  0.00    -0.378 N 
HETATM   13  H16 UNL     1      25.332   0.377  51.338  1.00  0.00     0.161 HD
BRANCH  12  14
HETATM   14  C11 UNL     1      25.935   1.645  52.873  1.00  0.00     0.085 C 
HETATM   15  C12 UNL     1      27.218   1.882  52.595  1.00  0.00     0.017 C 
BRANCH  15  16
HETATM   16  C13 UNL     1      28.250   2.366  53.505  1.00  0.00     0.002 C 
BRANCH  16  17
HETATM   17  C14 UNL     1      29.046   1.542  54.154  1.00  0.00     0.015 C 
BRANCH  17  18
HETATM   18  C15 UNL     1      29.058   0.151  53.779  1.00  0.00    -0.005 A 
HETATM   19  C16 UNL     1      30.299  -0.525  53.560  1.00  0.00     0.111 A 
HETATM   20  S1  UNL     1      28.844  -1.561  53.324  1.00  0.00    -0.121 SA
ENDBRANCH  17  18
ENDBRANCH  16  17
ENDBRANCH  15  16
ENDBRANCH  12  14
ENDBRANCH  11  12
BRANCH   1  21
HETATM   21  C2  UNL     1      25.240   3.985  49.568  1.00  0.00     0.024 C 
HETATM   22  C1  UNL     1      26.489   3.560  49.483  1.00  0.00     0.035 C 
ENDBRANCH   1  21
TORSDOF 6
ENDMDL
MODEL 2
REMARK VINA RESULT:      -6.3      1.651      2.148
REMARK  6 active torsions:
REMARK  status: ('A' for Active; 'I' for Inactive)
REMARK    1  A    between atoms: C2_2  and  C3_3 
REMARK    2  A    between atoms: C10_13  and  N3_14 
REMARK    3  A    between atoms: N3_14  and  C11_15 
REMARK    4  A    between atoms: C12_16  and  C13_17 
REMARK    5  A    between atoms: C13_17  and  C14_18 
REMARK    6  A    between atoms: C14_18  and  C15_19 
ROOT
HETATM    1  C3  UNL     1      25.472   5.584  49.773  1.00  0.00     0.120 C 
HETATM    2  N1  UNL     1      25.280   6.764  50.280  1.00  0.00    -0.247 NA
HETATM    3  C4  UNL     1      24.086   6.797  51.173  1.00  0.00     0.318 C 
HETATM    4  O1  UNL     1      23.281   5.749  50.843  1.00  0.00    -0.370 OA
HETATM    5  C5  UNL     1      22.160   5.499  51.515  1.00  0.00     0.170 C 
HETATM    6  C6  UNL     1      21.421   4.257  51.014  1.00  0.00     0.027 C 
HETATM    7  C7  UNL     1      22.224   3.035  51.103  1.00  0.00     0.012 C 
HETATM    8  C8  UNL     1      23.441   2.826  50.311  1.00  0.00     0.046 C 
HETATM    9  C9  UNL     1      23.767   3.694  49.180  1.00  0.00     0.135 C 
HETATM   10  N2  UNL     1      24.729   4.377  49.952  1.00  0.00    -0.344 N 
HETATM   11  C10 UNL     1      24.682   3.394  50.956  1.00  0.00     0.190 C 
ENDROOT
BRANCH  11  12
HETATM   12  N3  UNL     1      25.840   2.494  50.850  1.00  0.00    -0.378 N 
HETATM   13  H16 UNL     1      26.482   2.243  50.070  1.00  0.00     0.161 HD
BRANCH  12  14
HETATM   14  C11 UNL     1      26.150   1.822  52.080  1.00  0.00     0.085 C 
HETATM   15  C12 UNL     1      25.705   0.607  52.403  1.00  0.00     0.017 C 
BRANCH  15  16
HETATM   16  C13 UNL     1      25.973  -0.141  53.626  1.00  0.00     0.002 C 
BRANCH  16  17
HETATM   17  C14 UNL     1      26.978   0.162  54.420  1.00  0.00     0.015 C 
BRANCH  17  18
HETATM   18  C15 UNL     1      28.304  -0.264  54.052  1.00  0.00    -0.005 A 
HETATM   19  C16 UNL     1      29.333   0.703  53.822  1.00  0.00     0.111 A 
HETATM   20  S1  UNL     1      29.865  -1.005  53.609  1.00  0.00    -0.121 SA
ENDBRANCH  17  18
ENDBRANCH  16  17
ENDBRANCH  15  16
ENDBRANCH  12  14
ENDBRANCH  11  12
BRANCH   1  21
HETATM   21  C2  UNL     1      26.619   5.517  48.904  1.00  0.00     0.024 C 
HETATM   22  C1  UNL     1      27.691   4.780  48.671  1.00  0.00     0.035 C 
ENDBRANCH   1  21
TORSDOF 6
ENDMDL
MODEL 3
REMARK VINA RESULT:      -6.2      2.454      3.219
REMARK  6 active torsions:
REMARK  status: ('A' for Active; 'I' for Inactive)
REMARK    1  A    between atoms: C2_2  and  C3_3 
REMARK    2  A    between atoms: C10_13  and  N3_14 
REMARK    3  A    between atoms: N3_14  and  C11_15 
REMARK    4  A    between atoms: C12_16  and  C13_17 
REMARK    5  A    between atoms: C13_17  and  C14_18 
REMARK    6  A    between atoms: C14_18  and  C15_19 
ROOT
HETATM    1  C3  UNL     1      25.705   5.676  49.756  1.00  0.00     0.120 C 
HETATM    2  N1  UNL     1      25.397   6.830  50.265  1.00  0.00    -0.247 NA
HETATM    3  C4  UNL     1      24.224   6.737  51.182  1.00  0.00     0.318 C 
HETATM    4  O1  UNL     1      23.531   5.608  50.870  1.00  0.00    -0.370 OA
HETATM    5  C5  UNL     1      22.457   5.242  51.564  1.00  0.00     0.170 C 
HETATM    6  C6  UNL     1      21.846   3.925  51.081  1.00  0.00     0.027 C 
HETATM    7  C7  UNL     1      22.778   2.796  51.155  1.00  0.00     0.012 C 
HETATM    8  C8  UNL     1      23.995   2.717  50.339  1.00  0.00     0.046 C 
HETATM    9  C9  UNL     1      24.202   3.611  49.201  1.00  0.00     0.135 C 
HETATM   10  N2  UNL     1      25.100   4.396  49.952  1.00  0.00    -0.344 N 
HETATM   11  C10 UNL     1      25.179   3.418  50.959  1.00  0.00     0.190 C 
ENDROOT
BRANCH  11  12
HETATM   12  N3  UNL     1      26.425   2.648  50.831  1.00  0.00    -0.378 N 
HETATM   13  H16 UNL     1      27.174   2.613  50.109  1.00  0.00     0.161 HD
BRANCH  12  14
HETATM   14  C11 UNL     1      26.657   1.758  51.933  1.00  0.00     0.085 C 
HETATM   15  C12 UNL     1      26.450   0.441  51.890  1.00  0.00     0.017 C 
BRANCH  15  16
HETATM   16  C13 UNL     1      26.660  -0.527  52.961  1.00  0.00     0.002 C 
BRANCH  16  17
HETATM   17  C14 UNL     1      25.898  -0.551  54.035  1.00  0.00     0.015 C 
BRANCH  17  18
HETATM   18  C15 UNL     1      24.468  -0.508  53.871  1.00  0.00    -0.005 A 
HETATM   19  C16 UNL     1      23.611  -1.033  54.888  1.00  0.00     0.111 A 
HETATM   20  S1  UNL     1      22.737  -0.354  53.466  1.00  0.00    -0.121 SA
ENDBRANCH  17  18
ENDBRANCH  16  17
ENDBRANCH  15  16
ENDBRANCH  12  14
ENDBRANCH  11  12
BRANCH   1  21
HETATM   21  C2  UNL     1      26.835   5.729  48.865  1.00  0.00     0.024 C 
HETATM   22  C1  UNL     1      27.901   5.032  48.511  1.00  0.00     0.035 C 
ENDBRANCH   1  21
TORSDOF 6
ENDMDL
MODEL 4
REMARK VINA RESULT:      -6.1      1.847      3.627
REMARK  6 active torsions:
REMARK  status: ('A' for Active; 'I' for Inactive)
REMARK    1  A    between atoms: C2_2  and  C3_3 
REMARK    2  A    between atoms: C10_13  and  N3_14 
REMARK    3  A    between atoms: N3_14  and  C11_15 
REMARK    4  A    between atoms: C12_16  and  C13_17 
REMARK    5  A    between atoms: C13_17  and  C14_18 
REMARK    6  A    between atoms: C14_18  and  C15_19 
ROOT
HETATM    1  C3  UNL     1      22.021   1.902  50.430  1.00  0.00     0.120 C 
HETATM    2  N1  UNL     1      22.179   1.686  49.159  1.00  0.00    -0.247 NA
HETATM    3  C4  UNL     1      22.966   2.772  48.505  1.00  0.00     0.318 C 
HETATM    4  O1  UNL     1      22.890   3.881  49.290  1.00  0.00    -0.370 OA
HETATM    5  C5  UNL     1      23.544   4.997  48.977  1.00  0.00     0.170 C 
HETATM    6  C6  UNL     1      23.361   6.114  50.006  1.00  0.00     0.027 C 
HETATM    7  C7  UNL     1      23.820   5.741  51.347  1.00  0.00     0.012 C 
HETATM    8  C8  UNL     1      23.179   4.686  52.141  1.00  0.00     0.046 C 
HETATM    9  C9  UNL     1      21.874   4.143  51.764  1.00  0.00     0.135 C 
HETATM   10  N2  UNL     1      22.481   2.985  51.240  1.00  0.00    -0.344 N 
HETATM   11  C10 UNL     1      23.710   3.305  51.843  1.00  0.00     0.190 C 
ENDROOT
BRANCH  11  12
HETATM   12  N3  UNL     1      23.913   2.501  53.057  1.00  0.00    -0.378 N 
HETATM   13  H16 UNL     1      23.479   2.512  54.003  1.00  0.00     0.161 HD
BRANCH  12  14
HETATM   14  C11 UNL     1      24.920   1.489  52.905  1.00  0.00     0.085 C 
HETATM   15  C12 UNL     1      24.819   0.252  53.393  1.00  0.00     0.017 C 
BRANCH  15  16
HETATM   16  C13 UNL     1      25.792  -0.829  53.284  1.00  0.00     0.002 C 
BRANCH  16  17
HETATM   17  C14 UNL     1      26.851  -0.734  52.508  1.00  0.00     0.015 C 
BRANCH  17  18
HETATM   18  C15 UNL     1      28.157  -0.720  53.115  1.00  0.00    -0.005 A 
HETATM   19  C16 UNL     1      28.359  -0.066  54.371  1.00  0.00     0.111 A 
HETATM   20  S1  UNL     1      29.844  -0.821  53.685  1.00  0.00    -0.121 SA
ENDBRANCH  17  18
ENDBRANCH  16  17
ENDBRANCH  15  16
ENDBRANCH  12  14
ENDBRANCH  11  12
BRANCH   1  21
HETATM   21  C2  UNL     1      21.265   0.871  51.093  1.00  0.00     0.024 C 
HETATM   22  C1  UNL     1      21.350   0.017  52.099  1.00  0.00     0.035 C 
ENDBRANCH   1  21
TORSDOF 6
ENDMDL
MODEL 5
REMARK VINA RESULT:      -5.9      7.464      9.742
REMARK  6 active torsions:
REMARK  status: ('A' for Active; 'I' for Inactive)
REMARK    1  A    between atoms: C2_2  and  C3_3 
REMARK    2  A    between atoms: C10_13  and  N3_14 
REMARK    3  A    between atoms: N3_14  and  C11_15 
REMARK    4  A    between atoms: C12_16  and  C13_17 
REMARK    5  A    between atoms: C13_17  and  C14_18 
REMARK    6  A    between atoms: C14_18  and  C15_19 
ROOT
HETATM    1  C3  UNL     1      28.612   7.573  47.656  1.00  0.00     0.120 C 
HETATM    2  N1  UNL     1      28.425   7.666  46.374  1.00  0.00    -0.247 NA
HETATM    3  C4  UNL     1      29.145   8.837  45.792  1.00  0.00     0.318 C 
HETATM    4  O1  UNL     1      29.392   9.723  46.795  1.00  0.00    -0.370 OA
HETATM    5  C5  UNL     1      30.071  10.846  46.575  1.00  0.00     0.170 C 
HETATM    6  C6  UNL     1      30.276  11.686  47.837  1.00  0.00     0.027 C 
HETATM    7  C7  UNL     1      31.007  10.973  48.889  1.00  0.00     0.012 C 
HETATM    8  C8  UNL     1      30.466   9.791  49.570  1.00  0.00     0.046 C 
HETATM    9  C9  UNL     1      29.056   9.425  49.445  1.00  0.00     0.135 C 
HETATM   10  N2  UNL     1      29.379   8.400  48.533  1.00  0.00    -0.344 N 
HETATM   11  C10 UNL     1      30.747   8.499  48.841  1.00  0.00     0.190 C 
ENDROOT
BRANCH  11  12
HETATM   12  N3  UNL     1      31.151   7.414  49.747  1.00  0.00    -0.378 N 
HETATM   13  H16 UNL     1      30.901   7.169  50.728  1.00  0.00     0.161 HD
BRANCH  12  14
HETATM   14  C11 UNL     1      32.086   6.499  49.155  1.00  0.00     0.085 C 
HETATM   15  C12 UNL     1      31.738   5.397  48.490  1.00  0.00     0.017 C 
BRANCH  15  16
HETATM   16  C13 UNL     1      32.622   4.421  47.863  1.00  0.00     0.002 C 
BRANCH  16  17
HETATM   17  C14 UNL     1      32.298   3.808  46.744  1.00  0.00     0.015 C 
BRANCH  17  18
HETATM   18  C15 UNL     1      32.871   4.272  45.507  1.00  0.00    -0.005 A 
HETATM   19  C16 UNL     1      34.285   4.213  45.302  1.00  0.00     0.111 A 
HETATM   20  S1  UNL     1      33.366   4.898  43.911  1.00  0.00    -0.121 SA
ENDBRANCH  17  18
ENDBRANCH  16  17
ENDBRANCH  15  16
ENDBRANCH  12  14
ENDBRANCH  11  12
BRANCH   1  21
HETATM   21  C2  UNL     1      27.931   6.451  48.251  1.00  0.00     0.024 C 
HETATM   22  C1  UNL     1      28.092   5.163  48.497  1.00  0.00     0.035 C 
ENDBRANCH   1  21
TORSDOF 6
ENDMDL
MODEL 6
REMARK VINA RESULT:      -5.7      3.330      4.339
REMARK  6 active torsions:
REMARK  status: ('A' for Active; 'I' for Inactive)
REMARK    1  A    between atoms: C2_2  and  C3_3 
REMARK    2  A    between atoms: C10_13  and  N3_14 
REMARK    3  A    between atoms: N3_14  and  C11_15 
REMARK    4  A    between atoms: C12_16  and  C13_17 
REMARK    5  A    between atoms: C13_17  and  C14_18 
REMARK    6  A    between atoms: C14_18  and  C15_19 
ROOT
HETATM    1  C3  UNL     1      25.245   5.584  49.640  1.00  0.00     0.120 C 
HETATM    2  N1  UNL     1      25.568   6.703  50.213  1.00  0.00    -0.247 NA
HETATM    3  C4  UNL     1      24.394   7.354  50.862  1.00  0.00     0.318 C 
HETATM    4  O1  UNL     1      23.263   6.861  50.285  1.00  0.00    -0.370 OA
HETATM    5  C5  UNL     1      22.055   7.229  50.704  1.00  0.00     0.170 C 
HETATM    6  C6  UNL     1      20.918   6.533  49.954  1.00  0.00     0.027 C 
HETATM    7  C7  UNL     1      20.959   5.073  50.074  1.00  0.00     0.012 C 
HETATM    8  C8  UNL     1      22.043   4.260  49.512  1.00  0.00     0.046 C 
HETATM    9  C9  UNL     1      22.993   4.824  48.553  1.00  0.00     0.135 C 
HETATM   10  N2  UNL     1      23.977   4.929  49.556  1.00  0.00    -0.344 N 
HETATM   11  C10 UNL     1      23.231   4.123  50.433  1.00  0.00     0.190 C 
ENDROOT
BRANCH  11  12
HETATM   12  N3  UNL     1      23.771   2.756  50.462  1.00  0.00    -0.378 N 
HETATM   13  H16 UNL     1      24.094   2.098  49.722  1.00  0.00     0.161 HD
BRANCH  12  14
HETATM   14  C11 UNL     1      23.878   2.216  51.788  1.00  0.00     0.085 C 
HETATM   15  C12 UNL     1      24.487   1.067  52.083  1.00  0.00     0.017 C 
BRANCH  15  16
HETATM   16  C13 UNL     1      24.636   0.453  53.398  1.00  0.00     0.002 C 
BRANCH  16  17
HETATM   17  C14 UNL     1      23.879  -0.552  53.785  1.00  0.00     0.015 C 
BRANCH  17  18
HETATM   18  C15 UNL     1      22.469  -0.326  53.969  1.00  0.00    -0.005 A 
HETATM   19  C16 UNL     1      21.609  -1.408  54.341  1.00  0.00     0.111 A 
HETATM   20  S1  UNL     1      20.765   0.172  54.145  1.00  0.00    -0.121 SA
ENDBRANCH  17  18
ENDBRANCH  16  17
ENDBRANCH  15  16
ENDBRANCH  12  14
ENDBRANCH  11  12
BRANCH   1  21
HETATM   21  C2  UNL     1      26.357   4.927  49.002  1.00  0.00     0.024 C 
HETATM   22  C1  UNL     1      27.599   5.154  48.612  1.00  0.00     0.035 C 
ENDBRANCH   1  21
TORSDOF 6
ENDMDL
MODEL 7
REMARK VINA RESULT:      -5.6      3.548      5.392
REMARK  6 active torsions:
REMARK  status: ('A' for Active; 'I' for Inactive)
REMARK    1  A    between atoms: C2_2  and  C3_3 
REMARK    2  A    between atoms: C10_13  and  N3_14 
REMARK    3  A    between atoms: N3_14  and  C11_15 
REMARK    4  A    between atoms: C12_16  and  C13_17 
REMARK    5  A    between atoms: C13_17  and  C14_18 
REMARK    6  A    between atoms: C14_18  and  C15_19 
ROOT
HETATM    1  C3  UNL     1      24.054   2.820  49.764  1.00  0.00     0.120 C 
HETATM    2  N1  UNL     1      23.229   2.681  48.772  1.00  0.00    -0.247 NA
HETATM    3  C4  UNL     1      21.986   1.964  49.179  1.00  0.00     0.318 C 
HETATM    4  O1  UNL     1      22.256   1.258  50.311  1.00  0.00    -0.370 OA
HETATM    5  C5  UNL     1      21.310   0.557  50.932  1.00  0.00     0.170 C 
HETATM    6  C6  UNL     1      21.807  -0.132  52.205  1.00  0.00     0.027 C 
HETATM    7  C7  UNL     1      22.332   0.807  53.200  1.00  0.00     0.012 C 
HETATM    8  C8  UNL     1      23.538   1.612  52.973  1.00  0.00     0.046 C 
HETATM    9  C9  UNL     1      24.447   1.318  51.866  1.00  0.00     0.135 C 
HETATM   10  N2  UNL     1      23.931   2.400  51.124  1.00  0.00    -0.344 N 
HETATM   11  C10 UNL     1      23.266   2.910  52.252  1.00  0.00     0.190 C 
ENDROOT
BRANCH  11  12
HETATM   12  N3  UNL     1      24.012   4.042  52.821  1.00  0.00    -0.378 N 
HETATM   13  H16 UNL     1      24.856   4.111  53.426  1.00  0.00     0.161 HD
BRANCH  12  14
HETATM   14  C11 UNL     1      23.460   5.320  52.469  1.00  0.00     0.085 C 
HETATM   15  C12 UNL     1      22.630   5.521  51.444  1.00  0.00     0.017 C 
BRANCH  15  16
HETATM   16  C13 UNL     1      22.030   6.782  51.022  1.00  0.00     0.002 C 
BRANCH  16  17
HETATM   17  C14 UNL     1      22.567   7.525  50.077  1.00  0.00     0.015 C 
BRANCH  17  18
HETATM   18  C15 UNL     1      23.992   7.465  49.875  1.00  0.00    -0.005 A 
HETATM   19  C16 UNL     1      24.524   7.121  48.593  1.00  0.00     0.111 A 
HETATM   20  S1  UNL     1      25.776   7.450  49.846  1.00  0.00    -0.121 SA
ENDBRANCH  17  18
ENDBRANCH  16  17
ENDBRANCH  15  16
ENDBRANCH  12  14
ENDBRANCH  11  12
BRANCH   1  21
HETATM   21  C2  UNL     1      25.266   3.510  49.405  1.00  0.00     0.024 C 
HETATM   22  C1  UNL     1      26.549   3.568  49.720  1.00  0.00     0.035 C 
ENDBRANCH   1  21
TORSDOF 6
ENDMDL
MODEL 8
REMARK VINA RESULT:      -5.5      9.562     12.149
REMARK  6 active torsions:
REMARK  status: ('A' for Active; 'I' for Inactive)
REMARK    1  A    between atoms: C2_2  and  C3_3 
REMARK    2  A    between atoms: C10_13  and  N3_14 
REMARK    3  A    between atoms: N3_14  and  C11_15 
REMARK    4  A    between atoms: C12_16  and  C13_17 
REMARK    5  A    between atoms: C13_17  and  C14_18 
REMARK    6  A    between atoms: C14_18  and  C15_19 
ROOT
HETATM    1  C3  UNL     1      32.415   4.049  47.639  1.00  0.00     0.120 C 
HETATM    2  N1  UNL     1      31.137   4.280  47.633  1.00  0.00    -0.247 NA
HETATM    3  C4  UNL     1      30.837   5.741  47.634  1.00  0.00     0.318 C 
HETATM    4  O1  UNL     1      31.930   6.398  48.110  1.00  0.00    -0.370 OA
HETATM    5  C5  UNL     1      31.966   7.726  48.176  1.00  0.00     0.170 C 
HETATM    6  C6  UNL     1      33.296   8.269  48.702  1.00  0.00     0.027 C 
HETATM    7  C7  UNL     1      34.443   7.876  47.879  1.00  0.00     0.012 C 
HETATM    8  C8  UNL     1      34.882   6.483  47.744  1.00  0.00     0.046 C 
HETATM    9  C9  UNL     1      34.385   5.442  48.643  1.00  0.00     0.135 C 
HETATM   10  N2  UNL     1      33.512   4.964  47.645  1.00  0.00    -0.344 N 
HETATM   11  C10 UNL     1      34.157   5.728  46.656  1.00  0.00     0.190 C 
ENDROOT
BRANCH  11  12
HETATM   12  N3  UNL     1      35.055   4.883  45.857  1.00  0.00    -0.378 N 
HETATM   13  H16 UNL     1      35.990   4.461  46.036  1.00  0.00     0.161 HD
BRANCH  12  14
HETATM   14  C11 UNL     1      34.533   4.572  44.556  1.00  0.00     0.085 C 
HETATM   15  C12 UNL     1      34.740   5.314  43.468  1.00  0.00     0.017 C 
BRANCH  15  16
HETATM   16  C13 UNL     1      34.246   5.068  42.117  1.00  0.00     0.002 C 
BRANCH  16  17
HETATM   17  C14 UNL     1      33.084   4.492  41.897  1.00  0.00     0.015 C 
BRANCH  17  18
HETATM   18  C15 UNL     1      32.956   3.595  40.777  1.00  0.00    -0.005 A 
HETATM   19  C16 UNL     1      34.065   2.789  40.370  1.00  0.00     0.111 A 
HETATM   20  S1  UNL     1      32.582   2.561  39.372  1.00  0.00    -0.121 SA
ENDBRANCH  17  18
ENDBRANCH  16  17
ENDBRANCH  15  16
ENDBRANCH  12  14
ENDBRANCH  11  12
BRANCH   1  21
HETATM   21  C2  UNL     1      32.741   2.646  47.638  1.00  0.00     0.024 C 
HETATM   22  C1  UNL     1      32.582   1.554  46.910  1.00  0.00     0.035 C 
ENDBRANCH   1  21
TORSDOF 6
ENDMDL
MODEL 9
REMARK VINA RESULT:      -5.5      3.522      6.176
REMARK  6 active torsions:
REMARK  status: ('A' for Active; 'I' for Inactive)
REMARK    1  A    between atoms: C2_2  and  C3_3 
REMARK    2  A    between atoms: C10_13  and  N3_14 
REMARK    3  A    between atoms: N3_14  and  C11_15 
REMARK    4  A    between atoms: C12_16  and  C13_17 
REMARK    5  A    between atoms: C13_17  and  C14_18 
REMARK    6  A    between atoms: C14_18  and  C15_19 
ROOT
HETATM    1  C3  UNL     1      21.292   3.354  52.087  1.00  0.00     0.120 C 
HETATM    2  N1  UNL     1      21.928   4.485  52.083  1.00  0.00    -0.247 NA
HETATM    3  C4  UNL     1      23.401   4.295  52.226  1.00  0.00     0.318 C 
HETATM    4  O1  UNL     1      23.618   3.072  52.783  1.00  0.00    -0.370 OA
HETATM    5  C5  UNL     1      24.849   2.611  52.983  1.00  0.00     0.170 C 
HETATM    6  C6  UNL     1      24.877   1.203  53.582  1.00  0.00     0.027 C 
HETATM    7  C7  UNL     1      24.205   0.207  52.742  1.00  0.00     0.012 C 
HETATM    8  C8  UNL     1      22.763   0.238  52.475  1.00  0.00     0.046 C 
HETATM    9  C9  UNL     1      21.866   1.089  53.257  1.00  0.00     0.135 C 
HETATM   10  N2  UNL     1      21.793   2.021  52.202  1.00  0.00    -0.344 N 
HETATM   11  C10 UNL     1      22.389   1.116  51.305  1.00  0.00     0.190 C 
ENDROOT
BRANCH  11  12
HETATM   12  N3  UNL     1      21.371   0.504  50.439  1.00  0.00    -0.378 N 
HETATM   13  H16 UNL     1      20.628  -0.208  50.600  1.00  0.00     0.161 HD
BRANCH  12  14
HETATM   14  C11 UNL     1      21.408   0.990  49.089  1.00  0.00     0.085 C 
HETATM   15  C12 UNL     1      22.204   1.973  48.668  1.00  0.00     0.017 C 
BRANCH  15  16
HETATM   16  C13 UNL     1      22.301   2.523  47.320  1.00  0.00     0.002 C 
BRANCH  16  17
HETATM   17  C14 UNL     1      22.021   3.783  47.062  1.00  0.00     0.015 C 
BRANCH  17  18
HETATM   18  C15 UNL     1      22.635   4.808  47.866  1.00  0.00    -0.005 A 
HETATM   19  C16 UNL     1      21.826   5.686  48.654  1.00  0.00     0.111 A 
HETATM   20  S1  UNL     1      23.596   6.000  48.782  1.00  0.00    -0.121 SA
ENDBRANCH  17  18
ENDBRANCH  16  17
ENDBRANCH  15  16
ENDBRANCH  12  14
ENDBRANCH  11  12
BRANCH   1  21
HETATM   21  C2  UNL     1      19.866   3.501  51.949  1.00  0.00     0.024 C 
HETATM   22  C1  UNL     1      18.783   2.804  51.651  1.00  0.00     0.035 C 
ENDBRANCH   1  21
TORSDOF 6
ENDMDL
