MODEL 1
REMARK VINA RESULT:      -7.1      0.000      0.000
REMARK  7 active torsions:
REMARK  status: ('A' for Active; 'I' for Inactive)
REMARK    1  A    between atoms: N2_7  and  C5_8 
REMARK    2  A    between atoms: C5_8  and  C6_9 
REMARK    3  A    between atoms: C6_9  and  C7_10 
REMARK    4  A    between atoms: C8_11  and  C9_12 
REMARK    5  A    between atoms: C12_15  and  O2_16 
REMARK    6  A    between atoms: O2_16  and  C13_17 
REMARK    7  A    between atoms: C13_17  and  C14_18 
ROOT
HETATM    1  C7  UNL     1      26.389   3.245  50.693  1.00  0.00    -0.024 C 
HETATM    2  C8  UNL     1      26.131   3.801  49.526  1.00  0.00     0.007 C 
ENDROOT
BRANCH   2   3
HETATM    3  C9  UNL     1      26.886   4.908  48.937  1.00  0.00    -0.036 A 
HETATM    4  C10 UNL     1      26.267   6.119  48.740  1.00  0.00     0.014 A 
HETATM    5  C11 UNL     1      26.944   7.184  48.191  1.00  0.00     0.037 A 
HETATM    6  C12 UNL     1      28.263   7.088  47.815  1.00  0.00     0.068 A 
HETATM    7  C17 UNL     1      28.892   5.849  48.018  1.00  0.00     0.037 A 
HETATM    8  C18 UNL     1      28.191   4.774  48.578  1.00  0.00     0.014 A 
BRANCH   6   9
HETATM    9  O2  UNL     1      29.179   7.943  47.261  1.00  0.00    -0.350 OA
BRANCH   9  10
HETATM   10  C13 UNL     1      30.227   8.587  47.881  1.00  0.00     0.188 C 
BRANCH  10  11
HETATM   11  C14 UNL     1      29.831   9.397  49.069  1.00  0.00     0.054 A 
HETATM   12  C15 UNL     1      30.454  10.773  49.060  1.00  0.00    -0.019 A 
HETATM   13  C16 UNL     1      29.106  10.654  48.903  1.00  0.00    -0.019 A 
ENDBRANCH  10  11
ENDBRANCH   9  10
ENDBRANCH   6   9
ENDBRANCH   2   3
BRANCH   1  14
HETATM   14  C6  UNL     1      25.612   2.129  51.266  1.00  0.00     0.047 C 
BRANCH  14  15
HETATM   15  C5  UNL     1      25.834   2.088  52.776  1.00  0.00     0.129 C 
BRANCH  15  16
HETATM   16  N2  UNL     1      26.885   1.149  53.119  1.00  0.00    -0.349 N 
HETATM   17  C1  UNL     1      28.014   1.499  53.887  1.00  0.00     0.248 C 
HETATM   18  O1  UNL     1      28.295   2.705  54.034  1.00  0.00    -0.271 OA
HETATM   19  C2  UNL     1      28.918   0.524  54.554  1.00  0.00     0.372 C 
HETATM   20  N1  UNL     1      28.355  -0.783  54.375  1.00  0.00     0.093 N 
HETATM   21  C3  UNL     1      27.934  -1.067  53.032  1.00  0.00     0.290 C 
HETATM   22  H3  UNL     1      28.891  -1.538  54.840  1.00  0.00     0.316 HD
HETATM   23  C4  UNL     1      26.769  -0.216  52.650  1.00  0.00     0.155 C 
ENDBRANCH  15  16
ENDBRANCH  14  15
ENDBRANCH   1  14
TORSDOF 7
ENDMDL
MODEL 2
REMARK VINA RESULT:      -7.1      7.824     10.955
REMARK  7 active torsions:
REMARK  status: ('A' for Active; 'I' for Inactive)
REMARK    1  A    between atoms: N2_7  and  C5_8 
REMARK    2  A    between atoms: C5_8  and  C6_9 
REMARK    3  A    between atoms: C6_9  and  C7_10 
REMARK    4  A    between atoms: C8_11  and  C9_12 
REMARK    5  A    between atoms: C12_15  and  O2_16 
REMARK    6  A    between atoms: O2_16  and  C13_17 
REMARK    7  A    between atoms: C13_17  and  C14_18 
ROOT
HETATM    1  C7  UNL     1      20.305  -0.246  52.947  1.00  0.00    -0.024 C 
HETATM    2  C8  UNL     1      20.957  -0.957  53.845  1.00  0.00     0.007 C 
ENDROOT
BRANCH   2   3
HETATM    3  C9  UNL     1      22.393  -0.861  54.112  1.00  0.00    -0.036 A 
HETATM    4  C10 UNL     1      23.223  -0.325  53.156  1.00  0.00     0.014 A 
HETATM    5  C11 UNL     1      24.578  -0.215  53.370  1.00  0.00     0.037 A 
HETATM    6  C12 UNL     1      25.163  -0.633  54.542  1.00  0.00     0.068 A 
HETATM    7  C17 UNL     1      24.311  -1.181  55.515  1.00  0.00     0.037 A 
HETATM    8  C18 UNL     1      22.935  -1.286  55.284  1.00  0.00     0.014 A 
BRANCH   6   9
HETATM    9  O2  UNL     1      26.441  -0.654  55.036  1.00  0.00    -0.350 OA
BRANCH   9  10
HETATM   10  C13 UNL     1      27.507   0.139  54.673  1.00  0.00     0.188 C 
BRANCH  10  11
HETATM   11  C14 UNL     1      28.261  -0.355  53.485  1.00  0.00     0.054 A 
HETATM   12  C15 UNL     1      29.694   0.123  53.474  1.00  0.00    -0.019 A 
HETATM   13  C16 UNL     1      29.438  -1.203  53.652  1.00  0.00    -0.019 A 
ENDBRANCH  10  11
ENDBRANCH   9  10
ENDBRANCH   6   9
ENDBRANCH   2   3
BRANCH   1  14
HETATM   14  C6  UNL     1      18.856  -0.361  52.696  1.00  0.00     0.047 C 
BRANCH  14  15
HETATM   15  C5  UNL     1      18.293  -1.514  53.523  1.00  0.00     0.129 C 
BRANCH  15  16
HETATM   16  N2  UNL     1      17.019  -1.958  52.993  1.00  0.00    -0.349 N 
HETATM   17  C1  UNL     1      16.560  -3.288  53.095  1.00  0.00     0.248 C 
HETATM   18  O1  UNL     1      17.375  -4.189  53.373  1.00  0.00    -0.271 OA
HETATM   19  C2  UNL     1      15.149  -3.712  52.893  1.00  0.00     0.372 C 
HETATM   20  N1  UNL     1      14.360  -2.528  52.715  1.00  0.00     0.093 N 
HETATM   21  C3  UNL     1      14.915  -1.581  51.789  1.00  0.00     0.290 C 
HETATM   22  H3  UNL     1      13.346  -2.711  52.606  1.00  0.00     0.316 HD
HETATM   23  C4  UNL     1      16.175  -0.989  52.326  1.00  0.00     0.155 C 
ENDBRANCH  15  16
ENDBRANCH  14  15
ENDBRANCH   1  14
TORSDOF 7
ENDMDL
MODEL 3
REMARK VINA RESULT:      -7.0      3.817      8.971
REMARK  7 active torsions:
REMARK  status: ('A' for Active; 'I' for Inactive)
REMARK    1  A    between atoms: N2_7  and  C5_8 
REMARK    2  A    between atoms: C5_8  and  C6_9 
REMARK    3  A    between atoms: C6_9  and  C7_10 
REMARK    4  A    between atoms: C8_11  and  C9_12 
REMARK    5  A    between atoms: C12_15  and  O2_16 
REMARK    6  A    between atoms: O2_16  and  C13_17 
REMARK    7  A    between atoms: C13_17  and  C14_18 
ROOT
HETATM    1  C7  UNL     1      26.752   5.320  49.080  1.00  0.00    -0.024 C 
HETATM    2  C8  UNL     1      26.859   4.013  49.220  1.00  0.00     0.007 C 
ENDROOT
BRANCH   2   3
HETATM    3  C9  UNL     1      26.043   3.195  50.118  1.00  0.00    -0.036 A 
HETATM    4  C10 UNL     1      26.658   2.438  51.086  1.00  0.00     0.014 A 
HETATM    5  C11 UNL     1      25.926   1.657  51.951  1.00  0.00     0.037 A 
HETATM    6  C12 UNL     1      24.553   1.596  51.888  1.00  0.00     0.068 A 
HETATM    7  C17 UNL     1      23.930   2.371  50.897  1.00  0.00     0.037 A 
HETATM    8  C18 UNL     1      24.687   3.161  50.024  1.00  0.00     0.014 A 
BRANCH   6   9
HETATM    9  O2  UNL     1      23.577   0.936  52.587  1.00  0.00    -0.350 OA
BRANCH   9  10
HETATM   10  C13 UNL     1      23.646  -0.306  53.179  1.00  0.00     0.188 C 
BRANCH  10  11
HETATM   11  C14 UNL     1      22.320  -0.890  53.532  1.00  0.00     0.054 A 
HETATM   12  C15 UNL     1      22.257  -1.346  54.970  1.00  0.00    -0.019 A 
HETATM   13  C16 UNL     1      21.497  -0.287  54.577  1.00  0.00    -0.019 A 
ENDBRANCH  10  11
ENDBRANCH   9  10
ENDBRANCH   6   9
ENDBRANCH   2   3
BRANCH   1  14
HETATM   14  C6  UNL     1      27.587   6.124  48.167  1.00  0.00     0.047 C 
BRANCH  14  15
HETATM   15  C5  UNL     1      29.018   5.594  48.199  1.00  0.00     0.129 C 
BRANCH  15  16
HETATM   16  N2  UNL     1      29.947   6.638  48.588  1.00  0.00    -0.349 N 
HETATM   17  C1  UNL     1      31.271   6.380  48.999  1.00  0.00     0.248 C 
HETATM   18  O1  UNL     1      31.585   5.221  49.336  1.00  0.00    -0.271 OA
HETATM   19  C2  UNL     1      32.350   7.402  49.065  1.00  0.00     0.372 C 
HETATM   20  N1  UNL     1      31.827   8.621  48.520  1.00  0.00     0.093 N 
HETATM   21  C3  UNL     1      30.528   8.982  49.017  1.00  0.00     0.290 C 
HETATM   22  H3  UNL     1      32.516   9.394  48.481  1.00  0.00     0.316 HD
HETATM   23  C4  UNL     1      29.494   8.012  48.552  1.00  0.00     0.155 C 
ENDBRANCH  15  16
ENDBRANCH  14  15
ENDBRANCH   1  14
TORSDOF 7
ENDMDL
MODEL 4
REMARK VINA RESULT:      -7.0      6.030     10.588
REMARK  7 active torsions:
REMARK  status: ('A' for Active; 'I' for Inactive)
REMARK    1  A    between atoms: N2_7  and  C5_8 
REMARK    2  A    between atoms: C5_8  and  C6_9 
REMARK    3  A    between atoms: C6_9  and  C7_10 
REMARK    4  A    between atoms: C8_11  and  C9_12 
REMARK    5  A    between atoms: C12_15  and  O2_16 
REMARK    6  A    between atoms: O2_16  and  C13_17 
REMARK    7  A    between atoms: C13_17  and  C14_18 
ROOT
HETATM    1  C7  UNL     1      24.221   1.577  52.579  1.00  0.00    -0.024 C 
HETATM    2  C8  UNL     1      23.773   0.414  53.009  1.00  0.00     0.007 C 
ENDROOT
BRANCH   2   3
HETATM    3  C9  UNL     1      22.361   0.056  53.149  1.00  0.00    -0.036 A 
HETATM    4  C10 UNL     1      21.442   0.582  52.272  1.00  0.00     0.014 A 
HETATM    5  C11 UNL     1      20.106   0.268  52.369  1.00  0.00     0.037 A 
HETATM    6  C12 UNL     1      19.628  -0.580  53.341  1.00  0.00     0.068 A 
HETATM    7  C17 UNL     1      20.571  -1.113  54.235  1.00  0.00     0.037 A 
HETATM    8  C18 UNL     1      21.928  -0.786  54.124  1.00  0.00     0.014 A 
BRANCH   6   9
HETATM    9  O2  UNL     1      18.395  -1.069  53.683  1.00  0.00    -0.350 OA
BRANCH   9  10
HETATM   10  C13 UNL     1      17.652  -2.033  53.038  1.00  0.00     0.188 C 
BRANCH  10  11
HETATM   11  C14 UNL     1      17.368  -3.241  53.865  1.00  0.00     0.054 A 
HETATM   12  C15 UNL     1      16.117  -3.960  53.421  1.00  0.00    -0.019 A 
HETATM   13  C16 UNL     1      17.325  -4.566  53.253  1.00  0.00    -0.019 A 
ENDBRANCH  10  11
ENDBRANCH   9  10
ENDBRANCH   6   9
ENDBRANCH   2   3
BRANCH   1  14
HETATM   14  C6  UNL     1      25.651   1.914  52.446  1.00  0.00     0.047 C 
BRANCH  14  15
HETATM   15  C5  UNL     1      26.389   0.732  51.823  1.00  0.00     0.129 C 
BRANCH  15  16
HETATM   16  N2  UNL     1      27.476   0.293  52.676  1.00  0.00    -0.349 N 
HETATM   17  C1  UNL     1      27.798  -1.065  52.881  1.00  0.00     0.248 C 
HETATM   18  O1  UNL     1      26.960  -1.937  52.577  1.00  0.00    -0.271 OA
HETATM   19  C2  UNL     1      29.086  -1.552  53.443  1.00  0.00     0.372 C 
HETATM   20  N1  UNL     1      29.948  -0.418  53.601  1.00  0.00     0.093 N 
HETATM   21  C3  UNL     1      29.327   0.715  54.230  1.00  0.00     0.290 C 
HETATM   22  H3  UNL     1      30.894  -0.654  53.952  1.00  0.00     0.316 HD
HETATM   23  C4  UNL     1      28.271   1.297  53.350  1.00  0.00     0.155 C 
ENDBRANCH  15  16
ENDBRANCH  14  15
ENDBRANCH   1  14
TORSDOF 7
ENDMDL
MODEL 5
REMARK VINA RESULT:      -6.9      1.707      2.254
REMARK  7 active torsions:
REMARK  status: ('A' for Active; 'I' for Inactive)
REMARK    1  A    between atoms: N2_7  and  C5_8 
REMARK    2  A    between atoms: C5_8  and  C6_9 
REMARK    3  A    between atoms: C6_9  and  C7_10 
REMARK    4  A    between atoms: C8_11  and  C9_12 
REMARK    5  A    between atoms: C12_15  and  O2_16 
REMARK    6  A    between atoms: O2_16  and  C13_17 
REMARK    7  A    between atoms: C13_17  and  C14_18 
ROOT
HETATM    1  C7  UNL     1      26.087   3.444  50.648  1.00  0.00    -0.024 C 
HETATM    2  C8  UNL     1      26.641   3.587  49.460  1.00  0.00     0.007 C 
ENDROOT
BRANCH   2   3
HETATM    3  C9  UNL     1      27.047   4.864  48.871  1.00  0.00    -0.036 A 
HETATM    4  C10 UNL     1      26.115   5.864  48.719  1.00  0.00     0.014 A 
HETATM    5  C11 UNL     1      26.457   7.078  48.172  1.00  0.00     0.037 A 
HETATM    6  C12 UNL     1      27.738   7.350  47.752  1.00  0.00     0.068 A 
HETATM    7  C17 UNL     1      28.686   6.325  47.908  1.00  0.00     0.037 A 
HETATM    8  C18 UNL     1      28.324   5.094  48.467  1.00  0.00     0.014 A 
BRANCH   6   9
HETATM    9  O2  UNL     1      28.367   8.428  47.187  1.00  0.00    -0.350 OA
BRANCH   9  10
HETATM   10  C13 UNL     1      27.911   9.249  46.179  1.00  0.00     0.188 C 
BRANCH  10  11
HETATM   11  C14 UNL     1      27.834   8.592  44.843  1.00  0.00     0.054 A 
HETATM   12  C15 UNL     1      26.431   8.594  44.282  1.00  0.00    -0.019 A 
HETATM   13  C16 UNL     1      27.391   9.342  43.671  1.00  0.00    -0.019 A 
ENDBRANCH  10  11
ENDBRANCH   9  10
ENDBRANCH   6   9
ENDBRANCH   2   3
BRANCH   1  14
HETATM   14  C6  UNL     1      25.687   2.145  51.221  1.00  0.00     0.047 C 
BRANCH  14  15
HETATM   15  C5  UNL     1      26.044   2.121  52.705  1.00  0.00     0.129 C 
BRANCH  15  16
HETATM   16  N2  UNL     1      27.084   1.146  52.971  1.00  0.00    -0.349 N 
HETATM   17  C1  UNL     1      28.396   1.498  53.347  1.00  0.00     0.248 C 
HETATM   18  O1  UNL     1      28.785   2.669  53.162  1.00  0.00    -0.271 OA
HETATM   19  C2  UNL     1      29.378   0.566  53.963  1.00  0.00     0.372 C 
HETATM   20  N1  UNL     1      28.704  -0.676  54.208  1.00  0.00     0.093 N 
HETATM   21  C3  UNL     1      27.925  -1.155  53.101  1.00  0.00     0.290 C 
HETATM   22  H3  UNL     1      29.292  -1.388  54.676  1.00  0.00     0.316 HD
HETATM   23  C4  UNL     1      26.760  -0.259  52.844  1.00  0.00     0.155 C 
ENDBRANCH  15  16
ENDBRANCH  14  15
ENDBRANCH   1  14
TORSDOF 7
ENDMDL
MODEL 6
REMARK VINA RESULT:      -6.9      4.188      7.771
REMARK  7 active torsions:
REMARK  status: ('A' for Active; 'I' for Inactive)
REMARK    1  A    between atoms: N2_7  and  C5_8 
REMARK    2  A    between atoms: C5_8  and  C6_9 
REMARK    3  A    between atoms: C6_9  and  C7_10 
REMARK    4  A    between atoms: C8_11  and  C9_12 
REMARK    5  A    between atoms: C12_15  and  O2_16 
REMARK    6  A    between atoms: O2_16  and  C13_17 
REMARK    7  A    between atoms: C13_17  and  C14_18 
ROOT
HETATM    1  C7  UNL     1      28.848   6.340  47.898  1.00  0.00    -0.024 C 
HETATM    2  C8  UNL     1      28.493   5.204  48.465  1.00  0.00     0.007 C 
ENDROOT
BRANCH   2   3
HETATM    3  C9  UNL     1      27.128   4.853  48.860  1.00  0.00    -0.036 A 
HETATM    4  C10 UNL     1      26.131   5.792  48.748  1.00  0.00     0.014 A 
HETATM    5  C11 UNL     1      24.835   5.500  49.107  1.00  0.00     0.037 A 
HETATM    6  C12 UNL     1      24.478   4.263  49.592  1.00  0.00     0.068 A 
HETATM    7  C17 UNL     1      25.501   3.308  49.704  1.00  0.00     0.037 A 
HETATM    8  C18 UNL     1      26.815   3.619  49.335  1.00  0.00     0.014 A 
BRANCH   6   9
HETATM    9  O2  UNL     1      23.310   3.688  50.018  1.00  0.00    -0.350 OA
BRANCH   9  10
HETATM   10  C13 UNL     1      23.120   2.422  50.526  1.00  0.00     0.188 C 
BRANCH  10  11
HETATM   11  C14 UNL     1      22.874   2.383  51.996  1.00  0.00     0.054 A 
HETATM   12  C15 UNL     1      23.751   1.374  52.699  1.00  0.00    -0.019 A 
HETATM   13  C16 UNL     1      23.944   2.701  52.937  1.00  0.00    -0.019 A 
ENDBRANCH  10  11
ENDBRANCH   9  10
ENDBRANCH   6   9
ENDBRANCH   2   3
BRANCH   1  14
HETATM   14  C6  UNL     1      30.232   6.672  47.508  1.00  0.00     0.047 C 
BRANCH  14  15
HETATM   15  C5  UNL     1      31.131   6.601  48.739  1.00  0.00     0.129 C 
BRANCH  15  16
HETATM   16  N2  UNL     1      32.372   5.916  48.435  1.00  0.00    -0.349 N 
HETATM   17  C1  UNL     1      33.642   6.506  48.601  1.00  0.00     0.248 C 
HETATM   18  O1  UNL     1      33.722   7.745  48.722  1.00  0.00    -0.271 OA
HETATM   19  C2  UNL     1      34.924   5.754  48.646  1.00  0.00     0.372 C 
HETATM   20  N1  UNL     1      34.609   4.355  48.621  1.00  0.00     0.093 N 
HETATM   21  C3  UNL     1      33.646   3.983  47.623  1.00  0.00     0.290 C 
HETATM   22  H3  UNL     1      35.437   3.736  48.689  1.00  0.00     0.316 HD
HETATM   23  C4  UNL     1      32.306   4.558  47.937  1.00  0.00     0.155 C 
ENDBRANCH  15  16
ENDBRANCH  14  15
ENDBRANCH   1  14
TORSDOF 7
ENDMDL
MODEL 7
REMARK VINA RESULT:      -6.8      7.709     10.456
REMARK  7 active torsions:
REMARK  status: ('A' for Active; 'I' for Inactive)
REMARK    1  A    between atoms: N2_7  and  C5_8 
REMARK    2  A    between atoms: C5_8  and  C6_9 
REMARK    3  A    between atoms: C6_9  and  C7_10 
REMARK    4  A    between atoms: C8_11  and  C9_12 
REMARK    5  A    between atoms: C12_15  and  O2_16 
REMARK    6  A    between atoms: O2_16  and  C13_17 
REMARK    7  A    between atoms: C13_17  and  C14_18 
ROOT
HETATM    1  C7  UNL     1      20.439  -0.109  52.883  1.00  0.00    -0.024 C 
HETATM    2  C8  UNL     1      21.043  -0.845  53.796  1.00  0.00     0.007 C 
ENDROOT
BRANCH   2   3
HETATM    3  C9  UNL     1      22.473  -0.796  54.103  1.00  0.00    -0.036 A 
HETATM    4  C10 UNL     1      22.928  -1.330  55.285  1.00  0.00     0.014 A 
HETATM    5  C11 UNL     1      24.265  -1.306  55.609  1.00  0.00     0.037 A 
HETATM    6  C12 UNL     1      25.204  -0.750  54.772  1.00  0.00     0.068 A 
HETATM    7  C17 UNL     1      24.734  -0.206  53.565  1.00  0.00     0.037 A 
HETATM    8  C18 UNL     1      23.371  -0.238  53.248  1.00  0.00     0.014 A 
BRANCH   6   9
HETATM    9  O2  UNL     1      26.563  -0.582  54.813  1.00  0.00    -0.350 OA
BRANCH   9  10
HETATM   10  C13 UNL     1      27.331   0.325  54.115  1.00  0.00     0.188 C 
BRANCH  10  11
HETATM   11  C14 UNL     1      28.371  -0.295  53.246  1.00  0.00     0.054 A 
HETATM   12  C15 UNL     1      29.761   0.202  53.568  1.00  0.00    -0.019 A 
HETATM   13  C16 UNL     1      29.444  -1.097  53.828  1.00  0.00    -0.019 A 
ENDBRANCH  10  11
ENDBRANCH   9  10
ENDBRANCH   6   9
ENDBRANCH   2   3
BRANCH   1  14
HETATM   14  C6  UNL     1      18.994  -0.176  52.592  1.00  0.00     0.047 C 
BRANCH  14  15
HETATM   15  C5  UNL     1      18.712   0.562  51.286  1.00  0.00     0.129 C 
BRANCH  15  16
HETATM   16  N2  UNL     1      17.665   1.549  51.466  1.00  0.00    -0.349 N 
HETATM   17  C1  UNL     1      17.922   2.915  51.705  1.00  0.00     0.248 C 
HETATM   18  O1  UNL     1      19.062   3.258  52.077  1.00  0.00    -0.271 OA
HETATM   19  C2  UNL     1      16.923   4.004  51.546  1.00  0.00     0.372 C 
HETATM   20  N1  UNL     1      15.733   3.424  50.995  1.00  0.00     0.093 N 
HETATM   21  C3  UNL     1      15.310   2.214  51.640  1.00  0.00     0.290 C 
HETATM   22  H3  UNL     1      14.980   4.110  50.804  1.00  0.00     0.316 HD
HETATM   23  C4  UNL     1      16.286   1.112  51.396  1.00  0.00     0.155 C 
ENDBRANCH  15  16
ENDBRANCH  14  15
ENDBRANCH   1  14
TORSDOF 7
ENDMDL
MODEL 8
REMARK VINA RESULT:      -6.8      7.118      9.622
REMARK  7 active torsions:
REMARK  status: ('A' for Active; 'I' for Inactive)
REMARK    1  A    between atoms: N2_7  and  C5_8 
REMARK    2  A    between atoms: C5_8  and  C6_9 
REMARK    3  A    between atoms: C6_9  and  C7_10 
REMARK    4  A    between atoms: C8_11  and  C9_12 
REMARK    5  A    between atoms: C12_15  and  O2_16 
REMARK    6  A    between atoms: O2_16  and  C13_17 
REMARK    7  A    between atoms: C13_17  and  C14_18 
ROOT
HETATM    1  C7  UNL     1      22.296   1.368  50.607  1.00  0.00    -0.024 C 
HETATM    2  C8  UNL     1      22.297   0.907  51.842  1.00  0.00     0.007 C 
ENDROOT
BRANCH   2   3
HETATM    3  C9  UNL     1      23.493   0.698  52.660  1.00  0.00    -0.036 A 
HETATM    4  C10 UNL     1      24.436   1.695  52.742  1.00  0.00     0.014 A 
HETATM    5  C11 UNL     1      25.572   1.538  53.502  1.00  0.00     0.037 A 
HETATM    6  C12 UNL     1      25.817   0.385  54.212  1.00  0.00     0.068 A 
HETATM    7  C17 UNL     1      24.850  -0.630  54.124  1.00  0.00     0.037 A 
HETATM    8  C18 UNL     1      23.699  -0.456  53.347  1.00  0.00     0.014 A 
BRANCH   6   9
HETATM    9  O2  UNL     1      26.822  -0.055  55.033  1.00  0.00    -0.350 OA
BRANCH   9  10
HETATM   10  C13 UNL     1      28.182   0.073  54.858  1.00  0.00     0.188 C 
BRANCH  10  11
HETATM   11  C14 UNL     1      28.671  -0.364  53.519  1.00  0.00     0.054 A 
HETATM   12  C15 UNL     1      30.154  -0.650  53.514  1.00  0.00    -0.019 A 
HETATM   13  C16 UNL     1      29.280  -1.680  53.344  1.00  0.00    -0.019 A 
ENDBRANCH  10  11
ENDBRANCH   9  10
ENDBRANCH   6   9
ENDBRANCH   2   3
BRANCH   1  14
HETATM   14  C6  UNL     1      21.076   1.569  49.801  1.00  0.00     0.047 C 
BRANCH  14  15
HETATM   15  C5  UNL     1      20.732   3.056  49.777  1.00  0.00     0.129 C 
BRANCH  15  16
HETATM   16  N2  UNL     1      19.311   3.261  49.985  1.00  0.00    -0.349 N 
HETATM   17  C1  UNL     1      18.754   3.606  51.234  1.00  0.00     0.248 C 
HETATM   18  O1  UNL     1      19.436   3.442  52.266  1.00  0.00    -0.271 OA
HETATM   19  C2  UNL     1      17.389   4.164  51.426  1.00  0.00     0.372 C 
HETATM   20  N1  UNL     1      16.828   4.395  50.126  1.00  0.00     0.093 N 
HETATM   21  C3  UNL     1      16.984   3.300  49.211  1.00  0.00     0.290 C 
HETATM   22  H3  UNL     1      15.885   4.824  50.146  1.00  0.00     0.316 HD
HETATM   23  C4  UNL     1      18.420   3.105  48.855  1.00  0.00     0.155 C 
ENDBRANCH  15  16
ENDBRANCH  14  15
ENDBRANCH   1  14
TORSDOF 7
ENDMDL
MODEL 9
REMARK VINA RESULT:      -6.7      3.794      9.160
REMARK  7 active torsions:
REMARK  status: ('A' for Active; 'I' for Inactive)
REMARK    1  A    between atoms: N2_7  and  C5_8 
REMARK    2  A    between atoms: C5_8  and  C6_9 
REMARK    3  A    between atoms: C6_9  and  C7_10 
REMARK    4  A    between atoms: C8_11  and  C9_12 
REMARK    5  A    between atoms: C12_15  and  O2_16 
REMARK    6  A    between atoms: O2_16  and  C13_17 
REMARK    7  A    between atoms: C13_17  and  C14_18 
ROOT
HETATM    1  C7  UNL     1      26.705   5.215  49.113  1.00  0.00    -0.024 C 
HETATM    2  C8  UNL     1      26.850   3.915  49.284  1.00  0.00     0.007 C 
ENDROOT
BRANCH   2   3
HETATM    3  C9  UNL     1      26.039   3.091  50.181  1.00  0.00    -0.036 A 
HETATM    4  C10 UNL     1      24.668   3.164  50.109  1.00  0.00     0.014 A 
HETATM    5  C11 UNL     1      23.871   2.403  50.934  1.00  0.00     0.037 A 
HETATM    6  C12 UNL     1      24.403   1.539  51.862  1.00  0.00     0.068 A 
HETATM    7  C17 UNL     1      25.805   1.468  51.931  1.00  0.00     0.037 A 
HETATM    8  C18 UNL     1      26.603   2.248  51.086  1.00  0.00     0.014 A 
BRANCH   6   9
HETATM    9  O2  UNL     1      23.888   0.676  52.793  1.00  0.00    -0.350 OA
BRANCH   9  10
HETATM   10  C13 UNL     1      22.699  -0.017  52.746  1.00  0.00     0.188 C 
BRANCH  10  11
HETATM   11  C14 UNL     1      21.987  -0.100  54.054  1.00  0.00     0.054 A 
HETATM   12  C15 UNL     1      20.534  -0.481  53.894  1.00  0.00    -0.019 A 
HETATM   13  C16 UNL     1      21.388  -1.356  54.496  1.00  0.00    -0.019 A 
ENDBRANCH  10  11
ENDBRANCH   9  10
ENDBRANCH   6   9
ENDBRANCH   2   3
BRANCH   1  14
HETATM   14  C6  UNL     1      27.536   6.025  48.202  1.00  0.00     0.047 C 
BRANCH  14  15
HETATM   15  C5  UNL     1      27.526   7.477  48.673  1.00  0.00     0.129 C 
BRANCH  15  16
HETATM   16  N2  UNL     1      28.877   7.993  48.787  1.00  0.00    -0.349 N 
HETATM   17  C1  UNL     1      29.169   9.319  49.167  1.00  0.00     0.248 C 
HETATM   18  O1  UNL     1      28.263  10.175  49.116  1.00  0.00    -0.271 OA
HETATM   19  C2  UNL     1      30.499   9.791  49.635  1.00  0.00     0.372 C 
HETATM   20  N1  UNL     1      31.353   8.644  49.745  1.00  0.00     0.093 N 
HETATM   21  C3  UNL     1      31.313   7.766  48.609  1.00  0.00     0.290 C 
HETATM   22  H3  UNL     1      32.300   8.858  50.105  1.00  0.00     0.316 HD
HETATM   23  C4  UNL     1      29.981   7.103  48.498  1.00  0.00     0.155 C 
ENDBRANCH  15  16
ENDBRANCH  14  15
ENDBRANCH   1  14
TORSDOF 7
ENDMDL
