MODEL 1
REMARK VINA RESULT:      -7.9      0.000      0.000
REMARK  1 active torsions:
REMARK  status: ('A' for Active; 'I' for Inactive)
REMARK    1  A    between atoms: O1_2  and  C2_3 
REMARK       I    between atoms: C4_6  and  N2_7 
ROOT
HETATM    1  C2  UNL     1      24.627   3.367  50.992  1.00  0.00     0.085 C 
HETATM    2  C3  UNL     1      25.103   2.348  51.687  1.00  0.00     0.143 C 
HETATM    3  N1  UNL     1      25.369   1.751  52.948  1.00  0.00    -0.194 N 
HETATM    4  C4  UNL     1      25.469   0.350  53.090  1.00  0.00     0.745 C 
HETATM    5  N2  UNL     1      26.869   0.432  52.927  1.00  0.00    -0.044 NA
HETATM    6  C5  UNL     1      27.693  -0.403  53.449  1.00  0.00     0.324 C 
HETATM    7  F1  UNL     1      28.942  -0.040  53.104  1.00  0.00    -0.198 F 
HETATM    8  N3  UNL     1      24.575  -0.510  53.282  1.00  0.00     0.026 NA
HETATM    9  N4  UNL     1      23.222  -0.267  53.406  1.00  0.00    -0.229 N 
HETATM   10  C6  UNL     1      22.719  -0.914  54.497  1.00  0.00     0.119 A 
HETATM   11  C7  UNL     1      21.345  -0.704  54.655  1.00  0.00     0.022 A 
HETATM   12  C8  UNL     1      21.070   0.131  53.558  1.00  0.00     0.034 A 
HETATM   13  C9  UNL     1      22.235   0.383  52.813  1.00  0.00     0.072 A 
HETATM   14  C10 UNL     1      22.004   1.240  51.660  1.00  0.00     0.040 A 
HETATM   15  C11 UNL     1      21.669   0.677  50.428  1.00  0.00     0.155 A 
HETATM   16  N5  UNL     1      21.449   1.637  49.471  1.00  0.00    -0.184 NA
HETATM   17  N6  UNL     1      21.660   2.779  50.162  1.00  0.00    -0.274 N 
HETATM   18  C12 UNL     1      21.459   4.022  49.433  1.00  0.00     0.180 C 
HETATM   19  C13 UNL     1      21.998   2.632  51.480  1.00  0.00     0.067 A 
HETATM   20  C14 UNL     1      22.215   3.760  52.356  1.00  0.00     0.044 C 
HETATM   21  C15 UNL     1      23.407   4.243  52.655  1.00  0.00    -0.021 C 
HETATM   22  C16 UNL     1      24.051   4.582  51.539  1.00  0.00     0.050 C 
HETATM   23  H5  UNL     1      25.394   2.707  53.345  1.00  0.00     0.183 HD
ENDROOT
BRANCH   1  24
HETATM   24  O1  UNL     1      24.583   3.503  49.583  1.00  0.00    -0.355 OA
HETATM   25  C1  UNL     1      25.041   4.752  49.099  1.00  0.00     0.210 C 
ENDBRANCH   1  24
TORSDOF 1
ENDMDL
MODEL 2
REMARK VINA RESULT:      -7.7      2.635      4.641
REMARK  1 active torsions:
REMARK  status: ('A' for Active; 'I' for Inactive)
REMARK    1  A    between atoms: O1_2  and  C2_3 
REMARK       I    between atoms: C4_6  and  N2_7 
ROOT
HETATM    1  C2  UNL     1      20.466   2.029  50.143  1.00  0.00     0.085 C 
HETATM    2  C3  UNL     1      21.024   1.288  51.085  1.00  0.00     0.143 C 
HETATM    3  N1  UNL     1      21.852   0.191  51.441  1.00  0.00    -0.194 N 
HETATM    4  C4  UNL     1      22.521   0.150  52.685  1.00  0.00     0.745 C 
HETATM    5  N2  UNL     1      21.449  -0.586  53.238  1.00  0.00    -0.044 NA
HETATM    6  C5  UNL     1      21.588  -1.422  54.203  1.00  0.00     0.324 C 
HETATM    7  F1  UNL     1      20.383  -1.948  54.487  1.00  0.00    -0.198 F 
HETATM    8  N3  UNL     1      23.632   0.626  53.022  1.00  0.00     0.026 NA
HETATM    9  N4  UNL     1      24.497   1.332  52.210  1.00  0.00    -0.229 N 
HETATM   10  C6  UNL     1      25.765   0.843  52.326  1.00  0.00     0.119 A 
HETATM   11  C7  UNL     1      26.679   1.540  51.527  1.00  0.00     0.022 A 
HETATM   12  C8  UNL     1      25.841   2.491  50.921  1.00  0.00     0.034 A 
HETATM   13  C9  UNL     1      24.512   2.341  51.355  1.00  0.00     0.072 A 
HETATM   14  C10 UNL     1      23.602   3.308  50.761  1.00  0.00     0.040 A 
HETATM   15  C11 UNL     1      23.378   4.533  51.389  1.00  0.00     0.155 A 
HETATM   16  N5  UNL     1      22.525   5.330  50.665  1.00  0.00    -0.184 NA
HETATM   17  N6  UNL     1      22.250   4.550  49.596  1.00  0.00    -0.274 N 
HETATM   18  C12 UNL     1      21.384   5.129  48.579  1.00  0.00     0.180 C 
HETATM   19  C13 UNL     1      22.852   3.322  49.574  1.00  0.00     0.067 A 
HETATM   20  C14 UNL     1      22.686   2.394  48.479  1.00  0.00     0.044 C 
HETATM   21  C15 UNL     1      21.834   1.386  48.489  1.00  0.00    -0.021 C 
HETATM   22  C16 UNL     1      20.601   1.837  48.711  1.00  0.00     0.050 C 
HETATM   23  H5  UNL     1      21.618  -0.227  50.523  1.00  0.00     0.183 HD
ENDROOT
BRANCH   1  24
HETATM   24  O1  UNL     1      19.619   3.150  50.318  1.00  0.00    -0.355 OA
HETATM   25  C1  UNL     1      19.452   3.556  51.664  1.00  0.00     0.210 C 
ENDBRANCH   1  24
TORSDOF 1
ENDMDL
MODEL 3
REMARK VINA RESULT:      -7.3      3.321      5.125
REMARK  1 active torsions:
REMARK  status: ('A' for Active; 'I' for Inactive)
REMARK    1  A    between atoms: O1_2  and  C2_3 
REMARK       I    between atoms: C4_6  and  N2_7 
ROOT
HETATM    1  C2  UNL     1      19.942   2.433  49.785  1.00  0.00     0.085 C 
HETATM    2  C3  UNL     1      19.855   1.537  50.753  1.00  0.00     0.143 C 
HETATM    3  N1  UNL     1      20.128   0.228  51.229  1.00  0.00    -0.194 N 
HETATM    4  C4  UNL     1      20.224  -0.046  52.611  1.00  0.00     0.745 C 
HETATM    5  N2  UNL     1      18.860  -0.412  52.633  1.00  0.00    -0.044 NA
HETATM    6  C5  UNL     1      18.369  -1.266  53.458  1.00  0.00     0.324 C 
HETATM    7  F1  UNL     1      17.052  -1.386  53.212  1.00  0.00    -0.198 F 
HETATM    8  N3  UNL     1      21.204   0.046  53.389  1.00  0.00     0.026 NA
HETATM    9  N4  UNL     1      22.478   0.455  53.050  1.00  0.00    -0.229 N 
HETATM   10  C6  UNL     1      23.406  -0.414  53.546  1.00  0.00     0.119 A 
HETATM   11  C7  UNL     1      24.715  -0.030  53.236  1.00  0.00     0.022 A 
HETATM   12  C8  UNL     1      24.487   1.149  52.506  1.00  0.00     0.034 A 
HETATM   13  C9  UNL     1      23.111   1.421  52.407  1.00  0.00     0.072 A 
HETATM   14  C10 UNL     1      22.820   2.638  51.663  1.00  0.00     0.040 A 
HETATM   15  C11 UNL     1      22.733   3.859  52.332  1.00  0.00     0.155 A 
HETATM   16  N5  UNL     1      22.493   4.899  51.466  1.00  0.00    -0.184 NA
HETATM   17  N6  UNL     1      22.441   4.266  50.273  1.00  0.00    -0.274 N 
HETATM   18  C12 UNL     1      22.240   5.108  49.103  1.00  0.00     0.180 C 
HETATM   19  C13 UNL     1      22.624   2.910  50.300  1.00  0.00     0.067 A 
HETATM   20  C14 UNL     1      22.636   2.103  49.102  1.00  0.00     0.044 C 
HETATM   21  C15 UNL     1      21.595   1.418  48.665  1.00  0.00    -0.021 C 
HETATM   22  C16 UNL     1      20.558   2.234  48.487  1.00  0.00     0.050 C 
HETATM   23  H5  UNL     1      20.158  -0.078  50.240  1.00  0.00     0.183 HD
ENDROOT
BRANCH   1  24
HETATM   24  O1  UNL     1      19.454   3.763  49.796  1.00  0.00    -0.355 OA
HETATM   25  C1  UNL     1      18.851   4.157  51.015  1.00  0.00     0.210 C 
ENDBRANCH   1  24
TORSDOF 1
ENDMDL
MODEL 4
REMARK VINA RESULT:      -7.2      2.269      4.596
REMARK  1 active torsions:
REMARK  status: ('A' for Active; 'I' for Inactive)
REMARK    1  A    between atoms: O1_2  and  C2_3 
REMARK       I    between atoms: C4_6  and  N2_7 
ROOT
HETATM    1  C2  UNL     1      21.192   1.776  51.495  1.00  0.00     0.085 C 
HETATM    2  C3  UNL     1      22.399   1.489  51.955  1.00  0.00     0.143 C 
HETATM    3  N1  UNL     1      23.666   0.881  51.754  1.00  0.00    -0.194 N 
HETATM    4  C4  UNL     1      24.811   1.325  52.451  1.00  0.00     0.745 C 
HETATM    5  N2  UNL     1      24.589   0.343  53.441  1.00  0.00    -0.044 NA
HETATM    6  C5  UNL     1      25.531  -0.187  54.136  1.00  0.00     0.324 C 
HETATM    7  F1  UNL     1      24.984  -1.080  54.982  1.00  0.00    -0.198 F 
HETATM    8  N3  UNL     1      25.619   2.246  52.178  1.00  0.00     0.026 NA
HETATM    9  N4  UNL     1      25.568   3.075  51.076  1.00  0.00    -0.229 N 
HETATM   10  C6  UNL     1      26.790   3.145  50.474  1.00  0.00     0.119 A 
HETATM   11  C7  UNL     1      26.787   3.987  49.356  1.00  0.00     0.022 A 
HETATM   12  C8  UNL     1      25.448   4.415  49.342  1.00  0.00     0.034 A 
HETATM   13  C9  UNL     1      24.725   3.842  50.403  1.00  0.00     0.072 A 
HETATM   14  C10 UNL     1      23.331   4.257  50.438  1.00  0.00     0.040 A 
HETATM   15  C11 UNL     1      22.959   5.391  51.161  1.00  0.00     0.155 A 
HETATM   16  N5  UNL     1      21.616   5.652  51.046  1.00  0.00    -0.184 NA
HETATM   17  N6  UNL     1      21.202   4.650  50.239  1.00  0.00    -0.274 N 
HETATM   18  C12 UNL     1      19.794   4.657  49.870  1.00  0.00     0.180 C 
HETATM   19  C13 UNL     1      22.164   3.768  49.830  1.00  0.00     0.067 A 
HETATM   20  C14 UNL     1      21.882   2.670  48.935  1.00  0.00     0.044 C 
HETATM   21  C15 UNL     1      21.669   1.430  49.333  1.00  0.00    -0.021 C 
HETATM   22  C16 UNL     1      20.658   1.400  50.199  1.00  0.00     0.050 C 
HETATM   23  H5  UNL     1      23.206   0.250  51.074  1.00  0.00     0.183 HD
ENDROOT
BRANCH   1  24
HETATM   24  O1  UNL     1      20.166   2.493  52.157  1.00  0.00    -0.355 OA
HETATM   25  C1  UNL     1      18.865   1.971  51.962  1.00  0.00     0.210 C 
ENDBRANCH   1  24
TORSDOF 1
ENDMDL
MODEL 5
REMARK VINA RESULT:      -7.2      7.599     10.705
REMARK  1 active torsions:
REMARK  status: ('A' for Active; 'I' for Inactive)
REMARK    1  A    between atoms: O1_2  and  C2_3 
REMARK       I    between atoms: C4_6  and  N2_7 
ROOT
HETATM    1  C2  UNL     1      31.820   5.485  47.597  1.00  0.00     0.085 C 
HETATM    2  C3  UNL     1      30.537   5.488  47.916  1.00  0.00     0.143 C 
HETATM    3  N1  UNL     1      29.508   5.859  48.822  1.00  0.00    -0.194 N 
HETATM    4  C4  UNL     1      28.174   6.021  48.390  1.00  0.00     0.745 C 
HETATM    5  N2  UNL     1      27.894   4.684  48.748  1.00  0.00    -0.044 NA
HETATM    6  C5  UNL     1      26.732   4.277  49.114  1.00  0.00     0.324 C 
HETATM    7  F1  UNL     1      26.808   2.962  49.384  1.00  0.00    -0.198 F 
HETATM    8  N3  UNL     1      27.598   7.022  47.899  1.00  0.00     0.026 NA
HETATM    9  N4  UNL     1      28.170   8.256  47.659  1.00  0.00    -0.229 N 
HETATM   10  C6  UNL     1      27.375   9.252  48.146  1.00  0.00     0.119 A 
HETATM   11  C7  UNL     1      27.912  10.524  47.914  1.00  0.00     0.022 A 
HETATM   12  C8  UNL     1      29.103  10.198  47.244  1.00  0.00     0.034 A 
HETATM   13  C9  UNL     1      29.236   8.805  47.102  1.00  0.00     0.072 A 
HETATM   14  C10 UNL     1      30.453   8.413  46.408  1.00  0.00     0.040 A 
HETATM   15  C11 UNL     1      30.451   8.276  45.019  1.00  0.00     0.155 A 
HETATM   16  N5  UNL     1      31.693   7.941  44.537  1.00  0.00    -0.184 NA
HETATM   17  N6  UNL     1      32.429   7.884  45.669  1.00  0.00    -0.274 N 
HETATM   18  C12 UNL     1      33.844   7.589  45.505  1.00  0.00     0.180 C 
HETATM   19  C13 UNL     1      31.765   8.151  46.835  1.00  0.00     0.067 A 
HETATM   20  C14 UNL     1      32.425   8.167  48.120  1.00  0.00     0.044 C 
HETATM   21  C15 UNL     1      32.414   7.155  48.967  1.00  0.00    -0.021 C 
HETATM   22  C16 UNL     1      32.898   6.064  48.376  1.00  0.00     0.050 C 
HETATM   23  H5  UNL     1      30.229   5.871  49.566  1.00  0.00     0.183 HD
ENDROOT
BRANCH   1  24
HETATM   24  O1  UNL     1      32.420   4.918  46.446  1.00  0.00    -0.355 OA
HETATM   25  C1  UNL     1      32.482   3.503  46.453  1.00  0.00     0.210 C 
ENDBRANCH   1  24
TORSDOF 1
ENDMDL
MODEL 6
REMARK VINA RESULT:      -7.2      7.440      9.764
REMARK  1 active torsions:
REMARK  status: ('A' for Active; 'I' for Inactive)
REMARK    1  A    between atoms: O1_2  and  C2_3 
REMARK       I    between atoms: C4_6  and  N2_7 
ROOT
HETATM    1  C2  UNL     1      31.413   9.321  47.812  1.00  0.00     0.085 C 
HETATM    2  C3  UNL     1      31.450   8.003  47.913  1.00  0.00     0.143 C 
HETATM    3  N1  UNL     1      31.317   6.839  48.715  1.00  0.00    -0.194 N 
HETATM    4  C4  UNL     1      30.982   5.591  48.146  1.00  0.00     0.745 C 
HETATM    5  N2  UNL     1      32.353   5.267  48.049  1.00  0.00    -0.044 NA
HETATM    6  C5  UNL     1      32.802   4.064  48.092  1.00  0.00     0.324 C 
HETATM    7  F1  UNL     1      34.141   4.104  47.974  1.00  0.00    -0.198 F 
HETATM    8  N3  UNL     1      29.860   5.095  47.886  1.00  0.00     0.026 NA
HETATM    9  N4  UNL     1      28.634   5.689  48.111  1.00  0.00    -0.229 N 
HETATM   10  C6  UNL     1      27.790   4.819  48.738  1.00  0.00     0.119 A 
HETATM   11  C7  UNL     1      26.529   5.377  48.976  1.00  0.00     0.022 A 
HETATM   12  C8  UNL     1      26.695   6.663  48.434  1.00  0.00     0.034 A 
HETATM   13  C9  UNL     1      27.990   6.827  47.913  1.00  0.00     0.072 A 
HETATM   14  C10 UNL     1      28.213   8.143  47.334  1.00  0.00     0.040 A 
HETATM   15  C11 UNL     1      27.941   8.366  45.984  1.00  0.00     0.155 A 
HETATM   16  N5  UNL     1      28.171   9.672  45.626  1.00  0.00    -0.184 NA
HETATM   17  N6  UNL     1      28.585  10.216  46.792  1.00  0.00    -0.274 N 
HETATM   18  C12 UNL     1      28.877  11.642  46.773  1.00  0.00     0.180 C 
HETATM   19  C13 UNL     1      28.641   9.370  47.866  1.00  0.00     0.067 A 
HETATM   20  C14 UNL     1      29.025   9.814  49.186  1.00  0.00     0.044 C 
HETATM   21  C15 UNL     1      30.238   9.674  49.687  1.00  0.00    -0.021 C 
HETATM   22  C16 UNL     1      31.129  10.255  48.886  1.00  0.00     0.050 C 
HETATM   23  H5  UNL     1      31.551   7.430  49.533  1.00  0.00     0.183 HD
ENDROOT
BRANCH   1  24
HETATM   24  O1  UNL     1      31.646  10.103  46.654  1.00  0.00    -0.355 OA
HETATM   25  C1  UNL     1      32.619  11.118  46.817  1.00  0.00     0.210 C 
ENDBRANCH   1  24
TORSDOF 1
ENDMDL
MODEL 7
REMARK VINA RESULT:      -6.8      4.013      5.924
REMARK  1 active torsions:
REMARK  status: ('A' for Active; 'I' for Inactive)
REMARK    1  A    between atoms: O1_2  and  C2_3 
REMARK       I    between atoms: C4_6  and  N2_7 
ROOT
HETATM    1  C2  UNL     1      21.243   5.217  48.884  1.00  0.00     0.085 C 
HETATM    2  C3  UNL     1      20.350   4.702  49.712  1.00  0.00     0.143 C 
HETATM    3  N1  UNL     1      19.569   3.590  50.123  1.00  0.00    -0.194 N 
HETATM    4  C4  UNL     1      19.109   3.466  51.452  1.00  0.00     0.745 C 
HETATM    5  N2  UNL     1      17.892   4.083  51.090  1.00  0.00    -0.044 NA
HETATM    6  C5  UNL     1      16.776   3.848  51.680  1.00  0.00     0.324 C 
HETATM    7  F1  UNL     1      15.820   4.592  51.094  1.00  0.00    -0.198 F 
HETATM    8  N3  UNL     1      19.673   2.976  52.461  1.00  0.00     0.026 NA
HETATM    9  N4  UNL     1      20.934   2.417  52.500  1.00  0.00    -0.229 N 
HETATM   10  C6  UNL     1      20.902   1.211  53.137  1.00  0.00     0.119 A 
HETATM   11  C7  UNL     1      22.165   0.613  53.210  1.00  0.00     0.022 A 
HETATM   12  C8  UNL     1      22.958   1.571  52.555  1.00  0.00     0.034 A 
HETATM   13  C9  UNL     1      22.180   2.663  52.130  1.00  0.00     0.072 A 
HETATM   14  C10 UNL     1      22.956   3.689  51.450  1.00  0.00     0.040 A 
HETATM   15  C11 UNL     1      23.525   4.732  52.180  1.00  0.00     0.155 A 
HETATM   16  N5  UNL     1      24.252   5.579  51.379  1.00  0.00    -0.184 NA
HETATM   17  N6  UNL     1      24.101   5.014  50.161  1.00  0.00    -0.274 N 
HETATM   18  C12 UNL     1      24.803   5.655  49.059  1.00  0.00     0.180 C 
HETATM   19  C13 UNL     1      23.338   3.879  50.112  1.00  0.00     0.067 A 
HETATM   20  C14 UNL     1      23.119   3.141  48.890  1.00  0.00     0.044 C 
HETATM   21  C15 UNL     1      22.040   3.260  48.140  1.00  0.00    -0.021 C 
HETATM   22  C16 UNL     1      21.879   4.530  47.775  1.00  0.00     0.050 C 
HETATM   23  H5  UNL     1      19.639   3.238  49.151  1.00  0.00     0.183 HD
ENDROOT
BRANCH   1  24
HETATM   24  O1  UNL     1      21.762   6.535  48.889  1.00  0.00    -0.355 OA
HETATM   25  C1  UNL     1      21.338   7.329  49.981  1.00  0.00     0.210 C 
ENDBRANCH   1  24
TORSDOF 1
ENDMDL
MODEL 8
REMARK VINA RESULT:      -6.7      6.973      9.993
REMARK  1 active torsions:
REMARK  status: ('A' for Active; 'I' for Inactive)
REMARK    1  A    between atoms: O1_2  and  C2_3 
REMARK       I    between atoms: C4_6  and  N2_7 
ROOT
HETATM    1  C2  UNL     1      31.034   6.361  47.759  1.00  0.00     0.085 C 
HETATM    2  C3  UNL     1      29.802   6.020  48.096  1.00  0.00     0.143 C 
HETATM    3  N1  UNL     1      28.736   6.078  49.032  1.00  0.00    -0.194 N 
HETATM    4  C4  UNL     1      27.394   5.907  48.627  1.00  0.00     0.745 C 
HETATM    5  N2  UNL     1      27.477   4.530  48.930  1.00  0.00    -0.044 NA
HETATM    6  C5  UNL     1      26.468   3.823  49.295  1.00  0.00     0.324 C 
HETATM    7  F1  UNL     1      26.887   2.562  49.506  1.00  0.00    -0.198 F 
HETATM    8  N3  UNL     1      26.568   6.744  48.189  1.00  0.00     0.026 NA
HETATM    9  N4  UNL     1      26.797   8.091  47.996  1.00  0.00    -0.229 N 
HETATM   10  C6  UNL     1      25.785   8.829  48.537  1.00  0.00     0.119 A 
HETATM   11  C7  UNL     1      25.971  10.204  48.353  1.00  0.00     0.022 A 
HETATM   12  C8  UNL     1      27.189  10.223  47.652  1.00  0.00     0.034 A 
HETATM   13  C9  UNL     1      27.672   8.918  47.448  1.00  0.00     0.072 A 
HETATM   14  C10 UNL     1      28.931   8.880  46.719  1.00  0.00     0.040 A 
HETATM   15  C11 UNL     1      28.928   8.801  45.326  1.00  0.00     0.155 A 
HETATM   16  N5  UNL     1      30.202   8.817  44.812  1.00  0.00    -0.184 NA
HETATM   17  N6  UNL     1      30.957   8.908  45.930  1.00  0.00    -0.274 N 
HETATM   18  C12 UNL     1      32.396   8.995  45.733  1.00  0.00     0.180 C 
HETATM   19  C13 UNL     1      30.276   8.949  47.116  1.00  0.00     0.067 A 
HETATM   20  C14 UNL     1      30.942   9.085  48.390  1.00  0.00     0.044 C 
HETATM   21  C15 UNL     1      31.213   8.073  49.192  1.00  0.00    -0.021 C 
HETATM   22  C16 UNL     1      31.947   7.168  48.548  1.00  0.00     0.050 C 
HETATM   23  H5  UNL     1      29.447   6.246  49.766  1.00  0.00     0.183 HD
ENDROOT
BRANCH   1  24
HETATM   24  O1  UNL     1      31.730   6.012  46.575  1.00  0.00    -0.355 OA
HETATM   25  C1  UNL     1      33.007   5.440  46.793  1.00  0.00     0.210 C 
ENDBRANCH   1  24
TORSDOF 1
ENDMDL
MODEL 9
REMARK VINA RESULT:      -6.6     10.692     13.153
REMARK  1 active torsions:
REMARK  status: ('A' for Active; 'I' for Inactive)
REMARK    1  A    between atoms: O1_2  and  C2_3 
REMARK       I    between atoms: C4_6  and  N2_7 
ROOT
HETATM    1  C2  UNL     1      32.985   9.090  46.198  1.00  0.00     0.085 C 
HETATM    2  C3  UNL     1      33.407   8.287  45.235  1.00  0.00     0.143 C 
HETATM    3  N1  UNL     1      34.473   7.578  44.621  1.00  0.00    -0.194 N 
HETATM    4  C4  UNL     1      34.233   6.426  43.839  1.00  0.00     0.745 C 
HETATM    5  N2  UNL     1      34.202   7.223  42.674  1.00  0.00    -0.044 NA
HETATM    6  C5  UNL     1      34.535   6.791  41.511  1.00  0.00     0.324 C 
HETATM    7  F1  UNL     1      34.394   7.796  40.628  1.00  0.00    -0.198 F 
HETATM    8  N3  UNL     1      34.117   5.225  44.182  1.00  0.00     0.026 NA
HETATM    9  N4  UNL     1      34.203   4.732  45.469  1.00  0.00    -0.229 N 
HETATM   10  C6  UNL     1      35.036   3.651  45.511  1.00  0.00     0.119 A 
HETATM   11  C7  UNL     1      35.143   3.111  46.797  1.00  0.00     0.022 A 
HETATM   12  C8  UNL     1      34.300   3.969  47.524  1.00  0.00     0.034 A 
HETATM   13  C9  UNL     1      33.739   4.951  46.688  1.00  0.00     0.072 A 
HETATM   14  C10 UNL     1      32.851   5.864  47.391  1.00  0.00     0.040 A 
HETATM   15  C11 UNL     1      31.491   5.570  47.497  1.00  0.00     0.155 A 
HETATM   16  N5  UNL     1      30.819   6.520  48.227  1.00  0.00    -0.184 NA
HETATM   17  N6  UNL     1      31.810   7.380  48.551  1.00  0.00    -0.274 N 
HETATM   18  C12 UNL     1      31.437   8.512  49.386  1.00  0.00     0.180 C 
HETATM   19  C13 UNL     1      33.059   7.064  48.089  1.00  0.00     0.067 A 
HETATM   20  C14 UNL     1      34.224   7.864  48.387  1.00  0.00     0.044 C 
HETATM   21  C15 UNL     1      34.729   8.765  47.566  1.00  0.00    -0.021 C 
HETATM   22  C16 UNL     1      33.799   9.665  47.252  1.00  0.00     0.050 C 
HETATM   23  H5  UNL     1      35.117   8.273  45.037  1.00  0.00     0.183 HD
ENDROOT
BRANCH   1  24
HETATM   24  O1  UNL     1      31.667   9.566  46.405  1.00  0.00    -0.355 OA
HETATM   25  C1  UNL     1      30.700   9.019  45.529  1.00  0.00     0.210 C 
ENDBRANCH   1  24
TORSDOF 1
ENDMDL
