MODEL 1
REMARK VINA RESULT:      -8.4      0.000      0.000
REMARK  5 active torsions:
REMARK  status: ('A' for Active; 'I' for Inactive)
REMARK    1  A    between atoms: O1_2  and  C2_3 
REMARK    2  A    between atoms: C7_9  and  C8_10 
REMARK    3  A    between atoms: C9_11  and  N1_12 
REMARK    4  A    between atoms: C9_11  and  C10_14 
REMARK    5  A    between atoms: C10_14  and  C11_16 
ROOT
HETATM    1  C8  UNL     1      24.990  -0.491  53.870  1.00  0.00     0.048 C 
HETATM    2  C9  UNL     1      24.336  -0.928  54.916  1.00  0.00     0.109 C 
ENDROOT
BRANCH   2   3
HETATM    3  N1  UNL     1      24.918  -1.143  56.188  1.00  0.00    -0.237 N 
HETATM    4  F1  UNL     1      25.410  -1.267  57.423  1.00  0.00    -0.290 F 
HETATM    5  H11 UNL     1      24.930  -0.782  57.190  1.00  0.00     0.406 HD
ENDBRANCH   2   3
BRANCH   2   6
HETATM    6  C10 UNL     1      22.920  -1.201  54.741  1.00  0.00     0.210 C 
HETATM    7  O3  UNL     1      22.667  -2.017  55.688  1.00  0.00    -0.285 OA
BRANCH   6   8
HETATM    8  C11 UNL     1      21.922  -0.757  53.805  1.00  0.00     0.016 A 
HETATM    9  C12 UNL     1      22.072  -0.155  52.581  1.00  0.00     0.015 A 
HETATM   10  C13 UNL     1      21.048   0.232  51.762  1.00  0.00     0.001 A 
HETATM   11  C14 UNL     1      19.780  -0.018  52.232  1.00  0.00     0.000 A 
HETATM   12  C15 UNL     1      19.554  -0.612  53.439  1.00  0.00     0.001 A 
HETATM   13  C16 UNL     1      20.619  -0.974  54.208  1.00  0.00     0.015 A 
ENDBRANCH   6   8
ENDBRANCH   2   6
BRANCH   1  14
HETATM   14  C7  UNL     1      26.386  -0.129  53.720  1.00  0.00    -0.002 C 
HETATM   15  C2  UNL     1      27.069   1.183  53.913  1.00  0.00     0.293 C 
HETATM   16  O2  UNL     1      28.016   0.981  54.945  1.00  0.00    -0.353 OA
HETATM   17  C3  UNL     1      29.309   0.897  54.425  1.00  0.00     0.198 C 
HETATM   18  C4  UNL     1      29.491  -0.308  53.586  1.00  0.00    -0.001 C 
HETATM   19  C5  UNL     1      28.647  -1.225  53.083  1.00  0.00    -0.001 C 
HETATM   20  C6  UNL     1      27.215  -1.131  53.344  1.00  0.00     0.012 C 
BRANCH  15  21
HETATM   21  O1  UNL     1      27.819   1.526  52.779  1.00  0.00    -0.362 OA
HETATM   22  C1  UNL     1      27.045   2.193  51.837  1.00  0.00     0.205 C 
ENDBRANCH  15  21
ENDBRANCH   1  14
TORSDOF 5
ENDMDL
MODEL 2
REMARK VINA RESULT:      -8.0      2.856      7.066
REMARK  5 active torsions:
REMARK  status: ('A' for Active; 'I' for Inactive)
REMARK    1  A    between atoms: O1_2  and  C2_3 
REMARK    2  A    between atoms: C7_9  and  C8_10 
REMARK    3  A    between atoms: C9_11  and  N1_12 
REMARK    4  A    between atoms: C9_11  and  C10_14 
REMARK    5  A    between atoms: C10_14  and  C11_16 
ROOT
HETATM    1  C8  UNL     1      24.134   0.987  52.368  1.00  0.00     0.048 C 
HETATM    2  C9  UNL     1      24.939   1.992  52.599  1.00  0.00     0.109 C 
ENDROOT
BRANCH   2   3
HETATM    3  N1  UNL     1      24.528   3.240  53.125  1.00  0.00    -0.237 N 
HETATM    4  F1  UNL     1      24.122   4.369  53.711  1.00  0.00    -0.290 F 
HETATM    5  H11 UNL     1      24.158   3.711  54.006  1.00  0.00     0.406 HD
ENDBRANCH   2   3
BRANCH   2   6
HETATM    6  C10 UNL     1      26.345   1.793  52.291  1.00  0.00     0.210 C 
HETATM    7  O3  UNL     1      26.566   2.669  51.390  1.00  0.00    -0.285 OA
BRANCH   6   8
HETATM    8  C11 UNL     1      27.360   0.897  52.775  1.00  0.00     0.016 A 
HETATM    9  C12 UNL     1      27.423  -0.473  52.715  1.00  0.00     0.015 A 
HETATM   10  C13 UNL     1      28.442  -1.238  53.211  1.00  0.00     0.001 A 
HETATM   11  C14 UNL     1      29.469  -0.548  53.811  1.00  0.00     0.000 A 
HETATM   12  C15 UNL     1      29.475   0.812  53.908  1.00  0.00     0.001 A 
HETATM   13  C16 UNL     1      28.429   1.516  53.393  1.00  0.00     0.015 A 
ENDBRANCH   6   8
ENDBRANCH   2   6
BRANCH   1  14
HETATM   14  C7  UNL     1      22.703   0.866  52.569  1.00  0.00    -0.002 C 
HETATM   15  C2  UNL     1      21.566   1.351  51.734  1.00  0.00     0.293 C 
HETATM   16  O2  UNL     1      20.846   0.196  51.347  1.00  0.00    -0.353 OA
HETATM   17  C3  UNL     1      19.664   0.077  52.081  1.00  0.00     0.198 C 
HETATM   18  C4  UNL     1      19.925  -0.177  53.515  1.00  0.00    -0.001 C 
HETATM   19  C5  UNL     1      21.032  -0.141  54.277  1.00  0.00    -0.001 C 
HETATM   20  C6  UNL     1      22.321   0.209  53.689  1.00  0.00     0.012 C 
BRANCH  15  21
HETATM   21  O1  UNL     1      20.672   2.110  52.502  1.00  0.00    -0.362 OA
HETATM   22  C1  UNL     1      20.873   3.472  52.322  1.00  0.00     0.205 C 
ENDBRANCH  15  21
ENDBRANCH   1  14
TORSDOF 5
ENDMDL
MODEL 3
REMARK VINA RESULT:      -7.9      1.930      2.086
REMARK  5 active torsions:
REMARK  status: ('A' for Active; 'I' for Inactive)
REMARK    1  A    between atoms: O1_2  and  C2_3 
REMARK    2  A    between atoms: C7_9  and  C8_10 
REMARK    3  A    between atoms: C9_11  and  N1_12 
REMARK    4  A    between atoms: C9_11  and  C10_14 
REMARK    5  A    between atoms: C10_14  and  C11_16 
ROOT
HETATM    1  C8  UNL     1      24.446  -0.494  53.506  1.00  0.00     0.048 C 
HETATM    2  C9  UNL     1      23.416   0.295  53.337  1.00  0.00     0.109 C 
ENDROOT
BRANCH   2   3
HETATM    3  N1  UNL     1      23.507   1.691  53.119  1.00  0.00    -0.237 N 
HETATM    4  F1  UNL     1      23.682   2.989  52.863  1.00  0.00    -0.290 F 
HETATM    5  H11 UNL     1      24.116   2.444  52.677  1.00  0.00     0.406 HD
ENDBRANCH   2   3
BRANCH   2   6
HETATM    6  C10 UNL     1      22.101  -0.321  53.375  1.00  0.00     0.210 C 
HETATM    7  O3  UNL     1      22.216  -1.181  54.311  1.00  0.00    -0.285 OA
BRANCH   6   8
HETATM    8  C11 UNL     1      20.885  -0.134  52.631  1.00  0.00     0.016 A 
HETATM    9  C12 UNL     1      20.687   0.446  51.403  1.00  0.00     0.015 A 
HETATM   10  C13 UNL     1      19.478   0.576  50.777  1.00  0.00     0.001 A 
HETATM   11  C14 UNL     1      18.396   0.073  51.461  1.00  0.00     0.000 A 
HETATM   12  C15 UNL     1      18.515  -0.517  52.685  1.00  0.00     0.001 A 
HETATM   13  C16 UNL     1      19.749  -0.614  53.253  1.00  0.00     0.015 A 
ENDBRANCH   6   8
ENDBRANCH   2   6
BRANCH   1  14
HETATM   14  C7  UNL     1      25.865  -0.196  53.518  1.00  0.00    -0.002 C 
HETATM   15  C2  UNL     1      26.586   1.056  53.890  1.00  0.00     0.293 C 
HETATM   16  O2  UNL     1      27.418   0.716  54.983  1.00  0.00    -0.353 OA
HETATM   17  C3  UNL     1      28.751   0.607  54.579  1.00  0.00     0.198 C 
HETATM   18  C4  UNL     1      28.958  -0.531  53.656  1.00  0.00    -0.001 C 
HETATM   19  C5  UNL     1      28.125  -1.355  52.997  1.00  0.00    -0.001 C 
HETATM   20  C6  UNL     1      26.680  -1.206  53.133  1.00  0.00     0.012 C 
BRANCH  15  21
HETATM   21  O1  UNL     1      27.456   1.452  52.866  1.00  0.00    -0.362 OA
HETATM   22  C1  UNL     1      26.809   2.237  51.920  1.00  0.00     0.205 C 
ENDBRANCH  15  21
ENDBRANCH   1  14
TORSDOF 5
ENDMDL
MODEL 4
REMARK VINA RESULT:      -7.9      4.116      7.077
REMARK  5 active torsions:
REMARK  status: ('A' for Active; 'I' for Inactive)
REMARK    1  A    between atoms: O1_2  and  C2_3 
REMARK    2  A    between atoms: C7_9  and  C8_10 
REMARK    3  A    between atoms: C9_11  and  N1_12 
REMARK    4  A    between atoms: C9_11  and  C10_14 
REMARK    5  A    between atoms: C10_14  and  C11_16 
ROOT
HETATM    1  C8  UNL     1      26.424   2.674  50.881  1.00  0.00     0.048 C 
HETATM    2  C9  UNL     1      25.582   3.668  50.754  1.00  0.00     0.109 C 
ENDROOT
BRANCH   2   3
HETATM    3  N1  UNL     1      24.624   4.032  51.730  1.00  0.00    -0.237 N 
HETATM    4  F1  UNL     1      23.717   4.276  52.678  1.00  0.00    -0.290 F 
HETATM    5  H11 UNL     1      24.002   3.638  52.499  1.00  0.00     0.406 HD
ENDBRANCH   2   3
BRANCH   2   6
HETATM    6  C10 UNL     1      25.652   4.437  49.524  1.00  0.00     0.210 C 
HETATM    7  O3  UNL     1      24.496   4.264  49.012  1.00  0.00    -0.285 OA
BRANCH   6   8
HETATM    8  C11 UNL     1      26.671   5.236  48.898  1.00  0.00     0.016 A 
HETATM    9  C12 UNL     1      27.984   4.936  48.635  1.00  0.00     0.015 A 
HETATM   10  C13 UNL     1      28.879   5.775  48.031  1.00  0.00     0.001 A 
HETATM   11  C14 UNL     1      28.391   7.009  47.670  1.00  0.00     0.000 A 
HETATM   12  C15 UNL     1      27.097   7.377  47.899  1.00  0.00     0.001 A 
HETATM   13  C16 UNL     1      26.256   6.494  48.505  1.00  0.00     0.015 A 
ENDBRANCH   6   8
ENDBRANCH   2   6
BRANCH   1  14
HETATM   14  C7  UNL     1      26.609   1.735  51.969  1.00  0.00    -0.002 C 
HETATM   15  C2  UNL     1      26.793   1.973  53.430  1.00  0.00     0.293 C 
HETATM   16  O2  UNL     1      25.703   1.334  54.069  1.00  0.00    -0.353 OA
HETATM   17  C3  UNL     1      26.109   0.142  54.673  1.00  0.00     0.198 C 
HETATM   18  C4  UNL     1      26.530  -0.868  53.677  1.00  0.00    -0.001 C 
HETATM   19  C5  UNL     1      26.770  -0.824  52.355  1.00  0.00    -0.001 C 
HETATM   20  C6  UNL     1      26.620   0.426  51.619  1.00  0.00     0.012 C 
BRANCH  15  21
HETATM   21  O1  UNL     1      27.939   1.318  53.902  1.00  0.00    -0.362 OA
HETATM   22  C1  UNL     1      29.048   2.153  53.885  1.00  0.00     0.205 C 
ENDBRANCH  15  21
ENDBRANCH   1  14
TORSDOF 5
ENDMDL
MODEL 5
REMARK VINA RESULT:      -7.8      4.003      6.702
REMARK  5 active torsions:
REMARK  status: ('A' for Active; 'I' for Inactive)
REMARK    1  A    between atoms: O1_2  and  C2_3 
REMARK    2  A    between atoms: C7_9  and  C8_10 
REMARK    3  A    between atoms: C9_11  and  N1_12 
REMARK    4  A    between atoms: C9_11  and  C10_14 
REMARK    5  A    between atoms: C10_14  and  C11_16 
ROOT
HETATM    1  C8  UNL     1      26.084   2.522  50.924  1.00  0.00     0.048 C 
HETATM    2  C9  UNL     1      25.694   2.210  52.133  1.00  0.00     0.109 C 
ENDROOT
BRANCH   2   3
HETATM    3  N1  UNL     1      25.014   3.093  53.006  1.00  0.00    -0.237 N 
HETATM    4  F1  UNL     1      24.310   3.847  53.853  1.00  0.00    -0.290 F 
HETATM    5  H11 UNL     1      24.201   3.153  53.690  1.00  0.00     0.406 HD
ENDBRANCH   2   3
BRANCH   2   6
HETATM    6  C10 UNL     1      25.983   0.862  52.591  1.00  0.00     0.210 C 
HETATM    7  O3  UNL     1      24.823   0.341  52.697  1.00  0.00    -0.285 OA
BRANCH   6   8
HETATM    8  C11 UNL     1      27.192   0.145  52.895  1.00  0.00     0.016 A 
HETATM    9  C12 UNL     1      28.398   0.611  53.356  1.00  0.00     0.015 A 
HETATM   10  C13 UNL     1      29.496  -0.162  53.614  1.00  0.00     0.001 A 
HETATM   11  C14 UNL     1      29.345  -1.509  53.385  1.00  0.00     0.000 A 
HETATM   12  C15 UNL     1      28.177  -2.045  52.927  1.00  0.00     0.001 A 
HETATM   13  C16 UNL     1      27.120  -1.219  52.689  1.00  0.00     0.015 A 
ENDBRANCH   6   8
ENDBRANCH   2   6
BRANCH   1  14
HETATM   14  C7  UNL     1      25.946   3.761  50.184  1.00  0.00    -0.002 C 
HETATM   15  C2  UNL     1      24.816   4.733  50.131  1.00  0.00     0.293 C 
HETATM   16  O2  UNL     1      25.334   5.960  50.611  1.00  0.00    -0.353 OA
HETATM   17  C3  UNL     1      25.555   6.852  49.559  1.00  0.00     0.198 C 
HETATM   18  C4  UNL     1      26.628   6.386  48.654  1.00  0.00    -0.001 C 
HETATM   19  C5  UNL     1      27.299   5.227  48.529  1.00  0.00    -0.001 C 
HETATM   20  C6  UNL     1      27.004   4.106  49.413  1.00  0.00     0.012 C 
BRANCH  15  21
HETATM   21  O1  UNL     1      24.434   4.981  48.805  1.00  0.00    -0.362 OA
HETATM   22  C1  UNL     1      23.296   4.264  48.458  1.00  0.00     0.205 C 
ENDBRANCH  15  21
ENDBRANCH   1  14
TORSDOF 5
ENDMDL
MODEL 6
REMARK VINA RESULT:      -7.7      1.845      2.411
REMARK  5 active torsions:
REMARK  status: ('A' for Active; 'I' for Inactive)
REMARK    1  A    between atoms: O1_2  and  C2_3 
REMARK    2  A    between atoms: C7_9  and  C8_10 
REMARK    3  A    between atoms: C9_11  and  N1_12 
REMARK    4  A    between atoms: C9_11  and  C10_14 
REMARK    5  A    between atoms: C10_14  and  C11_16 
ROOT
HETATM    1  C8  UNL     1      23.876   0.813  52.891  1.00  0.00     0.048 C 
HETATM    2  C9  UNL     1      22.821   0.256  53.428  1.00  0.00     0.109 C 
ENDROOT
BRANCH   2   3
HETATM    3  N1  UNL     1      22.869  -0.729  54.443  1.00  0.00    -0.237 N 
HETATM    4  F1  UNL     1      22.846  -1.601  55.453  1.00  0.00    -0.290 F 
HETATM    5  H11 UNL     1      22.480  -0.982  55.402  1.00  0.00     0.406 HD
ENDBRANCH   2   3
BRANCH   2   6
HETATM    6  C10 UNL     1      21.525   0.694  52.940  1.00  0.00     0.210 C 
HETATM    7  O3  UNL     1      21.739   1.907  52.609  1.00  0.00    -0.285 OA
BRANCH   6   8
HETATM    8  C11 UNL     1      20.241   0.061  52.800  1.00  0.00     0.016 A 
HETATM    9  C12 UNL     1      19.607  -0.833  53.627  1.00  0.00     0.015 A 
HETATM   10  C13 UNL     1      18.375  -1.381  53.400  1.00  0.00     0.001 A 
HETATM   11  C14 UNL     1      17.750  -0.984  52.242  1.00  0.00     0.000 A 
HETATM   12  C15 UNL     1      18.318  -0.100  51.371  1.00  0.00     0.001 A 
HETATM   13  C16 UNL     1      19.548   0.410  51.657  1.00  0.00     0.015 A 
ENDBRANCH   6   8
ENDBRANCH   2   6
BRANCH   1  14
HETATM   14  C7  UNL     1      25.286   0.603  53.155  1.00  0.00    -0.002 C 
HETATM   15  C2  UNL     1      26.287   1.490  53.815  1.00  0.00     0.293 C 
HETATM   16  O2  UNL     1      26.744   0.783  54.954  1.00  0.00    -0.353 OA
HETATM   17  C3  UNL     1      28.021   0.261  54.736  1.00  0.00     0.198 C 
HETATM   18  C4  UNL     1      28.022  -0.785  53.691  1.00  0.00    -0.001 C 
HETATM   19  C5  UNL     1      27.108  -1.207  52.799  1.00  0.00    -0.001 C 
HETATM   20  C6  UNL     1      25.790  -0.584  52.744  1.00  0.00     0.012 C 
BRANCH  15  21
HETATM   21  O1  UNL     1      27.416   1.659  53.002  1.00  0.00    -0.362 OA
HETATM   22  C1  UNL     1      27.140   2.465  51.905  1.00  0.00     0.205 C 
ENDBRANCH  15  21
ENDBRANCH   1  14
TORSDOF 5
ENDMDL
MODEL 7
REMARK VINA RESULT:      -7.6      4.057      5.606
REMARK  5 active torsions:
REMARK  status: ('A' for Active; 'I' for Inactive)
REMARK    1  A    between atoms: O1_2  and  C2_3 
REMARK    2  A    between atoms: C7_9  and  C8_10 
REMARK    3  A    between atoms: C9_11  and  N1_12 
REMARK    4  A    between atoms: C9_11  and  C10_14 
REMARK    5  A    between atoms: C10_14  and  C11_16 
ROOT
HETATM    1  C8  UNL     1      25.044   2.756  50.828  1.00  0.00     0.048 C 
HETATM    2  C9  UNL     1      24.542   2.607  52.027  1.00  0.00     0.109 C 
ENDROOT
BRANCH   2   3
HETATM    3  N1  UNL     1      24.226   3.677  52.898  1.00  0.00    -0.237 N 
HETATM    4  F1  UNL     1      23.928   4.748  53.638  1.00  0.00    -0.290 F 
HETATM    5  H11 UNL     1      24.031   4.723  52.924  1.00  0.00     0.406 HD
ENDBRANCH   2   3
BRANCH   2   6
HETATM    6  C10 UNL     1      24.296   1.247  52.474  1.00  0.00     0.210 C 
HETATM    7  O3  UNL     1      25.323   0.618  52.052  1.00  0.00    -0.285 OA
BRANCH   6   8
HETATM    8  C11 UNL     1      23.234   0.609  53.203  1.00  0.00     0.016 A 
HETATM    9  C12 UNL     1      21.893   0.901  53.240  1.00  0.00     0.015 A 
HETATM   10  C13 UNL     1      20.958   0.226  53.974  1.00  0.00     0.001 A 
HETATM   11  C14 UNL     1      21.433  -0.824  54.724  1.00  0.00     0.000 A 
HETATM   12  C15 UNL     1      22.752  -1.173  54.739  1.00  0.00     0.001 A 
HETATM   13  C16 UNL     1      23.633  -0.459  53.984  1.00  0.00     0.015 A 
ENDBRANCH   6   8
ENDBRANCH   2   6
BRANCH   1  14
HETATM   14  C7  UNL     1      25.395   3.960  50.100  1.00  0.00    -0.002 C 
HETATM   15  C2  UNL     1      24.641   5.235  49.922  1.00  0.00     0.293 C 
HETATM   16  O2  UNL     1      25.452   6.249  50.487  1.00  0.00    -0.353 OA
HETATM   17  C3  UNL     1      26.072   7.004  49.489  1.00  0.00     0.198 C 
HETATM   18  C4  UNL     1      27.051   6.206  48.719  1.00  0.00    -0.001 C 
HETATM   19  C5  UNL     1      27.337   4.894  48.657  1.00  0.00    -0.001 C 
HETATM   20  C6  UNL     1      26.596   3.940  49.476  1.00  0.00     0.012 C 
BRANCH  15  21
HETATM   21  O1  UNL     1      24.527   5.561  48.564  1.00  0.00    -0.362 OA
HETATM   22  C1  UNL     1      23.257   5.281  48.076  1.00  0.00     0.205 C 
ENDBRANCH  15  21
ENDBRANCH   1  14
TORSDOF 5
ENDMDL
MODEL 8
REMARK VINA RESULT:      -7.6      2.602      6.891
REMARK  5 active torsions:
REMARK  status: ('A' for Active; 'I' for Inactive)
REMARK    1  A    between atoms: O1_2  and  C2_3 
REMARK    2  A    between atoms: C7_9  and  C8_10 
REMARK    3  A    between atoms: C9_11  and  N1_12 
REMARK    4  A    between atoms: C9_11  and  C10_14 
REMARK    5  A    between atoms: C10_14  and  C11_16 
ROOT
HETATM    1  C8  UNL     1      23.913   0.399  53.159  1.00  0.00     0.048 C 
HETATM    2  C9  UNL     1      24.802   1.352  53.279  1.00  0.00     0.109 C 
ENDROOT
BRANCH   2   3
HETATM    3  N1  UNL     1      24.543   2.721  53.027  1.00  0.00    -0.237 N 
HETATM    4  F1  UNL     1      24.201   3.986  52.772  1.00  0.00    -0.290 F 
HETATM    5  H11 UNL     1      23.773   3.405  52.759  1.00  0.00     0.406 HD
ENDBRANCH   2   3
BRANCH   2   6
HETATM    6  C10 UNL     1      26.135   0.960  53.703  1.00  0.00     0.210 C 
HETATM    7  O3  UNL     1      26.488   1.924  54.462  1.00  0.00    -0.285 OA
BRANCH   6   8
HETATM    8  C11 UNL     1      26.979  -0.172  53.435  1.00  0.00     0.016 A 
HETATM    9  C12 UNL     1      26.675  -1.377  52.853  1.00  0.00     0.015 A 
HETATM   10  C13 UNL     1      27.560  -2.398  52.642  1.00  0.00     0.001 A 
HETATM   11  C14 UNL     1      28.850  -2.165  53.059  1.00  0.00     0.000 A 
HETATM   12  C15 UNL     1      29.226  -0.992  53.646  1.00  0.00     0.001 A 
HETATM   13  C16 UNL     1      28.295  -0.015  53.826  1.00  0.00     0.015 A 
ENDBRANCH   6   8
ENDBRANCH   2   6
BRANCH   1  14
HETATM   14  C7  UNL     1      22.519   0.460  52.766  1.00  0.00    -0.002 C 
HETATM   15  C2  UNL     1      21.289   0.623  53.594  1.00  0.00     0.293 C 
HETATM   16  O2  UNL     1      20.681   1.824  53.155  1.00  0.00    -0.353 OA
HETATM   17  C3  UNL     1      19.564   1.554  52.361  1.00  0.00     0.198 C 
HETATM   18  C4  UNL     1      19.934   0.901  51.086  1.00  0.00    -0.001 C 
HETATM   19  C5  UNL     1      21.073   0.362  50.616  1.00  0.00    -0.001 C 
HETATM   20  C6  UNL     1      22.278   0.353  51.438  1.00  0.00     0.012 C 
BRANCH  15  21
HETATM   21  O1  UNL     1      20.362  -0.390  53.314  1.00  0.00    -0.362 OA
HETATM   22  C1  UNL     1      20.581  -1.515  54.098  1.00  0.00     0.205 C 
ENDBRANCH  15  21
ENDBRANCH   1  14
TORSDOF 5
ENDMDL
MODEL 9
REMARK VINA RESULT:      -7.5      3.555      6.297
REMARK  5 active torsions:
REMARK  status: ('A' for Active; 'I' for Inactive)
REMARK    1  A    between atoms: O1_2  and  C2_3 
REMARK    2  A    between atoms: C7_9  and  C8_10 
REMARK    3  A    between atoms: C9_11  and  N1_12 
REMARK    4  A    between atoms: C9_11  and  C10_14 
REMARK    5  A    between atoms: C10_14  and  C11_16 
ROOT
HETATM    1  C8  UNL     1      24.630   1.729  52.637  1.00  0.00     0.048 C 
HETATM    2  C9  UNL     1      24.202   0.554  53.024  1.00  0.00     0.109 C 
ENDROOT
BRANCH   2   3
HETATM    3  N1  UNL     1      22.919   0.035  52.729  1.00  0.00    -0.237 N 
HETATM    4  F1  UNL     1      21.749  -0.492  52.362  1.00  0.00    -0.290 F 
HETATM    5  H11 UNL     1      22.372  -0.516  52.000  1.00  0.00     0.406 HD
ENDBRANCH   2   3
BRANCH   2   6
HETATM    6  C10 UNL     1      25.120  -0.257  53.805  1.00  0.00     0.210 C 
HETATM    7  O3  UNL     1      24.346  -0.862  54.618  1.00  0.00    -0.285 OA
BRANCH   6   8
HETATM    8  C11 UNL     1      26.546  -0.445  53.797  1.00  0.00     0.016 A 
HETATM    9  C12 UNL     1      27.323  -1.241  52.992  1.00  0.00     0.015 A 
HETATM   10  C13 UNL     1      28.684  -1.350  53.067  1.00  0.00     0.001 A 
HETATM   11  C14 UNL     1      29.290  -0.588  54.038  1.00  0.00     0.000 A 
HETATM   12  C15 UNL     1      28.584   0.225  54.875  1.00  0.00     0.001 A 
HETATM   13  C16 UNL     1      27.229   0.288  54.747  1.00  0.00     0.015 A 
ENDBRANCH   6   8
ENDBRANCH   2   6
BRANCH   1  14
HETATM   14  C7  UNL     1      23.971   2.757  51.857  1.00  0.00    -0.002 C 
HETATM   15  C2  UNL     1      23.088   3.879  52.287  1.00  0.00     0.293 C 
HETATM   16  O2  UNL     1      23.748   5.068  51.895  1.00  0.00    -0.353 OA
HETATM   17  C3  UNL     1      23.143   5.625  50.766  1.00  0.00     0.198 C 
HETATM   18  C4  UNL     1      23.301   4.765  49.572  1.00  0.00    -0.001 C 
HETATM   19  C5  UNL     1      23.737   3.507  49.386  1.00  0.00    -0.001 C 
HETATM   20  C6  UNL     1      24.181   2.705  50.520  1.00  0.00     0.012 C 
BRANCH  15  21
HETATM   21  O1  UNL     1      21.882   3.868  51.571  1.00  0.00    -0.362 OA
HETATM   22  C1  UNL     1      20.902   3.141  52.234  1.00  0.00     0.205 C 
ENDBRANCH  15  21
ENDBRANCH   1  14
TORSDOF 5
ENDMDL
