MODEL 1
REMARK VINA RESULT:      -9.2      0.000      0.000
REMARK  7 active torsions:
REMARK  status: ('A' for Active; 'I' for Inactive)
REMARK    1  A    between atoms: N1_1  and  C1_2 
REMARK    2  A    between atoms: C6_9  and  N4_10 
REMARK    3  A    between atoms: N4_10  and  C7_11 
REMARK    4  A    between atoms: C12_18  and  C13_19 
REMARK       I    between atoms: C13_19  and  N5_21 
REMARK    5  A    between atoms: N5_21  and  C14_22 
REMARK    6  A    between atoms: C14_22  and  C15_23 
REMARK    7  A    between atoms: C15_23  and  N6_24 
ROOT
HETATM    1  C7  UNL     1      23.904   0.299  52.754  1.00  0.00     0.051 A 
HETATM    2  C8  UNL     1      23.714  -0.558  53.815  1.00  0.00     0.034 A 
HETATM    3  C9  UNL     1      22.551  -0.600  54.544  1.00  0.00     0.046 A 
HETATM    4  C10 UNL     1      21.554   0.267  54.167  1.00  0.00     0.139 A 
HETATM    5  F1  UNL     1      20.397   0.245  54.869  1.00  0.00    -0.204 F 
HETATM    6  C11 UNL     1      21.758   1.117  53.106  1.00  0.00     0.090 A 
HETATM    7 CL1  UNL     1      20.415   2.164  52.737  1.00  0.00    -0.080 Cl
HETATM    8  C12 UNL     1      22.914   1.165  52.375  1.00  0.00     0.083 A 
ENDROOT
BRANCH   1   9
HETATM    9  N4  UNL     1      25.186   0.129  52.174  1.00  0.00    -0.339 N 
HETATM   10  H6  UNL     1      25.674  -0.337  51.390  1.00  0.00     0.167 HD
BRANCH   9  11
HETATM   11  C6  UNL     1      26.378   0.719  52.685  1.00  0.00     0.142 A 
HETATM   12  N3  UNL     1      26.373   2.066  52.832  1.00  0.00    -0.224 NA
HETATM   13  C5  UNL     1      27.481   2.670  53.309  1.00  0.00     0.236 A 
HETATM   14  N2  UNL     1      28.593   1.989  53.646  1.00  0.00    -0.241 NA
HETATM   15  C4  UNL     1      28.650   0.651  53.519  1.00  0.00     0.072 A 
HETATM   16  C3  UNL     1      29.779  -0.067  53.859  1.00  0.00     0.035 A 
HETATM   17  C20 UNL     1      27.523   0.007  53.030  1.00  0.00     0.041 A 
HETATM   18  C2  UNL     1      29.773  -1.437  53.708  1.00  0.00     0.031 A 
HETATM   19  C1  UNL     1      28.640  -2.060  53.219  1.00  0.00     0.026 A 
HETATM   20  C21 UNL     1      27.483  -1.372  52.865  1.00  0.00     0.046 A 
BRANCH  19  21
HETATM   21  N1  UNL     1      28.719  -3.473  53.095  1.00  0.00    -0.399 N 
HETATM   22  H1  UNL     1      28.030  -4.195  53.444  1.00  0.00     0.156 HD
HETATM   23  H2  UNL     1      29.346  -4.194  52.699  1.00  0.00     0.156 HD
ENDBRANCH  19  21
ENDBRANCH   9  11
ENDBRANCH   1   9
BRANCH   8  24
HETATM   24  C13 UNL     1      23.209   2.028  51.257  1.00  0.00     0.255 C 
HETATM   25  O1  UNL     1      22.786   1.774  50.125  1.00  0.00    -0.268 OA
HETATM   26  N5  UNL     1      23.937   3.222  51.102  1.00  0.00    -0.355 N 
HETATM   27  H9  UNL     1      24.366   3.587  51.975  1.00  0.00     0.162 HD
BRANCH  26  28
HETATM   28  C14 UNL     1      23.946   3.715  49.741  1.00  0.00     0.153 C 
BRANCH  28  29
HETATM   29  C15 UNL     1      24.228   5.183  49.790  1.00  0.00     0.292 C 
BRANCH  29  30
HETATM   30  N6  UNL     1      25.603   5.522  49.935  1.00  0.00     0.094 N 
HETATM   31  C16 UNL     1      26.492   4.777  49.081  1.00  0.00     0.298 C 
HETATM   32  C17 UNL     1      27.598   5.624  48.541  1.00  0.00     0.198 C 
HETATM   33  O2  UNL     1      27.171   6.789  47.922  1.00  0.00    -0.388 OA
HETATM   34  C18 UNL     1      25.979   7.268  48.423  1.00  0.00     0.198 C 
HETATM   35  C19 UNL     1      25.875   6.937  49.921  1.00  0.00     0.298 C 
ENDBRANCH  29  30
ENDBRANCH  28  29
ENDBRANCH  26  28
ENDBRANCH   8  24
TORSDOF 7
ENDMDL
MODEL 2
REMARK VINA RESULT:      -9.0      1.142      1.532
REMARK  7 active torsions:
REMARK  status: ('A' for Active; 'I' for Inactive)
REMARK    1  A    between atoms: N1_1  and  C1_2 
REMARK    2  A    between atoms: C6_9  and  N4_10 
REMARK    3  A    between atoms: N4_10  and  C7_11 
REMARK    4  A    between atoms: C12_18  and  C13_19 
REMARK       I    between atoms: C13_19  and  N5_21 
REMARK    5  A    between atoms: N5_21  and  C14_22 
REMARK    6  A    between atoms: C14_22  and  C15_23 
REMARK    7  A    between atoms: C15_23  and  N6_24 
ROOT
HETATM    1  C7  UNL     1      23.906   0.293  52.734  1.00  0.00     0.051 A 
HETATM    2  C8  UNL     1      23.736  -0.552  53.807  1.00  0.00     0.034 A 
HETATM    3  C9  UNL     1      22.582  -0.597  54.548  1.00  0.00     0.046 A 
HETATM    4  C10 UNL     1      21.572   0.255  54.171  1.00  0.00     0.139 A 
HETATM    5  F1  UNL     1      20.422   0.229  54.886  1.00  0.00    -0.204 F 
HETATM    6  C11 UNL     1      21.756   1.093  53.098  1.00  0.00     0.090 A 
HETATM    7 CL1  UNL     1      20.398   2.122  52.730  1.00  0.00    -0.080 Cl
HETATM    8  C12 UNL     1      22.904   1.144  52.355  1.00  0.00     0.083 A 
ENDROOT
BRANCH   1   9
HETATM    9  N4  UNL     1      25.185   0.130  52.143  1.00  0.00    -0.339 N 
HETATM   10  H6  UNL     1      25.666  -0.328  51.351  1.00  0.00     0.167 HD
BRANCH   9  11
HETATM   11  C6  UNL     1      26.380   0.715  52.650  1.00  0.00     0.142 A 
HETATM   12  N3  UNL     1      26.383   2.063  52.789  1.00  0.00    -0.224 NA
HETATM   13  C5  UNL     1      27.495   2.664  53.263  1.00  0.00     0.236 A 
HETATM   14  N2  UNL     1      28.603   1.977  53.605  1.00  0.00    -0.241 NA
HETATM   15  C4  UNL     1      28.651   0.639  53.486  1.00  0.00     0.072 A 
HETATM   16  C3  UNL     1      29.775  -0.084  53.832  1.00  0.00     0.035 A 
HETATM   17  C20 UNL     1      27.521  -0.001  53.002  1.00  0.00     0.041 A 
HETATM   18  C2  UNL     1      29.760  -1.455  53.689  1.00  0.00     0.031 A 
HETATM   19  C1  UNL     1      28.624  -2.074  53.204  1.00  0.00     0.026 A 
HETATM   20  C21 UNL     1      27.472  -1.381  52.845  1.00  0.00     0.046 A 
BRANCH  19  21
HETATM   21  N1  UNL     1      28.694  -3.488  53.089  1.00  0.00    -0.399 N 
HETATM   22  H1  UNL     1      28.081  -4.124  52.507  1.00  0.00     0.156 HD
HETATM   23  H2  UNL     1      29.252  -4.280  53.453  1.00  0.00     0.156 HD
ENDBRANCH  19  21
ENDBRANCH   9  11
ENDBRANCH   1   9
BRANCH   8  24
HETATM   24  C13 UNL     1      23.178   1.997  51.223  1.00  0.00     0.255 C 
HETATM   25  O1  UNL     1      22.713   1.747  50.107  1.00  0.00    -0.268 OA
HETATM   26  N5  UNL     1      23.925   3.175  51.038  1.00  0.00    -0.355 N 
HETATM   27  H9  UNL     1      24.391   3.535  51.894  1.00  0.00     0.162 HD
BRANCH  26  28
HETATM   28  C14 UNL     1      23.897   3.662  49.675  1.00  0.00     0.153 C 
BRANCH  28  29
HETATM   29  C15 UNL     1      25.125   4.489  49.462  1.00  0.00     0.292 C 
BRANCH  29  30
HETATM   30  N6  UNL     1      24.878   5.856  49.153  1.00  0.00     0.094 N 
HETATM   31  C16 UNL     1      23.512   6.149  48.802  1.00  0.00     0.298 C 
HETATM   32  C17 UNL     1      23.054   7.458  49.359  1.00  0.00     0.198 C 
HETATM   33  O2  UNL     1      23.261   7.598  50.723  1.00  0.00    -0.388 OA
HETATM   34  C18 UNL     1      24.336   6.871  51.190  1.00  0.00     0.198 C 
HETATM   35  C19 UNL     1      25.421   6.793  50.103  1.00  0.00     0.298 C 
ENDBRANCH  29  30
ENDBRANCH  28  29
ENDBRANCH  26  28
ENDBRANCH   8  24
TORSDOF 7
ENDMDL
MODEL 3
REMARK VINA RESULT:      -8.6      3.241      6.927
REMARK  7 active torsions:
REMARK  status: ('A' for Active; 'I' for Inactive)
REMARK    1  A    between atoms: N1_1  and  C1_2 
REMARK    2  A    between atoms: C6_9  and  N4_10 
REMARK    3  A    between atoms: N4_10  and  C7_11 
REMARK    4  A    between atoms: C12_18  and  C13_19 
REMARK       I    between atoms: C13_19  and  N5_21 
REMARK    5  A    between atoms: N5_21  and  C14_22 
REMARK    6  A    between atoms: C14_22  and  C15_23 
REMARK    7  A    between atoms: C15_23  and  N6_24 
ROOT
HETATM    1  C7  UNL     1      22.328   3.251  50.850  1.00  0.00     0.051 A 
HETATM    2  C8  UNL     1      21.052   3.767  50.803  1.00  0.00     0.034 A 
HETATM    3  C9  UNL     1      20.786   5.112  50.877  1.00  0.00     0.046 A 
HETATM    4  C10 UNL     1      21.868   5.950  51.002  1.00  0.00     0.139 A 
HETATM    5  F1  UNL     1      21.632   7.281  51.076  1.00  0.00    -0.204 F 
HETATM    6  C11 UNL     1      23.135   5.420  51.048  1.00  0.00     0.090 A 
HETATM    7 CL1  UNL     1      24.414   6.593  51.212  1.00  0.00    -0.080 Cl
HETATM    8  C12 UNL     1      23.409   4.081  50.976  1.00  0.00     0.083 A 
ENDROOT
BRANCH   1   9
HETATM    9  N4  UNL     1      22.319   1.837  50.745  1.00  0.00    -0.339 N 
HETATM   10  H6  UNL     1      22.332   1.069  50.052  1.00  0.00     0.167 HD
BRANCH   9  11
HETATM   11  C6  UNL     1      22.281   0.953  51.861  1.00  0.00     0.142 A 
HETATM   12  N3  UNL     1      23.451   0.753  52.516  1.00  0.00    -0.224 NA
HETATM   13  C5  UNL     1      23.464  -0.079  53.578  1.00  0.00     0.236 A 
HETATM   14  N2  UNL     1      22.363  -0.719  54.015  1.00  0.00    -0.241 NA
HETATM   15  C4  UNL     1      21.178  -0.556  53.401  1.00  0.00     0.072 A 
HETATM   16  C3  UNL     1      20.037  -1.200  53.832  1.00  0.00     0.035 A 
HETATM   17  C20 UNL     1      21.138   0.295  52.306  1.00  0.00     0.041 A 
HETATM   18  C2  UNL     1      18.852  -0.989  53.160  1.00  0.00     0.031 A 
HETATM   19  C1  UNL     1      18.834  -0.137  52.071  1.00  0.00     0.026 A 
HETATM   20  C21 UNL     1      19.961   0.531  51.606  1.00  0.00     0.046 A 
BRANCH  19  21
HETATM   21  N1  UNL     1      17.572   0.025  51.438  1.00  0.00    -0.399 N 
HETATM   22  H1  UNL     1      16.798   0.698  51.695  1.00  0.00     0.156 HD
HETATM   23  H2  UNL     1      17.033  -0.368  50.648  1.00  0.00     0.156 HD
ENDBRANCH  19  21
ENDBRANCH   9  11
ENDBRANCH   1   9
BRANCH   8  24
HETATM   24  C13 UNL     1      24.704   3.447  51.023  1.00  0.00     0.255 C 
HETATM   25  O1  UNL     1      25.285   3.102  49.990  1.00  0.00    -0.268 OA
HETATM   26  N5  UNL     1      25.579   3.076  52.061  1.00  0.00    -0.355 N 
HETATM   27  H9  UNL     1      25.242   3.301  53.017  1.00  0.00     0.162 HD
BRANCH  26  28
HETATM   28  C14 UNL     1      26.794   2.446  51.587  1.00  0.00     0.153 C 
BRANCH  28  29
HETATM   29  C15 UNL     1      27.531   1.925  52.779  1.00  0.00     0.292 C 
BRANCH  29  30
HETATM   30  N6  UNL     1      27.026   0.702  53.306  1.00  0.00     0.094 N 
HETATM   31  C16 UNL     1      26.872  -0.347  52.331  1.00  0.00     0.298 C 
HETATM   32  C17 UNL     1      27.254  -1.685  52.876  1.00  0.00     0.198 C 
HETATM   33  O2  UNL     1      28.513  -1.723  53.456  1.00  0.00    -0.388 OA
HETATM   34  C18 UNL     1      28.909  -0.512  53.983  1.00  0.00     0.198 C 
HETATM   35  C19 UNL     1      27.682   0.253  54.508  1.00  0.00     0.298 C 
ENDBRANCH  29  30
ENDBRANCH  28  29
ENDBRANCH  26  28
ENDBRANCH   8  24
TORSDOF 7
ENDMDL
MODEL 4
REMARK VINA RESULT:      -8.5      3.479      6.238
REMARK  7 active torsions:
REMARK  status: ('A' for Active; 'I' for Inactive)
REMARK    1  A    between atoms: N1_1  and  C1_2 
REMARK    2  A    between atoms: C6_9  and  N4_10 
REMARK    3  A    between atoms: N4_10  and  C7_11 
REMARK    4  A    between atoms: C12_18  and  C13_19 
REMARK       I    between atoms: C13_19  and  N5_21 
REMARK    5  A    between atoms: N5_21  and  C14_22 
REMARK    6  A    between atoms: C14_22  and  C15_23 
REMARK    7  A    between atoms: C15_23  and  N6_24 
ROOT
HETATM    1  C7  UNL     1      26.051  -0.066  52.720  1.00  0.00     0.051 A 
HETATM    2  C8  UNL     1      26.808  -1.194  52.943  1.00  0.00     0.034 A 
HETATM    3  C9  UNL     1      28.128  -1.148  53.317  1.00  0.00     0.046 A 
HETATM    4  C10 UNL     1      28.685   0.100  53.465  1.00  0.00     0.139 A 
HETATM    5  F1  UNL     1      29.986   0.172  53.833  1.00  0.00    -0.204 F 
HETATM    6  C11 UNL     1      27.917   1.217  53.239  1.00  0.00     0.090 A 
HETATM    7 CL1  UNL     1      28.747   2.733  53.459  1.00  0.00    -0.080 Cl
HETATM    8  C12 UNL     1      26.601   1.179  52.866  1.00  0.00     0.083 A 
ENDROOT
BRANCH   1   9
HETATM    9  N4  UNL     1      24.721  -0.397  52.357  1.00  0.00    -0.339 N 
HETATM   10  H6  UNL     1      24.119  -0.577  51.536  1.00  0.00     0.167 HD
BRANCH   9  11
HETATM   11  C6  UNL     1      23.667  -0.607  53.291  1.00  0.00     0.142 A 
HETATM   12  N3  UNL     1      24.021  -1.084  54.509  1.00  0.00    -0.224 NA
HETATM   13  C5  UNL     1      23.056  -1.301  55.426  1.00  0.00     0.236 A 
HETATM   14  N2  UNL     1      21.752  -1.064  55.181  1.00  0.00    -0.241 NA
HETATM   15  C4  UNL     1      21.348  -0.591  53.989  1.00  0.00     0.072 A 
HETATM   16  C3  UNL     1      20.019  -0.339  53.716  1.00  0.00     0.035 A 
HETATM   17  C20 UNL     1      22.322  -0.359  53.030  1.00  0.00     0.041 A 
HETATM   18  C2  UNL     1      19.669   0.148  52.475  1.00  0.00     0.031 A 
HETATM   19  C1  UNL     1      20.655   0.372  51.533  1.00  0.00     0.026 A 
HETATM   20  C21 UNL     1      22.005   0.131  51.768  1.00  0.00     0.046 A 
BRANCH  19  21
HETATM   21  N1  UNL     1      20.208   0.874  50.281  1.00  0.00    -0.399 N 
HETATM   22  H1  UNL     1      19.227   1.160  50.010  1.00  0.00     0.156 HD
HETATM   23  H2  UNL     1      20.586   1.107  49.347  1.00  0.00     0.156 HD
ENDBRANCH  19  21
ENDBRANCH   9  11
ENDBRANCH   1   9
BRANCH   8  24
HETATM   24  C13 UNL     1      25.731   2.300  52.604  1.00  0.00     0.255 C 
HETATM   25  O1  UNL     1      24.891   2.664  53.432  1.00  0.00    -0.268 OA
HETATM   26  N5  UNL     1      25.573   3.190  51.526  1.00  0.00    -0.355 N 
HETATM   27  H9  UNL     1      26.217   3.026  50.727  1.00  0.00     0.162 HD
BRANCH  26  28
HETATM   28  C14 UNL     1      24.531   4.172  51.742  1.00  0.00     0.153 C 
BRANCH  28  29
HETATM   29  C15 UNL     1      23.692   4.226  50.505  1.00  0.00     0.292 C 
BRANCH  29  30
HETATM   30  N6  UNL     1      22.477   4.955  50.638  1.00  0.00     0.094 N 
HETATM   31  C16 UNL     1      21.435   4.545  49.731  1.00  0.00     0.298 C 
HETATM   32  C17 UNL     1      20.088   4.555  50.377  1.00  0.00     0.198 C 
HETATM   33  O2  UNL     1      20.024   3.843  51.566  1.00  0.00    -0.388 OA
HETATM   34  C18 UNL     1      21.225   3.798  52.242  1.00  0.00     0.198 C 
HETATM   35  C19 UNL     1      22.010   5.098  51.993  1.00  0.00     0.298 C 
ENDBRANCH  29  30
ENDBRANCH  28  29
ENDBRANCH  26  28
ENDBRANCH   8  24
TORSDOF 7
ENDMDL
MODEL 5
REMARK VINA RESULT:      -8.5      3.756      7.847
REMARK  7 active torsions:
REMARK  status: ('A' for Active; 'I' for Inactive)
REMARK    1  A    between atoms: N1_1  and  C1_2 
REMARK    2  A    between atoms: C6_9  and  N4_10 
REMARK    3  A    between atoms: N4_10  and  C7_11 
REMARK    4  A    between atoms: C12_18  and  C13_19 
REMARK       I    between atoms: C13_19  and  N5_21 
REMARK    5  A    between atoms: N5_21  and  C14_22 
REMARK    6  A    between atoms: C14_22  and  C15_23 
REMARK    7  A    between atoms: C15_23  and  N6_24 
ROOT
HETATM    1  C7  UNL     1      24.972   5.647  49.134  1.00  0.00     0.051 A 
HETATM    2  C8  UNL     1      24.720   6.830  48.476  1.00  0.00     0.034 A 
HETATM    3  C9  UNL     1      25.696   7.550  47.833  1.00  0.00     0.046 A 
HETATM    4  C10 UNL     1      26.969   7.034  47.867  1.00  0.00     0.139 A 
HETATM    5  F1  UNL     1      27.949   7.725  47.239  1.00  0.00    -0.204 F 
HETATM    6  C11 UNL     1      27.205   5.852  48.528  1.00  0.00     0.090 A 
HETATM    7 CL1  UNL     1      28.862   5.314  48.498  1.00  0.00    -0.080 Cl
HETATM    8  C12 UNL     1      26.238   5.129  49.173  1.00  0.00     0.083 A 
ENDROOT
BRANCH   1   9
HETATM    9  N4  UNL     1      23.789   5.108  49.702  1.00  0.00    -0.339 N 
HETATM   10  H6  UNL     1      23.161   5.197  50.518  1.00  0.00     0.167 HD
BRANCH   9  11
HETATM   11  C6  UNL     1      23.023   4.064  49.110  1.00  0.00     0.142 A 
HETATM   12  N3  UNL     1      22.656   4.239  47.818  1.00  0.00    -0.224 NA
HETATM   13  C5  UNL     1      21.926   3.276  47.215  1.00  0.00     0.236 A 
HETATM   14  N2  UNL     1      21.548   2.148  47.846  1.00  0.00    -0.241 NA
HETATM   15  C4  UNL     1      21.886   1.926  49.129  1.00  0.00     0.072 A 
HETATM   16  C3  UNL     1      21.510   0.777  49.794  1.00  0.00     0.035 A 
HETATM   17  C20 UNL     1      22.636   2.900  49.769  1.00  0.00     0.041 A 
HETATM   18  C2  UNL     1      21.891   0.608  51.109  1.00  0.00     0.031 A 
HETATM   19  C1  UNL     1      22.638   1.591  51.729  1.00  0.00     0.026 A 
HETATM   20  C21 UNL     1      23.036   2.762  51.093  1.00  0.00     0.046 A 
BRANCH  19  21
HETATM   21  N1  UNL     1      22.988   1.336  53.082  1.00  0.00    -0.399 N 
HETATM   22  H1  UNL     1      22.374   1.422  53.939  1.00  0.00     0.156 HD
HETATM   23  H2  UNL     1      23.804   1.032  53.640  1.00  0.00     0.156 HD
ENDBRANCH  19  21
ENDBRANCH   9  11
ENDBRANCH   1   9
BRANCH   8  24
HETATM   24  C13 UNL     1      26.404   3.889  49.892  1.00  0.00     0.255 C 
HETATM   25  O1  UNL     1      26.204   2.801  49.343  1.00  0.00    -0.268 OA
HETATM   26  N5  UNL     1      26.776   3.558  51.208  1.00  0.00    -0.355 N 
HETATM   27  H9  UNL     1      26.989   4.372  51.818  1.00  0.00     0.162 HD
BRANCH  26  28
HETATM   28  C14 UNL     1      26.792   2.132  51.456  1.00  0.00     0.153 C 
BRANCH  28  29
HETATM   29  C15 UNL     1      26.547   1.922  52.916  1.00  0.00     0.292 C 
BRANCH  29  30
HETATM   30  N6  UNL     1      26.357   0.565  53.302  1.00  0.00     0.094 N 
HETATM   31  C16 UNL     1      26.794  -0.398  52.322  1.00  0.00     0.298 C 
HETATM   32  C17 UNL     1      27.448  -1.586  52.951  1.00  0.00     0.198 C 
HETATM   33  O2  UNL     1      28.470  -1.270  53.832  1.00  0.00    -0.388 OA
HETATM   34  C18 UNL     1      28.310  -0.042  54.439  1.00  0.00     0.198 C 
HETATM   35  C19 UNL     1      26.812   0.250  54.631  1.00  0.00     0.298 C 
ENDBRANCH  29  30
ENDBRANCH  28  29
ENDBRANCH  26  28
ENDBRANCH   8  24
TORSDOF 7
ENDMDL
MODEL 6
REMARK VINA RESULT:      -8.5      1.658      2.019
REMARK  7 active torsions:
REMARK  status: ('A' for Active; 'I' for Inactive)
REMARK    1  A    between atoms: N1_1  and  C1_2 
REMARK    2  A    between atoms: C6_9  and  N4_10 
REMARK    3  A    between atoms: N4_10  and  C7_11 
REMARK    4  A    between atoms: C12_18  and  C13_19 
REMARK       I    between atoms: C13_19  and  N5_21 
REMARK    5  A    between atoms: N5_21  and  C14_22 
REMARK    6  A    between atoms: C14_22  and  C15_23 
REMARK    7  A    between atoms: C15_23  and  N6_24 
ROOT
HETATM    1  C7  UNL     1      22.234  -0.118  52.394  1.00  0.00     0.051 A 
HETATM    2  C8  UNL     1      22.029  -0.980  53.448  1.00  0.00     0.034 A 
HETATM    3  C9  UNL     1      20.789  -1.230  53.980  1.00  0.00     0.046 A 
HETATM    4  C10 UNL     1      19.727  -0.571  53.407  1.00  0.00     0.139 A 
HETATM    5  F1  UNL     1      18.493  -0.801  53.914  1.00  0.00    -0.204 F 
HETATM    6  C11 UNL     1      19.947   0.287  52.357  1.00  0.00     0.090 A 
HETATM    7 CL1  UNL     1      18.516   1.058  51.728  1.00  0.00    -0.080 Cl
HETATM    8  C12 UNL     1      21.180   0.541  51.821  1.00  0.00     0.083 A 
ENDROOT
BRANCH   1   9
HETATM    9  N4  UNL     1      23.605  -0.052  52.038  1.00  0.00    -0.339 N 
HETATM   10  H6  UNL     1      24.290  -0.416  51.354  1.00  0.00     0.167 HD
BRANCH   9  11
HETATM   11  C6  UNL     1      24.572   0.736  52.726  1.00  0.00     0.142 A 
HETATM   12  N3  UNL     1      24.216   2.008  53.026  1.00  0.00    -0.224 NA
HETATM   13  C5  UNL     1      25.100   2.793  53.675  1.00  0.00     0.236 A 
HETATM   14  N2  UNL     1      26.325   2.364  54.039  1.00  0.00    -0.241 NA
HETATM   15  C4  UNL     1      26.727   1.110  53.765  1.00  0.00     0.072 A 
HETATM   16  C3  UNL     1      27.976   0.649  54.129  1.00  0.00     0.035 A 
HETATM   17  C20 UNL     1      25.835   0.284  53.098  1.00  0.00     0.041 A 
HETATM   18  C2  UNL     1      28.328  -0.648  53.821  1.00  0.00     0.031 A 
HETATM   19  C1  UNL     1      27.424  -1.455  53.156  1.00  0.00     0.026 A 
HETATM   20  C21 UNL     1      26.157  -1.028  52.772  1.00  0.00     0.046 A 
BRANCH  19  21
HETATM   21  N1  UNL     1      27.867  -2.777  52.879  1.00  0.00    -0.399 N 
HETATM   22  H1  UNL     1      27.345  -3.543  52.371  1.00  0.00     0.156 HD
HETATM   23  H2  UNL     1      28.695  -3.377  53.032  1.00  0.00     0.156 HD
ENDBRANCH  19  21
ENDBRANCH   9  11
ENDBRANCH   1   9
BRANCH   8  24
HETATM   24  C13 UNL     1      21.495   1.429  50.728  1.00  0.00     0.255 C 
HETATM   25  O1  UNL     1      21.938   0.995  49.660  1.00  0.00    -0.268 OA
HETATM   26  N5  UNL     1      21.421   2.821  50.539  1.00  0.00    -0.355 N 
HETATM   27  H9  UNL     1      21.058   3.353  51.355  1.00  0.00     0.162 HD
BRANCH  26  28
HETATM   28  C14 UNL     1      21.870   3.247  49.230  1.00  0.00     0.153 C 
BRANCH  28  29
HETATM   29  C15 UNL     1      22.755   4.437  49.417  1.00  0.00     0.292 C 
BRANCH  29  30
HETATM   30  N6  UNL     1      23.931   4.193  50.181  1.00  0.00     0.094 N 
HETATM   31  C16 UNL     1      24.803   3.190  49.626  1.00  0.00     0.298 C 
HETATM   32  C17 UNL     1      26.246   3.546  49.784  1.00  0.00     0.198 C 
HETATM   33  O2  UNL     1      26.574   4.808  49.313  1.00  0.00    -0.388 OA
HETATM   34  C18 UNL     1      25.526   5.703  49.375  1.00  0.00     0.198 C 
HETATM   35  C19 UNL     1      24.638   5.380  50.588  1.00  0.00     0.298 C 
ENDBRANCH  29  30
ENDBRANCH  28  29
ENDBRANCH  26  28
ENDBRANCH   8  24
TORSDOF 7
ENDMDL
MODEL 7
REMARK VINA RESULT:      -8.4      3.421      6.073
REMARK  7 active torsions:
REMARK  status: ('A' for Active; 'I' for Inactive)
REMARK    1  A    between atoms: N1_1  and  C1_2 
REMARK    2  A    between atoms: C6_9  and  N4_10 
REMARK    3  A    between atoms: N4_10  and  C7_11 
REMARK    4  A    between atoms: C12_18  and  C13_19 
REMARK       I    between atoms: C13_19  and  N5_21 
REMARK    5  A    between atoms: N5_21  and  C14_22 
REMARK    6  A    between atoms: C14_22  and  C15_23 
REMARK    7  A    between atoms: C15_23  and  N6_24 
ROOT
HETATM    1  C7  UNL     1      25.824   3.683  50.197  1.00  0.00     0.051 A 
HETATM    2  C8  UNL     1      26.974   3.675  49.441  1.00  0.00     0.034 A 
HETATM    3  C9  UNL     1      27.400   4.760  48.716  1.00  0.00     0.046 A 
HETATM    4  C10 UNL     1      26.616   5.887  48.773  1.00  0.00     0.139 A 
HETATM    5  F1  UNL     1      27.015   6.972  48.066  1.00  0.00    -0.204 F 
HETATM    6  C11 UNL     1      25.470   5.880  49.531  1.00  0.00     0.090 A 
HETATM    7 CL1  UNL     1      24.569   7.371  49.512  1.00  0.00    -0.080 Cl
HETATM    8  C12 UNL     1      25.039   4.802  50.256  1.00  0.00     0.083 A 
ENDROOT
BRANCH   1   9
HETATM    9  N4  UNL     1      25.625   2.439  50.849  1.00  0.00    -0.339 N 
HETATM   10  H6  UNL     1      25.073   1.567  50.794  1.00  0.00     0.167 HD
BRANCH   9  11
HETATM   11  C6  UNL     1      26.328   2.029  52.018  1.00  0.00     0.142 A 
HETATM   12  N3  UNL     1      27.541   2.597  52.226  1.00  0.00    -0.224 NA
HETATM   13  C5  UNL     1      28.246   2.237  53.319  1.00  0.00     0.236 A 
HETATM   14  N2  UNL     1      27.794   1.335  54.212  1.00  0.00    -0.241 NA
HETATM   15  C4  UNL     1      26.598   0.742  54.051  1.00  0.00     0.072 A 
HETATM   16  C3  UNL     1      26.115  -0.183  54.954  1.00  0.00     0.035 A 
HETATM   17  C20 UNL     1      25.854   1.096  52.936  1.00  0.00     0.041 A 
HETATM   18  C2  UNL     1      24.880  -0.754  54.734  1.00  0.00     0.031 A 
HETATM   19  C1  UNL     1      24.154  -0.387  53.616  1.00  0.00     0.026 A 
HETATM   20  C21 UNL     1      24.606   0.541  52.683  1.00  0.00     0.046 A 
BRANCH  19  21
HETATM   21  N1  UNL     1      22.892  -1.023  53.466  1.00  0.00    -0.399 N 
HETATM   22  H1  UNL     1      22.017  -0.870  54.039  1.00  0.00     0.156 HD
HETATM   23  H2  UNL     1      22.434  -1.730  52.866  1.00  0.00     0.156 HD
ENDBRANCH  19  21
ENDBRANCH   9  11
ENDBRANCH   1   9
BRANCH   8  24
HETATM   24  C13 UNL     1      23.850   4.711  51.069  1.00  0.00     0.255 C 
HETATM   25  O1  UNL     1      23.916   4.414  52.265  1.00  0.00    -0.268 OA
HETATM   26  N5  UNL     1      22.477   4.895  50.825  1.00  0.00    -0.355 N 
HETATM   27  H9  UNL     1      22.239   5.159  49.849  1.00  0.00     0.162 HD
BRANCH  26  28
HETATM   28  C14 UNL     1      21.653   4.678  51.997  1.00  0.00     0.153 C 
BRANCH  28  29
HETATM   29  C15 UNL     1      20.371   4.058  51.543  1.00  0.00     0.292 C 
BRANCH  29  30
HETATM   30  N6  UNL     1      20.013   2.860  52.224  1.00  0.00     0.094 N 
HETATM   31  C16 UNL     1      18.858   2.190  51.682  1.00  0.00     0.298 C 
HETATM   32  C17 UNL     1      19.012   0.704  51.690  1.00  0.00     0.198 C 
HETATM   33  O2  UNL     1      20.179   0.251  51.093  1.00  0.00    -0.388 OA
HETATM   34  C18 UNL     1      21.218   1.155  51.168  1.00  0.00     0.198 C 
HETATM   35  C19 UNL     1      21.110   1.961  52.473  1.00  0.00     0.298 C 
ENDBRANCH  29  30
ENDBRANCH  28  29
ENDBRANCH  26  28
ENDBRANCH   8  24
TORSDOF 7
ENDMDL
MODEL 8
REMARK VINA RESULT:      -8.3      2.607      6.759
REMARK  7 active torsions:
REMARK  status: ('A' for Active; 'I' for Inactive)
REMARK    1  A    between atoms: N1_1  and  C1_2 
REMARK    2  A    between atoms: C6_9  and  N4_10 
REMARK    3  A    between atoms: N4_10  and  C7_11 
REMARK    4  A    between atoms: C12_18  and  C13_19 
REMARK       I    between atoms: C13_19  and  N5_21 
REMARK    5  A    between atoms: N5_21  and  C14_22 
REMARK    6  A    between atoms: C14_22  and  C15_23 
REMARK    7  A    between atoms: C15_23  and  N6_24 
ROOT
HETATM    1  C7  UNL     1      21.895   1.167  50.916  1.00  0.00     0.051 A 
HETATM    2  C8  UNL     1      20.697   1.208  50.239  1.00  0.00     0.034 A 
HETATM    3  C9  UNL     1      19.526   0.717  50.761  1.00  0.00     0.046 A 
HETATM    4  C10 UNL     1      19.592   0.170  52.020  1.00  0.00     0.139 A 
HETATM    5  F1  UNL     1      18.450  -0.320  52.557  1.00  0.00    -0.204 F 
HETATM    6  C11 UNL     1      20.795   0.136  52.683  1.00  0.00     0.090 A 
HETATM    7 CL1  UNL     1      20.738  -0.588  54.267  1.00  0.00    -0.080 Cl
HETATM    8  C12 UNL     1      21.966   0.622  52.169  1.00  0.00     0.083 A 
ENDROOT
BRANCH   1   9
HETATM    9  N4  UNL     1      22.940   1.748  50.153  1.00  0.00    -0.339 N 
HETATM   10  H6  UNL     1      23.960   1.696  49.992  1.00  0.00     0.167 HD
BRANCH   9  11
HETATM   11  C6  UNL     1      22.751   2.794  49.206  1.00  0.00     0.142 A 
HETATM   12  N3  UNL     1      22.287   2.431  47.986  1.00  0.00    -0.224 NA
HETATM   13  C5  UNL     1      22.095   3.388  47.054  1.00  0.00     0.236 A 
HETATM   14  N2  UNL     1      22.346   4.691  47.287  1.00  0.00    -0.241 NA
HETATM   15  C4  UNL     1      22.808   5.104  48.480  1.00  0.00     0.072 A 
HETATM   16  C3  UNL     1      23.070   6.434  48.741  1.00  0.00     0.035 A 
HETATM   17  C20 UNL     1      23.013   4.139  49.454  1.00  0.00     0.041 A 
HETATM   18  C2  UNL     1      23.540   6.793  49.986  1.00  0.00     0.031 A 
HETATM   19  C1  UNL     1      23.738   5.816  50.943  1.00  0.00     0.026 A 
HETATM   20  C21 UNL     1      23.485   4.466  50.720  1.00  0.00     0.046 A 
BRANCH  19  21
HETATM   21  N1  UNL     1      24.223   6.273  52.198  1.00  0.00    -0.399 N 
HETATM   22  H1  UNL     1      24.616   5.695  52.991  1.00  0.00     0.156 HD
HETATM   23  H2  UNL     1      24.353   7.159  52.715  1.00  0.00     0.156 HD
ENDBRANCH  19  21
ENDBRANCH   9  11
ENDBRANCH   1   9
BRANCH   8  24
HETATM   24  C13 UNL     1      23.267   0.619  52.795  1.00  0.00     0.255 C 
HETATM   25  O1  UNL     1      23.864   1.673  53.032  1.00  0.00    -0.268 OA
HETATM   26  N5  UNL     1      24.131  -0.389  53.260  1.00  0.00    -0.355 N 
HETATM   27  H9  UNL     1      23.776  -1.358  53.140  1.00  0.00     0.162 HD
BRANCH  26  28
HETATM   28  C14 UNL     1      25.362   0.127  53.822  1.00  0.00     0.153 C 
BRANCH  28  29
HETATM   29  C15 UNL     1      26.497  -0.612  53.186  1.00  0.00     0.292 C 
BRANCH  29  30
HETATM   30  N6  UNL     1      27.635   0.188  52.883  1.00  0.00     0.094 N 
HETATM   31  C16 UNL     1      27.413   1.607  53.002  1.00  0.00     0.298 C 
HETATM   32  C17 UNL     1      28.592   2.315  53.587  1.00  0.00     0.198 C 
HETATM   33  O2  UNL     1      29.041   1.776  54.784  1.00  0.00    -0.388 OA
HETATM   34  C18 UNL     1      28.790   0.426  54.904  1.00  0.00     0.198 C 
HETATM   35  C19 UNL     1      28.854  -0.240  53.519  1.00  0.00     0.298 C 
ENDBRANCH  29  30
ENDBRANCH  28  29
ENDBRANCH  26  28
ENDBRANCH   8  24
TORSDOF 7
ENDMDL
MODEL 9
REMARK VINA RESULT:      -8.2      4.463      8.361
REMARK  7 active torsions:
REMARK  status: ('A' for Active; 'I' for Inactive)
REMARK    1  A    between atoms: N1_1  and  C1_2 
REMARK    2  A    between atoms: C6_9  and  N4_10 
REMARK    3  A    between atoms: N4_10  and  C7_11 
REMARK    4  A    between atoms: C12_18  and  C13_19 
REMARK       I    between atoms: C13_19  and  N5_21 
REMARK    5  A    between atoms: N5_21  and  C14_22 
REMARK    6  A    between atoms: C14_22  and  C15_23 
REMARK    7  A    between atoms: C15_23  and  N6_24 
ROOT
HETATM    1  C7  UNL     1      27.779   6.251  48.568  1.00  0.00     0.051 A 
HETATM    2  C8  UNL     1      27.803   7.454  47.898  1.00  0.00     0.034 A 
HETATM    3  C9  UNL     1      26.670   8.074  47.433  1.00  0.00     0.046 A 
HETATM    4  C10 UNL     1      25.475   7.435  47.668  1.00  0.00     0.139 A 
HETATM    5  F1  UNL     1      24.343   8.027  47.221  1.00  0.00    -0.204 F 
HETATM    6  C11 UNL     1      25.467   6.236  48.338  1.00  0.00     0.090 A 
HETATM    7 CL1  UNL     1      23.889   5.534  48.565  1.00  0.00    -0.080 Cl
HETATM    8  C12 UNL     1      26.592   5.611  48.803  1.00  0.00     0.083 A 
ENDROOT
BRANCH   1   9
HETATM    9  N4  UNL     1      29.084   5.842  48.943  1.00  0.00    -0.339 N 
HETATM   10  H6  UNL     1      29.589   5.131  49.499  1.00  0.00     0.167 HD
BRANCH   9  11
HETATM   11  C6  UNL     1      30.278   6.493  48.520  1.00  0.00     0.142 A 
HETATM   12  N3  UNL     1      30.432   7.784  48.901  1.00  0.00    -0.224 NA
HETATM   13  C5  UNL     1      31.546   8.443  48.521  1.00  0.00     0.236 A 
HETATM   14  N2  UNL     1      32.513   7.870  47.778  1.00  0.00    -0.241 NA
HETATM   15  C4  UNL     1      32.408   6.592  47.374  1.00  0.00     0.072 A 
HETATM   16  C3  UNL     1      33.387   5.984  46.614  1.00  0.00     0.035 A 
HETATM   17  C20 UNL     1      31.272   5.893  47.752  1.00  0.00     0.041 A 
HETATM   18  C2  UNL     1      33.221   4.669  46.233  1.00  0.00     0.031 A 
HETATM   19  C1  UNL     1      32.081   3.991  46.621  1.00  0.00     0.026 A 
HETATM   20  C21 UNL     1      31.073   4.567  47.386  1.00  0.00     0.046 A 
BRANCH  19  21
HETATM   21  N1  UNL     1      31.991   2.641  46.187  1.00  0.00    -0.399 N 
HETATM   22  H1  UNL     1      31.121   2.099  45.928  1.00  0.00     0.156 HD
HETATM   23  H2  UNL     1      32.609   1.833  45.995  1.00  0.00     0.156 HD
ENDBRANCH  19  21
ENDBRANCH   9  11
ENDBRANCH   1   9
BRANCH   8  24
HETATM   24  C13 UNL     1      26.670   4.353  49.507  1.00  0.00     0.255 C 
HETATM   25  O1  UNL     1      27.256   3.383  49.018  1.00  0.00    -0.268 OA
HETATM   26  N5  UNL     1      26.197   3.891  50.749  1.00  0.00    -0.355 N 
HETATM   27  H9  UNL     1      25.674   4.595  51.306  1.00  0.00     0.162 HD
BRANCH  26  28
HETATM   28  C14 UNL     1      26.536   2.508  51.012  1.00  0.00     0.153 C 
BRANCH  28  29
HETATM   29  C15 UNL     1      27.104   2.434  52.394  1.00  0.00     0.292 C 
BRANCH  29  30
HETATM   30  N6  UNL     1      27.801   1.229  52.689  1.00  0.00     0.094 N 
HETATM   31  C16 UNL     1      28.721   1.331  53.793  1.00  0.00     0.298 C 
HETATM   32  C17 UNL     1      28.719   0.102  54.645  1.00  0.00     0.198 C 
HETATM   33  O2  UNL     1      27.460  -0.286  55.078  1.00  0.00    -0.388 OA
HETATM   34  C18 UNL     1      26.448   0.081  54.215  1.00  0.00     0.198 C 
HETATM   35  C19 UNL     1      26.967   0.058  52.767  1.00  0.00     0.298 C 
ENDBRANCH  29  30
ENDBRANCH  28  29
ENDBRANCH  26  28
ENDBRANCH   8  24
TORSDOF 7
ENDMDL
