MODEL 1
REMARK VINA RESULT:      -9.0      0.000      0.000
REMARK  4 active torsions:
REMARK  status: ('A' for Active; 'I' for Inactive)
REMARK    1  A    between atoms: C4_4  and  N1_5 
REMARK    2  A    between atoms: C8_9  and  N2_10 
REMARK       I    between atoms: N2_10  and  C9_11 
REMARK    3  A    between atoms: C9_11  and  C10_13 
REMARK    4  A    between atoms: C16_20  and  N4_21 
ROOT
HETATM    1  C10 UNL     1      18.959   0.114  51.948  1.00  0.00     0.058 A 
HETATM    2  C11 UNL     1      17.848  -0.072  51.154  1.00  0.00     0.021 A 
HETATM    3  C12 UNL     1      16.853  -0.988  51.415  1.00  0.00     0.024 A 
HETATM    4  C13 UNL     1      16.939  -1.781  52.524  1.00  0.00     0.046 A 
HETATM    5  C14 UNL     1      15.895  -2.731  52.784  1.00  0.00     0.099 C 
HETATM    6  N3  UNL     1      15.062  -3.511  53.009  1.00  0.00    -0.191 NA
HETATM    7  C15 UNL     1      18.033  -1.626  53.342  1.00  0.00     0.052 A 
HETATM    8  C16 UNL     1      19.030  -0.695  53.061  1.00  0.00     0.043 A 
ENDROOT
BRANCH   8   9
HETATM    9  N4  UNL     1      20.105  -0.653  54.010  1.00  0.00    -0.398 N 
HETATM   10  H13 UNL     1      20.547   0.266  53.746  1.00  0.00     0.156 HD
HETATM   11  H14 UNL     1      20.008  -1.544  54.567  1.00  0.00     0.156 HD
ENDBRANCH   8   9
BRANCH   1  12
HETATM   12  C9  UNL     1      20.033   1.065  51.713  1.00  0.00     0.258 C 
HETATM   13  N2  UNL     1      21.039   0.965  50.720  1.00  0.00    -0.325 N 
HETATM   14  H9  UNL     1      20.876   0.077  50.179  1.00  0.00     0.169 HD
HETATM   15  O1  UNL     1      20.053   2.065  52.473  1.00  0.00    -0.267 OA
BRANCH  13  16
HETATM   16  C8  UNL     1      22.123   1.819  50.400  1.00  0.00     0.030 A 
HETATM   17  C7  UNL     1      22.110   2.753  49.475  1.00  0.00     0.028 A 
HETATM   18  C6  UNL     1      23.207   3.644  49.125  1.00  0.00     0.019 A 
HETATM   19  C5  UNL     1      24.352   3.538  49.780  1.00  0.00     0.088 A 
HETATM   20  N1  UNL     1      24.364   2.530  50.780  1.00  0.00    -0.359 N 
HETATM   21  C17 UNL     1      23.344   1.605  51.201  1.00  0.00     0.181 A 
BRANCH  20  22
HETATM   22  C4  UNL     1      25.617   2.411  51.500  1.00  0.00     0.231 C 
HETATM   23  C3  UNL     1      25.990   0.951  51.430  1.00  0.00     0.025 C 
HETATM   24  C2  UNL     1      26.487   0.224  52.422  1.00  0.00    -0.061 C 
HETATM   25  C1  UNL     1      26.796  -1.198  52.176  1.00  0.00     0.045 C 
HETATM   26  C19 UNL     1      26.707   0.886  53.737  1.00  0.00     0.070 A 
HETATM   27  C18 UNL     1      25.976   2.156  53.840  1.00  0.00     0.110 C 
HETATM   28  C20 UNL     1      28.197   1.091  53.836  1.00  0.00     0.017 A 
HETATM   29  C22 UNL     1      26.472  -0.021  54.874  1.00  0.00     0.113 A 
HETATM   30  N5  UNL     1      25.494   2.833  52.862  1.00  0.00    -0.274 NA
HETATM   31  C21 UNL     1      28.674   0.401  54.864  1.00  0.00     0.113 A 
HETATM   32  N6  UNL     1      27.572  -0.262  55.463  1.00  0.00    -0.276 NA
ENDBRANCH  20  22
ENDBRANCH  13  16
ENDBRANCH   1  12
TORSDOF 4
ENDMDL
MODEL 2
REMARK VINA RESULT:      -8.7      5.277      8.491
REMARK  4 active torsions:
REMARK  status: ('A' for Active; 'I' for Inactive)
REMARK    1  A    between atoms: C4_4  and  N1_5 
REMARK    2  A    between atoms: C8_9  and  N2_10 
REMARK       I    between atoms: N2_10  and  C9_11 
REMARK    3  A    between atoms: C9_11  and  C10_13 
REMARK    4  A    between atoms: C16_20  and  N4_21 
ROOT
HETATM    1  C10 UNL     1      26.116   1.365  52.682  1.00  0.00     0.058 A 
HETATM    2  C11 UNL     1      25.740   0.109  52.261  1.00  0.00     0.021 A 
HETATM    3  C12 UNL     1      26.488  -1.031  52.455  1.00  0.00     0.024 A 
HETATM    4  C13 UNL     1      27.688  -0.949  53.104  1.00  0.00     0.046 A 
HETATM    5  C14 UNL     1      28.458  -2.144  53.300  1.00  0.00     0.099 C 
HETATM    6  N3  UNL     1      29.098  -3.101  53.463  1.00  0.00    -0.191 NA
HETATM    7  C15 UNL     1      28.099   0.288  53.540  1.00  0.00     0.052 A 
HETATM    8  C16 UNL     1      27.328   1.430  53.334  1.00  0.00     0.043 A 
ENDROOT
BRANCH   8   9
HETATM    9  N4  UNL     1      27.894   2.644  53.848  1.00  0.00    -0.398 N 
HETATM   10  H13 UNL     1      27.042   3.264  53.833  1.00  0.00     0.156 HD
HETATM   11  H14 UNL     1      28.908   2.416  54.024  1.00  0.00     0.156 HD
ENDBRANCH   8   9
BRANCH   1  12
HETATM   12  C9  UNL     1      25.362   2.594  52.499  1.00  0.00     0.258 C 
HETATM   13  N2  UNL     1      25.227   3.323  51.292  1.00  0.00    -0.325 N 
HETATM   14  H9  UNL     1      25.770   2.821  50.545  1.00  0.00     0.169 HD
HETATM   15  O1  UNL     1      24.780   3.035  53.522  1.00  0.00    -0.267 OA
BRANCH  13  16
HETATM   16  C8  UNL     1      24.526   4.519  50.997  1.00  0.00     0.030 A 
HETATM   17  C7  UNL     1      23.318   4.819  51.421  1.00  0.00     0.028 A 
HETATM   18  C6  UNL     1      22.575   6.037  51.134  1.00  0.00     0.019 A 
HETATM   19  C5  UNL     1      23.133   6.964  50.372  1.00  0.00     0.088 A 
HETATM   20  N1  UNL     1      24.438   6.638  49.916  1.00  0.00    -0.359 N 
HETATM   21  C17 UNL     1      25.254   5.474  50.140  1.00  0.00     0.181 A 
BRANCH  20  22
HETATM   22  C4  UNL     1      25.053   7.652  49.080  1.00  0.00     0.231 C 
HETATM   23  C3  UNL     1      26.295   7.012  48.512  1.00  0.00     0.025 C 
HETATM   24  C2  UNL     1      27.482   7.590  48.383  1.00  0.00    -0.061 C 
HETATM   25  C1  UNL     1      28.594   6.811  47.802  1.00  0.00     0.045 C 
HETATM   26  C19 UNL     1      27.630   9.001  48.834  1.00  0.00     0.070 A 
HETATM   27  C18 UNL     1      26.526   9.414  49.711  1.00  0.00     0.110 C 
HETATM   28  C20 UNL     1      27.675   9.821  47.571  1.00  0.00     0.017 A 
HETATM   29  C22 UNL     1      28.963   9.278  49.397  1.00  0.00     0.113 A 
HETATM   30  N5  UNL     1      25.390   8.827  49.825  1.00  0.00    -0.274 NA
HETATM   31  C21 UNL     1      28.847  10.436  47.480  1.00  0.00     0.113 A 
HETATM   32  N6  UNL     1      29.596  10.067  48.627  1.00  0.00    -0.276 NA
ENDBRANCH  20  22
ENDBRANCH  13  16
ENDBRANCH   1  12
TORSDOF 4
ENDMDL
MODEL 3
REMARK VINA RESULT:      -8.5      3.095      9.116
REMARK  4 active torsions:
REMARK  status: ('A' for Active; 'I' for Inactive)
REMARK    1  A    between atoms: C4_4  and  N1_5 
REMARK    2  A    between atoms: C8_9  and  N2_10 
REMARK       I    between atoms: N2_10  and  C9_11 
REMARK    3  A    between atoms: C9_11  and  C10_13 
REMARK    4  A    between atoms: C16_20  and  N4_21 
ROOT
HETATM    1  C10 UNL     1      26.224   4.476  49.696  1.00  0.00     0.058 A 
HETATM    2  C11 UNL     1      27.396   4.415  48.974  1.00  0.00     0.021 A 
HETATM    3  C12 UNL     1      27.956   5.485  48.311  1.00  0.00     0.024 A 
HETATM    4  C13 UNL     1      27.336   6.702  48.349  1.00  0.00     0.046 A 
HETATM    5  C14 UNL     1      27.929   7.809  47.654  1.00  0.00     0.099 C 
HETATM    6  N3  UNL     1      28.392   8.716  47.093  1.00  0.00    -0.191 NA
HETATM    7  C15 UNL     1      26.163   6.804  49.060  1.00  0.00     0.052 A 
HETATM    8  C16 UNL     1      25.612   5.710  49.723  1.00  0.00     0.043 A 
ENDROOT
BRANCH   8   9
HETATM    9  N4  UNL     1      24.387   5.978  50.419  1.00  0.00    -0.398 N 
HETATM   10  H13 UNL     1      24.734   6.655  51.148  1.00  0.00     0.156 HD
HETATM   11  H14 UNL     1      23.661   5.396  49.921  1.00  0.00     0.156 HD
ENDBRANCH   8   9
BRANCH   1  12
HETATM   12  C9  UNL     1      25.597   3.376  50.409  1.00  0.00     0.258 C 
HETATM   13  N2  UNL     1      26.078   2.760  51.591  1.00  0.00    -0.325 N 
HETATM   14  H9  UNL     1      26.974   3.238  51.866  1.00  0.00     0.169 HD
HETATM   15  O1  UNL     1      24.526   2.944  49.915  1.00  0.00    -0.267 OA
BRANCH  13  16
HETATM   16  C8  UNL     1      25.559   1.694  52.367  1.00  0.00     0.030 A 
HETATM   17  C7  UNL     1      26.229   1.008  53.266  1.00  0.00     0.028 A 
HETATM   18  C6  UNL     1      25.722  -0.089  54.075  1.00  0.00     0.019 A 
HETATM   19  C5  UNL     1      24.463  -0.470  53.924  1.00  0.00     0.088 A 
HETATM   20  N1  UNL     1      23.740   0.273  52.953  1.00  0.00    -0.359 N 
HETATM   21  C17 UNL     1      24.143   1.366  52.107  1.00  0.00     0.181 A 
BRANCH  20  22
HETATM   22  C4  UNL     1      22.360  -0.140  52.784  1.00  0.00     0.231 C 
HETATM   23  C3  UNL     1      21.989   0.249  51.375  1.00  0.00     0.025 C 
HETATM   24  C2  UNL     1      20.841   0.793  50.993  1.00  0.00    -0.061 C 
HETATM   25  C1  UNL     1      20.645   1.111  49.565  1.00  0.00     0.045 C 
HETATM   26  C19 UNL     1      19.806   1.055  52.031  1.00  0.00     0.070 A 
HETATM   27  C18 UNL     1      20.370   1.020  53.387  1.00  0.00     0.110 C 
HETATM   28  C20 UNL     1      18.763  -0.016  51.834  1.00  0.00     0.017 A 
HETATM   29  C22 UNL     1      19.019   2.268  51.753  1.00  0.00     0.113 A 
HETATM   30  N5  UNL     1      21.492   0.497  53.727  1.00  0.00    -0.274 NA
HETATM   31  C21 UNL     1      17.607   0.544  51.504  1.00  0.00     0.113 A 
HETATM   32  N6  UNL     1      17.823   1.945  51.469  1.00  0.00    -0.276 NA
ENDBRANCH  20  22
ENDBRANCH  13  16
ENDBRANCH   1  12
TORSDOF 4
ENDMDL
MODEL 4
REMARK VINA RESULT:      -8.4      5.617      8.121
REMARK  4 active torsions:
REMARK  status: ('A' for Active; 'I' for Inactive)
REMARK    1  A    between atoms: C4_4  and  N1_5 
REMARK    2  A    between atoms: C8_9  and  N2_10 
REMARK       I    between atoms: N2_10  and  C9_11 
REMARK    3  A    between atoms: C9_11  and  C10_13 
REMARK    4  A    between atoms: C16_20  and  N4_21 
ROOT
HETATM    1  C10 UNL     1      25.236   2.403  51.310  1.00  0.00     0.058 A 
HETATM    2  C11 UNL     1      26.341   1.653  51.651  1.00  0.00     0.021 A 
HETATM    3  C12 UNL     1      26.357   0.706  52.652  1.00  0.00     0.024 A 
HETATM    4  C13 UNL     1      25.223   0.467  53.374  1.00  0.00     0.046 A 
HETATM    5  C14 UNL     1      25.253  -0.522  54.413  1.00  0.00     0.099 C 
HETATM    6  N3  UNL     1      25.259  -1.316  55.262  1.00  0.00    -0.191 NA
HETATM    7  C15 UNL     1      24.098   1.195  53.063  1.00  0.00     0.052 A 
HETATM    8  C16 UNL     1      24.101   2.149  52.048  1.00  0.00     0.043 A 
ENDROOT
BRANCH   8   9
HETATM    9  N4  UNL     1      22.851   2.823  51.846  1.00  0.00    -0.398 N 
HETATM   10  H13 UNL     1      22.190   2.107  52.245  1.00  0.00     0.156 HD
HETATM   11  H14 UNL     1      23.109   3.738  51.390  1.00  0.00     0.156 HD
ENDBRANCH   8   9
BRANCH   1  12
HETATM   12  C9  UNL     1      25.172   3.411  50.265  1.00  0.00     0.258 C 
HETATM   13  N2  UNL     1      25.757   4.701  50.308  1.00  0.00    -0.325 N 
HETATM   14  H9  UNL     1      26.248   4.806  51.232  1.00  0.00     0.169 HD
HETATM   15  O1  UNL     1      24.533   3.088  49.233  1.00  0.00    -0.267 OA
BRANCH  13  16
HETATM   16  C8  UNL     1      25.761   5.756  49.362  1.00  0.00     0.030 A 
HETATM   17  C7  UNL     1      24.693   6.354  48.882  1.00  0.00     0.028 A 
HETATM   18  C6  UNL     1      24.669   7.438  47.911  1.00  0.00     0.019 A 
HETATM   19  C5  UNL     1      25.814   7.900  47.437  1.00  0.00     0.088 A 
HETATM   20  N1  UNL     1      26.967   7.254  47.957  1.00  0.00    -0.359 N 
HETATM   21  C17 UNL     1      27.100   6.183  48.911  1.00  0.00     0.181 A 
BRANCH  20  22
HETATM   22  C4  UNL     1      28.225   7.757  47.440  1.00  0.00     0.231 C 
HETATM   23  C3  UNL     1      29.159   6.573  47.418  1.00  0.00     0.025 C 
HETATM   24  C2  UNL     1      30.436   6.580  47.777  1.00  0.00    -0.061 C 
HETATM   25  C1  UNL     1      31.205   5.323  47.692  1.00  0.00     0.045 C 
HETATM   26  C19 UNL     1      31.027   7.862  48.250  1.00  0.00     0.070 A 
HETATM   27  C18 UNL     1      29.993   8.842  48.609  1.00  0.00     0.110 C 
HETATM   28  C20 UNL     1      31.885   8.350  47.111  1.00  0.00     0.017 A 
HETATM   29  C22 UNL     1      32.040   7.665  49.301  1.00  0.00     0.113 A 
HETATM   30  N5  UNL     1      28.759   8.803  48.257  1.00  0.00    -0.274 NA
HETATM   31  C21 UNL     1      33.152   8.403  47.499  1.00  0.00     0.113 A 
HETATM   32  N6  UNL     1      33.188   7.971  48.850  1.00  0.00    -0.276 NA
ENDBRANCH  20  22
ENDBRANCH  13  16
ENDBRANCH   1  12
TORSDOF 4
ENDMDL
MODEL 5
REMARK VINA RESULT:      -8.3      3.379      9.709
REMARK  4 active torsions:
REMARK  status: ('A' for Active; 'I' for Inactive)
REMARK    1  A    between atoms: C4_4  and  N1_5 
REMARK    2  A    between atoms: C8_9  and  N2_10 
REMARK       I    between atoms: N2_10  and  C9_11 
REMARK    3  A    between atoms: C9_11  and  C10_13 
REMARK    4  A    between atoms: C16_20  and  N4_21 
ROOT
HETATM    1  C10 UNL     1      25.739   4.431  49.371  1.00  0.00     0.058 A 
HETATM    2  C11 UNL     1      27.063   4.155  49.107  1.00  0.00     0.021 A 
HETATM    3  C12 UNL     1      27.955   5.063  48.581  1.00  0.00     0.024 A 
HETATM    4  C13 UNL     1      27.535   6.330  48.290  1.00  0.00     0.046 A 
HETATM    5  C14 UNL     1      28.474   7.267  47.742  1.00  0.00     0.099 C 
HETATM    6  N3  UNL     1      29.219   8.039  47.293  1.00  0.00    -0.191 NA
HETATM    7  C15 UNL     1      26.220   6.645  48.540  1.00  0.00     0.052 A 
HETATM    8  C16 UNL     1      25.333   5.713  49.071  1.00  0.00     0.043 A 
ENDROOT
BRANCH   8   9
HETATM    9  N4  UNL     1      23.997   6.194  49.274  1.00  0.00    -0.398 N 
HETATM   10  H13 UNL     1      24.089   6.586  50.248  1.00  0.00     0.156 HD
HETATM   11  H14 UNL     1      23.487   5.960  48.381  1.00  0.00     0.156 HD
ENDBRANCH   8   9
BRANCH   1  12
HETATM   12  C9  UNL     1      24.763   3.507  49.924  1.00  0.00     0.258 C 
HETATM   13  N2  UNL     1      24.662   3.105  51.279  1.00  0.00    -0.325 N 
HETATM   14  H9  UNL     1      25.419   3.594  51.822  1.00  0.00     0.169 HD
HETATM   15  O1  UNL     1      23.938   3.029  49.106  1.00  0.00    -0.267 OA
BRANCH  13  16
HETATM   16  C8  UNL     1      23.763   2.222  51.927  1.00  0.00     0.030 A 
HETATM   17  C7  UNL     1      24.085   1.068  52.469  1.00  0.00     0.028 A 
HETATM   18  C6  UNL     1      23.184   0.143  53.139  1.00  0.00     0.019 A 
HETATM   19  C5  UNL     1      21.901   0.453  53.236  1.00  0.00     0.088 A 
HETATM   20  N1  UNL     1      21.555   1.700  52.651  1.00  0.00    -0.359 N 
HETATM   21  C17 UNL     1      22.361   2.681  51.972  1.00  0.00     0.181 A 
BRANCH  20  22
HETATM   22  C4  UNL     1      20.150   2.044  52.755  1.00  0.00     0.231 C 
HETATM   23  C3  UNL     1      19.416   1.005  51.945  1.00  0.00     0.025 C 
HETATM   24  C2  UNL     1      18.397   1.230  51.126  1.00  0.00    -0.061 C 
HETATM   25  C1  UNL     1      17.794   0.089  50.409  1.00  0.00     0.045 C 
HETATM   26  C19 UNL     1      17.914   2.630  50.973  1.00  0.00     0.070 A 
HETATM   27  C18 UNL     1      18.896   3.605  51.467  1.00  0.00     0.110 C 
HETATM   28  C20 UNL     1      16.625   2.696  51.751  1.00  0.00     0.017 A 
HETATM   29  C22 UNL     1      17.435   2.918  49.610  1.00  0.00     0.113 A 
HETATM   30  N5  UNL     1      19.882   3.356  52.250  1.00  0.00    -0.274 NA
HETATM   31  C21 UNL     1      15.622   2.974  50.930  1.00  0.00     0.113 A 
HETATM   32  N6  UNL     1      16.177   3.099  49.630  1.00  0.00    -0.276 NA
ENDBRANCH  20  22
ENDBRANCH  13  16
ENDBRANCH   1  12
TORSDOF 4
ENDMDL
MODEL 6
REMARK VINA RESULT:      -8.3      1.866      4.687
REMARK  4 active torsions:
REMARK  status: ('A' for Active; 'I' for Inactive)
REMARK    1  A    between atoms: C4_4  and  N1_5 
REMARK    2  A    between atoms: C8_9  and  N2_10 
REMARK       I    between atoms: N2_10  and  C9_11 
REMARK    3  A    between atoms: C9_11  and  C10_13 
REMARK    4  A    between atoms: C16_20  and  N4_21 
ROOT
HETATM    1  C10 UNL     1      19.338  -0.878  53.329  1.00  0.00     0.058 A 
HETATM    2  C11 UNL     1      18.835  -2.059  53.830  1.00  0.00     0.021 A 
HETATM    3  C12 UNL     1      17.599  -2.575  53.506  1.00  0.00     0.024 A 
HETATM    4  C13 UNL     1      16.793  -1.900  52.635  1.00  0.00     0.046 A 
HETATM    5  C14 UNL     1      15.508  -2.448  52.306  1.00  0.00     0.099 C 
HETATM    6  N3  UNL     1      14.461  -2.874  52.031  1.00  0.00    -0.191 NA
HETATM    7  C15 UNL     1      17.260  -0.716  52.113  1.00  0.00     0.052 A 
HETATM    8  C16 UNL     1      18.512  -0.210  52.453  1.00  0.00     0.043 A 
ENDROOT
BRANCH   8   9
HETATM    9  N4  UNL     1      18.854   1.033  51.825  1.00  0.00    -0.398 N 
HETATM   10  H13 UNL     1      19.706   1.294  52.387  1.00  0.00     0.156 HD
HETATM   11  H14 UNL     1      18.124   1.167  51.076  1.00  0.00     0.156 HD
ENDBRANCH   8   9
BRANCH   1  12
HETATM   12  C9  UNL     1      20.633  -0.296  53.642  1.00  0.00     0.258 C 
HETATM   13  N2  UNL     1      21.877  -0.660  53.069  1.00  0.00    -0.325 N 
HETATM   14  H9  UNL     1      21.703  -1.430  52.374  1.00  0.00     0.169 HD
HETATM   15  O1  UNL     1      20.627   0.618  54.505  1.00  0.00    -0.267 OA
BRANCH  13  16
HETATM   16  C8  UNL     1      23.187  -0.169  53.292  1.00  0.00     0.030 A 
HETATM   17  C7  UNL     1      24.097  -0.741  54.049  1.00  0.00     0.028 A 
HETATM   18  C6  UNL     1      25.448  -0.259  54.295  1.00  0.00     0.019 A 
HETATM   19  C5  UNL     1      25.843   0.865  53.720  1.00  0.00     0.088 A 
HETATM   20  N1  UNL     1      24.859   1.481  52.902  1.00  0.00    -0.359 N 
HETATM   21  C17 UNL     1      23.507   1.092  52.594  1.00  0.00     0.181 A 
BRANCH  20  22
HETATM   22  C4  UNL     1      25.287   2.714  52.269  1.00  0.00     0.231 C 
HETATM   23  C3  UNL     1      24.088   3.629  52.306  1.00  0.00     0.025 C 
HETATM   24  C2  UNL     1      23.681   4.421  51.324  1.00  0.00    -0.061 C 
HETATM   25  C1  UNL     1      22.481   5.255  51.534  1.00  0.00     0.045 C 
HETATM   26  C19 UNL     1      24.460   4.427  50.055  1.00  0.00     0.070 A 
HETATM   27  C18 UNL     1      25.347   3.260  49.952  1.00  0.00     0.110 C 
HETATM   28  C20 UNL     1      25.239   5.718  50.071  1.00  0.00     0.017 A 
HETATM   29  C22 UNL     1      23.610   4.626  48.869  1.00  0.00     0.113 A 
HETATM   30  N5  UNL     1      25.715   2.502  50.920  1.00  0.00    -0.274 NA
HETATM   31  C21 UNL     1      24.859   6.479  49.053  1.00  0.00     0.113 A 
HETATM   32  N6  UNL     1      23.859   5.760  48.351  1.00  0.00    -0.276 NA
ENDBRANCH  20  22
ENDBRANCH  13  16
ENDBRANCH   1  12
TORSDOF 4
ENDMDL
MODEL 7
REMARK VINA RESULT:      -8.1      2.332      9.485
REMARK  4 active torsions:
REMARK  status: ('A' for Active; 'I' for Inactive)
REMARK    1  A    between atoms: C4_4  and  N1_5 
REMARK    2  A    between atoms: C8_9  and  N2_10 
REMARK       I    between atoms: N2_10  and  C9_11 
REMARK    3  A    between atoms: C9_11  and  C10_13 
REMARK    4  A    between atoms: C16_20  and  N4_21 
ROOT
HETATM    1  C10 UNL     1      22.683   0.314  53.211  1.00  0.00     0.058 A 
HETATM    2  C11 UNL     1      23.725   1.000  52.625  1.00  0.00     0.021 A 
HETATM    3  C12 UNL     1      25.052   0.818  52.946  1.00  0.00     0.024 A 
HETATM    4  C13 UNL     1      25.396  -0.094  53.903  1.00  0.00     0.046 A 
HETATM    5  C14 UNL     1      26.782  -0.274  54.228  1.00  0.00     0.099 C 
HETATM    6  N3  UNL     1      27.900  -0.431  54.509  1.00  0.00    -0.191 NA
HETATM    7  C15 UNL     1      24.385  -0.799  54.512  1.00  0.00     0.052 A 
HETATM    8  C16 UNL     1      23.048  -0.601  54.174  1.00  0.00     0.043 A 
ENDROOT
BRANCH   8   9
HETATM    9  N4  UNL     1      22.113  -1.413  54.898  1.00  0.00    -0.398 N 
HETATM   10  H13 UNL     1      22.018  -2.223  54.231  1.00  0.00     0.156 HD
HETATM   11  H14 UNL     1      21.912  -0.871  55.781  1.00  0.00     0.156 HD
ENDBRANCH   8   9
BRANCH   1  12
HETATM   12  C9  UNL     1      21.271   0.473  52.906  1.00  0.00     0.258 C 
HETATM   13  N2  UNL     1      20.634   0.137  51.686  1.00  0.00    -0.325 N 
HETATM   14  H9  UNL     1      21.363  -0.249  51.032  1.00  0.00     0.169 HD
HETATM   15  O1  UNL     1      20.564   0.955  53.826  1.00  0.00    -0.267 OA
BRANCH  13  16
HETATM   16  C8  UNL     1      19.281   0.245  51.278  1.00  0.00     0.030 A 
HETATM   17  C7  UNL     1      18.842   0.981  50.281  1.00  0.00     0.028 A 
HETATM   18  C6  UNL     1      17.461   1.111  49.841  1.00  0.00     0.019 A 
HETATM   19  C5  UNL     1      16.518   0.438  50.481  1.00  0.00     0.088 A 
HETATM   20  N1  UNL     1      16.995  -0.357  51.557  1.00  0.00    -0.359 N 
HETATM   21  C17 UNL     1      18.326  -0.554  52.069  1.00  0.00     0.181 A 
BRANCH  20  22
HETATM   22  C4  UNL     1      15.964  -1.097  52.261  1.00  0.00     0.231 C 
HETATM   23  C3  UNL     1      16.652  -2.314  52.827  1.00  0.00     0.025 C 
HETATM   24  C2  UNL     1      16.167  -3.548  52.842  1.00  0.00    -0.061 C 
HETATM   25  C1  UNL     1      16.980  -4.626  53.440  1.00  0.00     0.045 C 
HETATM   26  C19 UNL     1      14.820  -3.782  52.251  1.00  0.00     0.070 A 
HETATM   27  C18 UNL     1      14.397  -2.666  51.394  1.00  0.00     0.110 C 
HETATM   28  C20 UNL     1      13.894  -3.963  53.427  1.00  0.00     0.017 A 
HETATM   29  C22 UNL     1      14.708  -5.099  51.601  1.00  0.00     0.113 A 
HETATM   30  N5  UNL     1      14.895  -1.483  51.392  1.00  0.00    -0.274 NA
HETATM   31  C21 UNL     1      13.374  -5.182  53.402  1.00  0.00     0.113 A 
HETATM   32  N6  UNL     1      13.909  -5.834  52.261  1.00  0.00    -0.276 NA
ENDBRANCH  20  22
ENDBRANCH  13  16
ENDBRANCH   1  12
TORSDOF 4
ENDMDL
MODEL 8
REMARK VINA RESULT:      -7.9      3.048      3.667
REMARK  4 active torsions:
REMARK  status: ('A' for Active; 'I' for Inactive)
REMARK    1  A    between atoms: C4_4  and  N1_5 
REMARK    2  A    between atoms: C8_9  and  N2_10 
REMARK       I    between atoms: N2_10  and  C9_11 
REMARK    3  A    between atoms: C9_11  and  C10_13 
REMARK    4  A    between atoms: C16_20  and  N4_21 
ROOT
HETATM    1  C10 UNL     1      16.172   2.233  51.768  1.00  0.00     0.058 A 
HETATM    2  C11 UNL     1      15.577   1.140  52.360  1.00  0.00     0.021 A 
HETATM    3  C12 UNL     1      14.219   0.999  52.541  1.00  0.00     0.024 A 
HETATM    4  C13 UNL     1      13.376   1.988  52.120  1.00  0.00     0.046 A 
HETATM    5  C14 UNL     1      11.963   1.829  52.315  1.00  0.00     0.099 C 
HETATM    6  N3  UNL     1      10.815   1.721  52.469  1.00  0.00    -0.191 NA
HETATM    7  C15 UNL     1      13.931   3.095  51.524  1.00  0.00     0.052 A 
HETATM    8  C16 UNL     1      15.307   3.220  51.350  1.00  0.00     0.043 A 
ENDROOT
BRANCH   8   9
HETATM    9  N4  UNL     1      15.731   4.433  50.712  1.00  0.00    -0.398 N 
HETATM   10  H13 UNL     1      16.763   4.399  50.920  1.00  0.00     0.156 HD
HETATM   11  H14 UNL     1      14.849   4.847  50.307  1.00  0.00     0.156 HD
ENDBRANCH   8   9
BRANCH   1  12
HETATM   12  C9  UNL     1      17.597   2.424  51.557  1.00  0.00     0.258 C 
HETATM   13  N2  UNL     1      18.486   1.504  50.949  1.00  0.00    -0.325 N 
HETATM   14  H9  UNL     1      17.935   0.650  50.675  1.00  0.00     0.169 HD
HETATM   15  O1  UNL     1      18.067   3.519  51.957  1.00  0.00    -0.267 OA
BRANCH  13  16
HETATM   16  C8  UNL     1      19.877   1.580  50.691  1.00  0.00     0.030 A 
HETATM   17  C7  UNL     1      20.426   1.717  49.504  1.00  0.00     0.028 A 
HETATM   18  C6  UNL     1      21.849   1.798  49.210  1.00  0.00     0.019 A 
HETATM   19  C5  UNL     1      22.715   1.732  50.209  1.00  0.00     0.088 A 
HETATM   20  N1  UNL     1      22.120   1.585  51.490  1.00  0.00    -0.359 N 
HETATM   21  C17 UNL     1      20.739   1.496  51.886  1.00  0.00     0.181 A 
BRANCH  20  22
HETATM   22  C4  UNL     1      23.066   1.512  52.588  1.00  0.00     0.231 C 
HETATM   23  C3  UNL     1      24.407   1.862  51.993  1.00  0.00     0.025 C 
HETATM   24  C2  UNL     1      25.559   1.260  52.258  1.00  0.00    -0.061 C 
HETATM   25  C1  UNL     1      26.782   1.736  51.582  1.00  0.00     0.045 C 
HETATM   26  C19 UNL     1      25.556   0.130  53.228  1.00  0.00     0.070 A 
HETATM   27  C18 UNL     1      24.202  -0.393  53.455  1.00  0.00     0.110 C 
HETATM   28  C20 UNL     1      26.156   0.688  54.493  1.00  0.00     0.017 A 
HETATM   29  C22 UNL     1      26.539  -0.912  52.886  1.00  0.00     0.113 A 
HETATM   30  N5  UNL     1      23.103   0.208  53.176  1.00  0.00    -0.274 NA
HETATM   31  C21 UNL     1      27.280   0.043  54.776  1.00  0.00     0.113 A 
HETATM   32  N6  UNL     1      27.465  -0.927  53.757  1.00  0.00    -0.276 NA
ENDBRANCH  20  22
ENDBRANCH  13  16
ENDBRANCH   1  12
TORSDOF 4
ENDMDL
MODEL 9
REMARK VINA RESULT:      -7.8      3.149      4.300
REMARK  4 active torsions:
REMARK  status: ('A' for Active; 'I' for Inactive)
REMARK    1  A    between atoms: C4_4  and  N1_5 
REMARK    2  A    between atoms: C8_9  and  N2_10 
REMARK       I    between atoms: N2_10  and  C9_11 
REMARK    3  A    between atoms: C9_11  and  C10_13 
REMARK    4  A    between atoms: C16_20  and  N4_21 
ROOT
HETATM    1  C10 UNL     1      17.446   2.238  50.875  1.00  0.00     0.058 A 
HETATM    2  C11 UNL     1      16.447   2.755  51.671  1.00  0.00     0.021 A 
HETATM    3  C12 UNL     1      15.439   3.576  51.216  1.00  0.00     0.024 A 
HETATM    4  C13 UNL     1      15.396   3.923  49.895  1.00  0.00     0.046 A 
HETATM    5  C14 UNL     1      14.341   4.780  49.434  1.00  0.00     0.099 C 
HETATM    6  N3  UNL     1      13.497   5.477  49.042  1.00  0.00    -0.191 NA
HETATM    7  C15 UNL     1      16.376   3.428  49.068  1.00  0.00     0.052 A 
HETATM    8  C16 UNL     1      17.387   2.598  49.547  1.00  0.00     0.043 A 
ENDROOT
BRANCH   8   9
HETATM    9  N4  UNL     1      18.333   2.164  48.561  1.00  0.00    -0.398 N 
HETATM   10  H13 UNL     1      18.160   2.884  47.811  1.00  0.00     0.156 HD
HETATM   11  H14 UNL     1      18.801   1.321  48.988  1.00  0.00     0.156 HD
ENDBRANCH   8   9
BRANCH   1  12
HETATM   12  C9  UNL     1      18.527   1.370  51.310  1.00  0.00     0.258 C 
HETATM   13  N2  UNL     1      19.521   1.685  52.270  1.00  0.00    -0.325 N 
HETATM   14  H9  UNL     1      19.342   2.662  52.617  1.00  0.00     0.169 HD
HETATM   15  O1  UNL     1      18.567   0.235  50.773  1.00  0.00    -0.267 OA
BRANCH  13  16
HETATM   16  C8  UNL     1      20.611   0.928  52.769  1.00  0.00     0.030 A 
HETATM   17  C7  UNL     1      20.512  -0.158  53.502  1.00  0.00     0.028 A 
HETATM   18  C6  UNL     1      21.612  -0.954  54.027  1.00  0.00     0.019 A 
HETATM   19  C5  UNL     1      22.855  -0.582  53.764  1.00  0.00     0.088 A 
HETATM   20  N1  UNL     1      22.959   0.591  52.971  1.00  0.00    -0.359 N 
HETATM   21  C17 UNL     1      21.945   1.443  52.406  1.00  0.00     0.181 A 
BRANCH  20  22
HETATM   22  C4  UNL     1      24.320   1.002  52.680  1.00  0.00     0.231 C 
HETATM   23  C3  UNL     1      25.112  -0.275  52.552  1.00  0.00     0.025 C 
HETATM   24  C2  UNL     1      26.327  -0.492  53.037  1.00  0.00    -0.061 C 
HETATM   25  C1  UNL     1      26.957  -1.809  52.816  1.00  0.00     0.045 C 
HETATM   26  C19 UNL     1      26.995   0.611  53.781  1.00  0.00     0.070 A 
HETATM   27  C18 UNL     1      26.039   1.649  54.195  1.00  0.00     0.110 C 
HETATM   28  C20 UNL     1      28.036   1.157  52.838  1.00  0.00     0.017 A 
HETATM   29  C22 UNL     1      27.841   0.120  54.881  1.00  0.00     0.113 A 
HETATM   30  N5  UNL     1      24.862   1.827  53.716  1.00  0.00    -0.274 NA
HETATM   31  C21 UNL     1      29.243   0.983  53.358  1.00  0.00     0.113 A 
HETATM   32  N6  UNL     1      29.064   0.342  54.611  1.00  0.00    -0.276 NA
ENDBRANCH  20  22
ENDBRANCH  13  16
ENDBRANCH   1  12
TORSDOF 4
ENDMDL
