MODEL 1
REMARK VINA RESULT:      -8.6      0.000      0.000
REMARK  5 active torsions:
REMARK  status: ('A' for Active; 'I' for Inactive)
REMARK    1  A    between atoms: O1_2  and  C2_3 
REMARK    2  A    between atoms: C3_4  and  N1_5 
REMARK       I    between atoms: N1_5  and  C4_6 
REMARK       I    between atoms: C4_6  and  N2_8 
REMARK    3  A    between atoms: N2_8  and  C5_9 
REMARK    4  A    between atoms: C5_9  and  C7_11 
REMARK    5  A    between atoms: C16_22  and  O3_23 
ROOT
HETATM    1  C2  UNL     1      23.536   3.696  51.837  1.00  0.00     0.108 A 
HETATM    2  C3  UNL     1      23.620   4.985  51.319  1.00  0.00     0.070 A 
HETATM    3  C10 UNL     1      22.430   5.684  51.086  1.00  0.00     0.035 A 
HETATM    4  C11 UNL     1      21.161   5.162  51.342  1.00  0.00     0.040 A 
HETATM    5  C12 UNL     1      21.107   3.874  51.863  1.00  0.00     0.088 A 
HETATM    6  C13 UNL     1      22.276   3.227  52.081  1.00  0.00     0.044 A 
HETATM    7  C14 UNL     1      22.174   1.901  52.630  1.00  0.00    -0.008 A 
HETATM    8  C15 UNL     1      23.334   1.437  53.046  1.00  0.00     0.022 C 
HETATM    9  C16 UNL     1      24.135   0.355  53.648  1.00  0.00     0.168 C 
HETATM   10  C18 UNL     1      23.346  -0.804  54.075  1.00  0.00     0.028 C 
HETATM   11  C19 UNL     1      22.187  -1.425  54.238  1.00  0.00     0.115 C 
HETATM   12  N4  UNL     1      20.850  -1.037  53.952  1.00  0.00    -0.272 NA
HETATM   13  C20 UNL     1      20.337   0.024  53.432  1.00  0.00     0.130 C 
HETATM   14  C21 UNL     1      20.907   1.262  52.923  1.00  0.00     0.015 A 
HETATM   15  C22 UNL     1      19.785   1.969  52.670  1.00  0.00     0.156 A 
HETATM   16  O4  UNL     1      19.904   3.250  52.151  1.00  0.00    -0.321 OA
ENDROOT
BRANCH   2  17
HETATM   17  N1  UNL     1      24.848   5.634  51.037  1.00  0.00    -0.306 N 
HETATM   18  C4  UNL     1      25.552   5.987  49.867  1.00  0.00     0.321 C 
HETATM   19  O2  UNL     1      24.949   5.645  48.826  1.00  0.00    -0.247 OA
HETATM   20  N2  UNL     1      26.791   6.646  49.774  1.00  0.00    -0.333 N 
HETATM   21  H5  UNL     1      27.252   6.908  50.673  1.00  0.00     0.165 HD
HETATM   22  H4  UNL     1      25.427   5.969  51.867  1.00  0.00     0.171 HD
BRANCH  20  23
HETATM   23  C5  UNL     1      27.336   6.913  48.474  1.00  0.00     0.141 C 
HETATM   24  C6  UNL     1      28.438   5.915  48.229  1.00  0.00     0.039 C 
BRANCH  23  25
HETATM   25  C7  UNL     1      27.733   8.315  48.286  1.00  0.00     0.097 A 
HETATM   26  N3  UNL     1      28.096   8.995  47.325  1.00  0.00    -0.256 NA
HETATM   27  C8  UNL     1      28.403  10.271  47.440  1.00  0.00     0.124 A 
HETATM   28  C9  UNL     1      28.304  10.911  48.785  1.00  0.00     0.071 A 
HETATM   29  S1  UNL     1      27.723   9.404  49.772  1.00  0.00    -0.083 SA
ENDBRANCH  23  25
ENDBRANCH  20  23
ENDBRANCH   2  17
BRANCH   1  30
HETATM   30  O1  UNL     1      24.813   3.167  51.975  1.00  0.00    -0.353 OA
HETATM   31  C1  UNL     1      25.489   2.616  50.825  1.00  0.00     0.210 C 
ENDBRANCH   1  30
BRANCH   9  32
HETATM   32  O3  UNL     1      25.014  -0.098  52.664  1.00  0.00    -0.383 OA
HETATM   33  C17 UNL     1      26.007  -0.814  53.371  1.00  0.00     0.202 C 
ENDBRANCH   9  32
TORSDOF 5
ENDMDL
MODEL 2
REMARK VINA RESULT:      -8.6      1.957      2.399
REMARK  5 active torsions:
REMARK  status: ('A' for Active; 'I' for Inactive)
REMARK    1  A    between atoms: O1_2  and  C2_3 
REMARK    2  A    between atoms: C3_4  and  N1_5 
REMARK       I    between atoms: N1_5  and  C4_6 
REMARK       I    between atoms: C4_6  and  N2_8 
REMARK    3  A    between atoms: N2_8  and  C5_9 
REMARK    4  A    between atoms: C5_9  and  C7_11 
REMARK    5  A    between atoms: C16_22  and  O3_23 
ROOT
HETATM    1  C2  UNL     1      24.319   2.235  51.085  1.00  0.00     0.108 A 
HETATM    2  C3  UNL     1      24.292   3.217  50.099  1.00  0.00     0.070 A 
HETATM    3  C10 UNL     1      23.075   3.854  49.832  1.00  0.00     0.035 A 
HETATM    4  C11 UNL     1      21.883   3.562  50.497  1.00  0.00     0.040 A 
HETATM    5  C12 UNL     1      21.940   2.580  51.480  1.00  0.00     0.088 A 
HETATM    6  C13 UNL     1      23.133   1.986  51.717  1.00  0.00     0.044 A 
HETATM    7  C14 UNL     1      23.148   0.984  52.750  1.00  0.00    -0.008 A 
HETATM    8  C15 UNL     1      24.370   0.635  53.097  1.00  0.00     0.022 C 
HETATM    9  C16 UNL     1      25.279  -0.185  53.917  1.00  0.00     0.168 C 
HETATM   10  C18 UNL     1      24.596  -1.032  54.899  1.00  0.00     0.028 C 
HETATM   11  C19 UNL     1      23.495  -1.459  55.499  1.00  0.00     0.115 C 
HETATM   12  N4  UNL     1      22.125  -1.118  55.332  1.00  0.00    -0.272 NA
HETATM   13  C20 UNL     1      21.514  -0.305  54.541  1.00  0.00     0.130 C 
HETATM   14  C21 UNL     1      21.966   0.599  53.494  1.00  0.00     0.015 A 
HETATM   15  C22 UNL     1      20.812   1.231  53.193  1.00  0.00     0.156 A 
HETATM   16  O4  UNL     1      20.820   2.203  52.203  1.00  0.00    -0.321 OA
ENDROOT
BRANCH   2  17
HETATM   17  N1  UNL     1      25.437   3.619  49.367  1.00  0.00    -0.306 N 
HETATM   18  C4  UNL     1      26.223   4.787  49.294  1.00  0.00     0.321 C 
HETATM   19  O2  UNL     1      25.811   5.688  50.058  1.00  0.00    -0.247 OA
HETATM   20  N2  UNL     1      27.355   5.014  48.490  1.00  0.00    -0.333 N 
HETATM   21  H5  UNL     1      27.656   4.229  47.870  1.00  0.00     0.165 HD
HETATM   22  H4  UNL     1      25.863   2.908  48.695  1.00  0.00     0.171 HD
BRANCH  20  23
HETATM   23  C5  UNL     1      28.015   6.285  48.569  1.00  0.00     0.141 C 
HETATM   24  C6  UNL     1      27.348   7.207  47.582  1.00  0.00     0.039 C 
BRANCH  23  25
HETATM   25  C7  UNL     1      29.475   6.193  48.424  1.00  0.00     0.097 A 
HETATM   26  N3  UNL     1      30.279   5.269  48.289  1.00  0.00    -0.256 NA
HETATM   27  C8  UNL     1      31.576   5.474  48.179  1.00  0.00     0.124 A 
HETATM   28  C9  UNL     1      32.084   6.877  48.219  1.00  0.00     0.071 A 
HETATM   29  S1  UNL     1      30.428   7.769  48.433  1.00  0.00    -0.083 SA
ENDBRANCH  23  25
ENDBRANCH  20  23
ENDBRANCH   2  17
BRANCH   1  30
HETATM   30  O1  UNL     1      25.601   1.711  51.184  1.00  0.00    -0.353 OA
HETATM   31  C1  UNL     1      26.634   2.464  51.854  1.00  0.00     0.210 C 
ENDBRANCH   1  30
BRANCH   9  32
HETATM   32  O3  UNL     1      25.952  -1.043  53.047  1.00  0.00    -0.383 OA
HETATM   33  C17 UNL     1      27.323  -0.812  53.303  1.00  0.00     0.202 C 
ENDBRANCH   9  32
TORSDOF 5
ENDMDL
MODEL 3
REMARK VINA RESULT:      -8.5      1.802      3.988
REMARK  5 active torsions:
REMARK  status: ('A' for Active; 'I' for Inactive)
REMARK    1  A    between atoms: O1_2  and  C2_3 
REMARK    2  A    between atoms: C3_4  and  N1_5 
REMARK       I    between atoms: N1_5  and  C4_6 
REMARK       I    between atoms: C4_6  and  N2_8 
REMARK    3  A    between atoms: N2_8  and  C5_9 
REMARK    4  A    between atoms: C5_9  and  C7_11 
REMARK    5  A    between atoms: C16_22  and  O3_23 
ROOT
HETATM    1  C2  UNL     1      22.994   2.154  52.340  1.00  0.00     0.108 A 
HETATM    2  C3  UNL     1      24.363   2.394  52.414  1.00  0.00     0.070 A 
HETATM    3  C10 UNL     1      25.174   1.425  53.014  1.00  0.00     0.035 A 
HETATM    4  C11 UNL     1      24.690   0.229  53.547  1.00  0.00     0.040 A 
HETATM    5  C12 UNL     1      23.319   0.014  53.457  1.00  0.00     0.088 A 
HETATM    6  C13 UNL     1      22.563   0.969  52.866  1.00  0.00     0.044 A 
HETATM    7  C14 UNL     1      21.152   0.700  52.784  1.00  0.00    -0.008 A 
HETATM    8  C15 UNL     1      20.523   1.538  51.986  1.00  0.00     0.022 C 
HETATM    9  C16 UNL     1      19.276   2.014  51.361  1.00  0.00     0.168 C 
HETATM   10  C18 UNL     1      18.102   1.196  51.674  1.00  0.00     0.028 C 
HETATM   11  C19 UNL     1      17.537   0.148  52.256  1.00  0.00     0.115 C 
HETATM   12  N4  UNL     1      18.071  -0.903  53.050  1.00  0.00    -0.272 NA
HETATM   13  C20 UNL     1      19.259  -1.167  53.472  1.00  0.00     0.130 C 
HETATM   14  C21 UNL     1      20.545  -0.505  53.314  1.00  0.00     0.015 A 
HETATM   15  C22 UNL     1      21.364  -1.405  53.897  1.00  0.00     0.156 A 
HETATM   16  O4  UNL     1      22.723  -1.134  53.955  1.00  0.00    -0.321 OA
ENDROOT
BRANCH   2  17
HETATM   17  N1  UNL     1      24.980   3.559  51.891  1.00  0.00    -0.306 N 
HETATM   18  C4  UNL     1      25.352   4.008  50.607  1.00  0.00     0.321 C 
HETATM   19  O2  UNL     1      25.071   3.181  49.712  1.00  0.00    -0.247 OA
HETATM   20  N2  UNL     1      25.970   5.225  50.268  1.00  0.00    -0.333 N 
HETATM   21  H5  UNL     1      26.183   5.879  51.054  1.00  0.00     0.165 HD
HETATM   22  H4  UNL     1      25.247   4.324  52.584  1.00  0.00     0.171 HD
BRANCH  20  23
HETATM   23  C5  UNL     1      26.264   5.490  48.889  1.00  0.00     0.141 C 
HETATM   24  C6  UNL     1      27.672   5.022  48.627  1.00  0.00     0.039 C 
BRANCH  23  25
HETATM   25  C7  UNL     1      26.003   6.881  48.494  1.00  0.00     0.097 A 
HETATM   26  N3  UNL     1      25.527   7.427  47.498  1.00  0.00    -0.256 NA
HETATM   27  C8  UNL     1      25.404   8.736  47.403  1.00  0.00     0.124 A 
HETATM   28  C9  UNL     1      25.859   9.581  48.546  1.00  0.00     0.071 A 
HETATM   29  S1  UNL     1      26.455   8.201  49.697  1.00  0.00    -0.083 SA
ENDBRANCH  23  25
ENDBRANCH  20  23
ENDBRANCH   2  17
BRANCH   1  30
HETATM   30  O1  UNL     1      22.365   3.234  51.735  1.00  0.00    -0.353 OA
HETATM   31  C1  UNL     1      22.185   4.463  52.469  1.00  0.00     0.210 C 
ENDBRANCH   1  30
BRANCH   9  32
HETATM   32  O3  UNL     1      19.025   3.288  51.870  1.00  0.00    -0.383 OA
HETATM   33  C17 UNL     1      18.881   4.110  50.728  1.00  0.00     0.202 C 
ENDBRANCH   9  32
TORSDOF 5
ENDMDL
MODEL 4
REMARK VINA RESULT:      -8.4      1.975      3.804
REMARK  5 active torsions:
REMARK  status: ('A' for Active; 'I' for Inactive)
REMARK    1  A    between atoms: O1_2  and  C2_3 
REMARK    2  A    between atoms: C3_4  and  N1_5 
REMARK       I    between atoms: N1_5  and  C4_6 
REMARK       I    between atoms: C4_6  and  N2_8 
REMARK    3  A    between atoms: N2_8  and  C5_9 
REMARK    4  A    between atoms: C5_9  and  C7_11 
REMARK    5  A    between atoms: C16_22  and  O3_23 
ROOT
HETATM    1  C2  UNL     1      24.241   2.103  51.362  1.00  0.00     0.108 A 
HETATM    2  C3  UNL     1      25.338   2.715  50.762  1.00  0.00     0.070 A 
HETATM    3  C10 UNL     1      26.618   2.344  51.185  1.00  0.00     0.035 A 
HETATM    4  C11 UNL     1      26.862   1.393  52.177  1.00  0.00     0.040 A 
HETATM    5  C12 UNL     1      25.749   0.794  52.757  1.00  0.00     0.088 A 
HETATM    6  C13 UNL     1      24.524   1.173  52.322  1.00  0.00     0.044 A 
HETATM    7  C14 UNL     1      23.402   0.521  52.942  1.00  0.00    -0.008 A 
HETATM    8  C15 UNL     1      22.272   0.747  52.305  1.00  0.00     0.022 C 
HETATM    9  C16 UNL     1      20.814   0.561  52.184  1.00  0.00     0.168 C 
HETATM   10  C18 UNL     1      20.243  -0.341  53.188  1.00  0.00     0.028 C 
HETATM   11  C19 UNL     1      20.372  -1.165  54.218  1.00  0.00     0.115 C 
HETATM   12  N4  UNL     1      21.508  -1.604  54.950  1.00  0.00    -0.272 NA
HETATM   13  C20 UNL     1      22.764  -1.334  54.865  1.00  0.00     0.130 C 
HETATM   14  C21 UNL     1      23.543  -0.473  53.988  1.00  0.00     0.015 A 
HETATM   15  C22 UNL     1      24.797  -0.791  54.373  1.00  0.00     0.156 A 
HETATM   16  O4  UNL     1      25.867  -0.159  53.756  1.00  0.00    -0.321 OA
ENDROOT
BRANCH   2  17
HETATM   17  N1  UNL     1      25.223   3.680  49.729  1.00  0.00    -0.306 N 
HETATM   18  C4  UNL     1      25.021   5.074  49.675  1.00  0.00     0.321 C 
HETATM   19  O2  UNL     1      24.918   5.586  50.812  1.00  0.00    -0.247 OA
HETATM   20  N2  UNL     1      24.933   5.887  48.530  1.00  0.00    -0.333 N 
HETATM   21  H5  UNL     1      25.025   5.409  47.606  1.00  0.00     0.165 HD
HETATM   22  H4  UNL     1      25.308   3.333  48.724  1.00  0.00     0.171 HD
BRANCH  20  23
HETATM   23  C5  UNL     1      24.724   7.297  48.698  1.00  0.00     0.141 C 
HETATM   24  C6  UNL     1      24.100   7.818  47.430  1.00  0.00     0.039 C 
BRANCH  23  25
HETATM   25  C7  UNL     1      25.933   8.017  49.122  1.00  0.00     0.097 A 
HETATM   26  N3  UNL     1      26.229   8.729  50.082  1.00  0.00    -0.256 NA
HETATM   27  C8  UNL     1      27.425   9.266  50.219  1.00  0.00     0.124 A 
HETATM   28  C9  UNL     1      28.453   8.999  49.171  1.00  0.00     0.071 A 
HETATM   29  S1  UNL     1      27.415   7.897  48.034  1.00  0.00    -0.083 SA
ENDBRANCH  23  25
ENDBRANCH  20  23
ENDBRANCH   2  17
BRANCH   1  30
HETATM   30  O1  UNL     1      23.069   2.619  50.825  1.00  0.00    -0.353 OA
HETATM   31  C1  UNL     1      22.643   2.211  49.509  1.00  0.00     0.210 C 
ENDBRANCH   1  30
BRANCH   9  32
HETATM   32  O3  UNL     1      20.226   1.810  52.386  1.00  0.00    -0.383 OA
HETATM   33  C17 UNL     1      19.275   1.931  51.346  1.00  0.00     0.202 C 
ENDBRANCH   9  32
TORSDOF 5
ENDMDL
MODEL 5
REMARK VINA RESULT:      -8.4      2.464      3.133
REMARK  5 active torsions:
REMARK  status: ('A' for Active; 'I' for Inactive)
REMARK    1  A    between atoms: O1_2  and  C2_3 
REMARK    2  A    between atoms: C3_4  and  N1_5 
REMARK       I    between atoms: N1_5  and  C4_6 
REMARK       I    between atoms: C4_6  and  N2_8 
REMARK    3  A    between atoms: N2_8  and  C5_9 
REMARK    4  A    between atoms: C5_9  and  C7_11 
REMARK    5  A    between atoms: C16_22  and  O3_23 
ROOT
HETATM    1  C2  UNL     1      24.144   2.819  50.622  1.00  0.00     0.108 A 
HETATM    2  C3  UNL     1      23.410   3.396  49.589  1.00  0.00     0.070 A 
HETATM    3  C10 UNL     1      22.148   2.868  49.299  1.00  0.00     0.035 A 
HETATM    4  C11 UNL     1      21.579   1.793  49.984  1.00  0.00     0.040 A 
HETATM    5  C12 UNL     1      22.332   1.239  51.013  1.00  0.00     0.088 A 
HETATM    6  C13 UNL     1      23.548   1.775  51.271  1.00  0.00     0.044 A 
HETATM    7  C14 UNL     1      24.289   1.177  52.350  1.00  0.00    -0.008 A 
HETATM    8  C15 UNL     1      25.332   1.897  52.706  1.00  0.00     0.022 C 
HETATM    9  C16 UNL     1      26.518   2.091  53.560  1.00  0.00     0.168 C 
HETATM   10  C18 UNL     1      26.691   1.059  54.585  1.00  0.00     0.028 C 
HETATM   11  C19 UNL     1      26.287  -0.037  55.211  1.00  0.00     0.115 C 
HETATM   12  N4  UNL     1      25.148  -0.869  55.036  1.00  0.00    -0.272 NA
HETATM   13  C20 UNL     1      24.159  -0.839  54.210  1.00  0.00     0.130 C 
HETATM   14  C21 UNL     1      23.795   0.052  53.119  1.00  0.00     0.015 A 
HETATM   15  C22 UNL     1      22.578  -0.433  52.795  1.00  0.00     0.156 A 
HETATM   16  O4  UNL     1      21.874   0.165  51.760  1.00  0.00    -0.321 OA
ENDROOT
BRANCH   2  17
HETATM   17  N1  UNL     1      23.867   4.504  48.833  1.00  0.00    -0.306 N 
HETATM   18  C4  UNL     1      23.880   5.903  49.009  1.00  0.00     0.321 C 
HETATM   19  O2  UNL     1      23.364   6.253  50.093  1.00  0.00    -0.247 OA
HETATM   20  N2  UNL     1      24.389   6.876  48.129  1.00  0.00    -0.333 N 
HETATM   21  H5  UNL     1      24.808   6.530  47.238  1.00  0.00     0.165 HD
HETATM   22  H4  UNL     1      24.331   4.299  47.895  1.00  0.00     0.171 HD
BRANCH  20  23
HETATM   23  C5  UNL     1      24.303   8.259  48.504  1.00  0.00     0.141 C 
HETATM   24  C6  UNL     1      23.715   9.010  47.338  1.00  0.00     0.039 C 
BRANCH  23  25
HETATM   25  C7  UNL     1      25.573   8.807  49.002  1.00  0.00     0.097 A 
HETATM   26  N3  UNL     1      26.221   8.690  50.043  1.00  0.00    -0.256 NA
HETATM   27  C8  UNL     1      27.366   9.315  50.234  1.00  0.00     0.124 A 
HETATM   28  C9  UNL     1      27.890  10.194  49.147  1.00  0.00     0.071 A 
HETATM   29  S1  UNL     1      26.496   9.949  47.891  1.00  0.00    -0.083 SA
ENDBRANCH  23  25
ENDBRANCH  20  23
ENDBRANCH   2  17
BRANCH   1  30
HETATM   30  O1  UNL     1      25.368   3.463  50.738  1.00  0.00    -0.353 OA
HETATM   31  C1  UNL     1      26.422   3.179  49.793  1.00  0.00     0.210 C 
ENDBRANCH   1  30
BRANCH   9  32
HETATM   32  O3  UNL     1      27.636   2.022  52.728  1.00  0.00    -0.383 OA
HETATM   33  C17 UNL     1      28.729   2.337  53.566  1.00  0.00     0.202 C 
ENDBRANCH   9  32
TORSDOF 5
ENDMDL
MODEL 6
REMARK VINA RESULT:      -8.2      4.386      7.275
REMARK  5 active torsions:
REMARK  status: ('A' for Active; 'I' for Inactive)
REMARK    1  A    between atoms: O1_2  and  C2_3 
REMARK    2  A    between atoms: C3_4  and  N1_5 
REMARK       I    between atoms: N1_5  and  C4_6 
REMARK       I    between atoms: C4_6  and  N2_8 
REMARK    3  A    between atoms: N2_8  and  C5_9 
REMARK    4  A    between atoms: C5_9  and  C7_11 
REMARK    5  A    between atoms: C16_22  and  O3_23 
ROOT
HETATM    1  C2  UNL     1      22.240   0.795  52.610  1.00  0.00     0.108 A 
HETATM    2  C3  UNL     1      20.892   0.470  52.737  1.00  0.00     0.070 A 
HETATM    3  C10 UNL     1      20.523  -0.453  53.721  1.00  0.00     0.035 A 
HETATM    4  C11 UNL     1      21.429  -1.071  54.585  1.00  0.00     0.040 A 
HETATM    5  C12 UNL     1      22.768  -0.725  54.439  1.00  0.00     0.088 A 
HETATM    6  C13 UNL     1      23.092   0.175  53.480  1.00  0.00     0.044 A 
HETATM    7  C14 UNL     1      24.486   0.511  53.371  1.00  0.00    -0.008 A 
HETATM    8  C15 UNL     1      24.694   1.561  52.604  1.00  0.00     0.022 C 
HETATM    9  C16 UNL     1      25.620   2.515  51.969  1.00  0.00     0.168 C 
HETATM   10  C18 UNL     1      27.023   2.325  52.346  1.00  0.00     0.028 C 
HETATM   11  C19 UNL     1      27.967   1.704  53.039  1.00  0.00     0.115 C 
HETATM   12  N4  UNL     1      27.913   0.640  53.980  1.00  0.00    -0.272 NA
HETATM   13  C20 UNL     1      26.945  -0.069  54.448  1.00  0.00     0.130 C 
HETATM   14  C21 UNL     1      25.509  -0.079  54.211  1.00  0.00     0.015 A 
HETATM   15  C22 UNL     1      25.109  -0.975  55.138  1.00  0.00     0.156 A 
HETATM   16  O4  UNL     1      23.758  -1.277  55.236  1.00  0.00    -0.321 OA
ENDROOT
BRANCH   2  17
HETATM   17  N1  UNL     1      19.873   1.043  51.935  1.00  0.00    -0.306 N 
HETATM   18  C4  UNL     1      19.259   2.310  51.845  1.00  0.00     0.321 C 
HETATM   19  O2  UNL     1      19.724   3.125  52.672  1.00  0.00    -0.247 OA
HETATM   20  N2  UNL     1      18.237   2.709  50.966  1.00  0.00    -0.333 N 
HETATM   21  H5  UNL     1      17.885   1.990  50.297  1.00  0.00     0.165 HD
HETATM   22  H4  UNL     1      19.425   0.421  51.195  1.00  0.00     0.171 HD
BRANCH  20  23
HETATM   23  C5  UNL     1      17.750   4.057  51.039  1.00  0.00     0.141 C 
HETATM   24  C6  UNL     1      16.368   4.009  51.637  1.00  0.00     0.039 C 
BRANCH  23  25
HETATM   25  C7  UNL     1      17.835   4.777  49.761  1.00  0.00     0.097 A 
HETATM   26  N3  UNL     1      17.115   4.870  48.766  1.00  0.00    -0.256 NA
HETATM   27  C8  UNL     1      17.443   5.610  47.725  1.00  0.00     0.124 A 
HETATM   28  C9  UNL     1      18.734   6.358  47.759  1.00  0.00     0.071 A 
HETATM   29  S1  UNL     1      19.329   5.815  49.472  1.00  0.00    -0.083 SA
ENDBRANCH  23  25
ENDBRANCH  20  23
ENDBRANCH   2  17
BRANCH   1  30
HETATM   30  O1  UNL     1      22.403   1.703  51.572  1.00  0.00    -0.353 OA
HETATM   31  C1  UNL     1      22.295   1.256  50.205  1.00  0.00     0.210 C 
ENDBRANCH   1  30
BRANCH   9  32
HETATM   32  O3  UNL     1      25.542   2.306  50.592  1.00  0.00    -0.383 OA
HETATM   33  C17 UNL     1      26.439   3.246  50.034  1.00  0.00     0.202 C 
ENDBRANCH   9  32
TORSDOF 5
ENDMDL
MODEL 7
REMARK VINA RESULT:      -8.2      4.606      9.891
REMARK  5 active torsions:
REMARK  status: ('A' for Active; 'I' for Inactive)
REMARK    1  A    between atoms: O1_2  and  C2_3 
REMARK    2  A    between atoms: C3_4  and  N1_5 
REMARK       I    between atoms: N1_5  and  C4_6 
REMARK       I    between atoms: C4_6  and  N2_8 
REMARK    3  A    between atoms: N2_8  and  C5_9 
REMARK    4  A    between atoms: C5_9  and  C7_11 
REMARK    5  A    between atoms: C16_22  and  O3_23 
ROOT
HETATM    1  C2  UNL     1      21.554   0.580  52.243  1.00  0.00     0.108 A 
HETATM    2  C3  UNL     1      20.443  -0.067  52.777  1.00  0.00     0.070 A 
HETATM    3  C10 UNL     1      20.640  -0.948  53.846  1.00  0.00     0.035 A 
HETATM    4  C11 UNL     1      21.888  -1.218  54.410  1.00  0.00     0.040 A 
HETATM    5  C12 UNL     1      22.979  -0.555  53.860  1.00  0.00     0.088 A 
HETATM    6  C13 UNL     1      22.755   0.294  52.829  1.00  0.00     0.044 A 
HETATM    7  C14 UNL     1      23.910   0.966  52.298  1.00  0.00    -0.008 A 
HETATM    8  C15 UNL     1      23.592   1.949  51.482  1.00  0.00     0.022 C 
HETATM    9  C16 UNL     1      23.997   3.040  50.577  1.00  0.00     0.168 C 
HETATM   10  C18 UNL     1      25.445   3.258  50.518  1.00  0.00     0.028 C 
HETATM   11  C19 UNL     1      26.680   2.977  50.907  1.00  0.00     0.115 C 
HETATM   12  N4  UNL     1      27.193   2.039  51.844  1.00  0.00    -0.272 NA
HETATM   13  C20 UNL     1      26.634   1.156  52.596  1.00  0.00     0.130 C 
HETATM   14  C21 UNL     1      25.251   0.751  52.803  1.00  0.00     0.015 A 
HETATM   15  C22 UNL     1      25.395  -0.117  53.827  1.00  0.00     0.156 A 
HETATM   16  O4  UNL     1      24.267  -0.747  54.334  1.00  0.00    -0.321 OA
ENDROOT
BRANCH   2  17
HETATM   17  N1  UNL     1      19.121   0.137  52.307  1.00  0.00    -0.306 N 
HETATM   18  C4  UNL     1      17.842  -0.332  52.671  1.00  0.00     0.321 C 
HETATM   19  O2  UNL     1      17.882  -1.120  53.642  1.00  0.00    -0.247 OA
HETATM   20  N2  UNL     1      16.608  -0.014  52.077  1.00  0.00    -0.333 N 
HETATM   21  H5  UNL     1      16.632   0.647  51.269  1.00  0.00     0.165 HD
HETATM   22  H4  UNL     1      18.992   0.803  51.484  1.00  0.00     0.171 HD
BRANCH  20  23
HETATM   23  C5  UNL     1      15.413  -0.606  52.607  1.00  0.00     0.141 C 
HETATM   24  C6  UNL     1      14.899  -1.585  51.584  1.00  0.00     0.039 C 
BRANCH  23  25
HETATM   25  C7  UNL     1      14.422   0.384  53.053  1.00  0.00     0.097 A 
HETATM   26  N3  UNL     1      13.401   0.342  53.740  1.00  0.00    -0.256 NA
HETATM   27  C8  UNL     1      12.676   1.414  53.991  1.00  0.00     0.124 A 
HETATM   28  C9  UNL     1      13.112   2.722  53.418  1.00  0.00     0.071 A 
HETATM   29  S1  UNL     1      14.665   2.128  52.513  1.00  0.00    -0.083 SA
ENDBRANCH  23  25
ENDBRANCH  20  23
ENDBRANCH   2  17
BRANCH   1  30
HETATM   30  O1  UNL     1      21.158   1.387  51.185  1.00  0.00    -0.353 OA
HETATM   31  C1  UNL     1      20.908   0.801  49.890  1.00  0.00     0.210 C 
ENDBRANCH   1  30
BRANCH   9  32
HETATM   32  O3  UNL     1      23.593   2.676  49.293  1.00  0.00    -0.383 OA
HETATM   33  C17 UNL     1      22.998   3.843  48.759  1.00  0.00     0.202 C 
ENDBRANCH   9  32
TORSDOF 5
ENDMDL
MODEL 8
REMARK VINA RESULT:      -8.2      4.257      6.611
REMARK  5 active torsions:
REMARK  status: ('A' for Active; 'I' for Inactive)
REMARK    1  A    between atoms: O1_2  and  C2_3 
REMARK    2  A    between atoms: C3_4  and  N1_5 
REMARK       I    between atoms: N1_5  and  C4_6 
REMARK       I    between atoms: C4_6  and  N2_8 
REMARK    3  A    between atoms: N2_8  and  C5_9 
REMARK    4  A    between atoms: C5_9  and  C7_11 
REMARK    5  A    between atoms: C16_22  and  O3_23 
ROOT
HETATM    1  C2  UNL     1      23.990   2.659  50.803  1.00  0.00     0.108 A 
HETATM    2  C3  UNL     1      24.140   3.538  49.734  1.00  0.00     0.070 A 
HETATM    3  C10 UNL     1      25.431   3.962  49.402  1.00  0.00     0.035 A 
HETATM    4  C11 UNL     1      26.581   3.555  50.082  1.00  0.00     0.040 A 
HETATM    5  C12 UNL     1      26.401   2.674  51.143  1.00  0.00     0.088 A 
HETATM    6  C13 UNL     1      25.140   2.280  51.435  1.00  0.00     0.044 A 
HETATM    7  C14 UNL     1      25.001   1.360  52.533  1.00  0.00    -0.008 A 
HETATM    8  C15 UNL     1      23.798   0.831  52.599  1.00  0.00     0.022 C 
HETATM    9  C16 UNL     1      22.830  -0.062  53.263  1.00  0.00     0.168 C 
HETATM   10  C18 UNL     1      23.389  -0.819  54.385  1.00  0.00     0.028 C 
HETATM   11  C19 UNL     1      24.405  -1.166  55.162  1.00  0.00     0.115 C 
HETATM   12  N4  UNL     1      25.775  -0.785  55.166  1.00  0.00    -0.272 NA
HETATM   13  C20 UNL     1      26.462   0.025  54.437  1.00  0.00     0.130 C 
HETATM   14  C21 UNL     1      26.127   0.883  53.311  1.00  0.00     0.015 A 
HETATM   15  C22 UNL     1      27.353   1.328  52.963  1.00  0.00     0.156 A 
HETATM   16  O4  UNL     1      27.467   2.205  51.894  1.00  0.00    -0.321 OA
ENDROOT
BRANCH   2  17
HETATM   17  N1  UNL     1      23.055   4.008  48.952  1.00  0.00    -0.306 N 
HETATM   18  C4  UNL     1      22.299   3.500  47.876  1.00  0.00     0.321 C 
HETATM   19  O2  UNL     1      22.676   2.360  47.524  1.00  0.00    -0.247 OA
HETATM   20  N2  UNL     1      21.230   4.122  47.206  1.00  0.00    -0.333 N 
HETATM   21  H5  UNL     1      20.957   5.073  47.539  1.00  0.00     0.165 HD
HETATM   22  H4  UNL     1      22.663   4.971  49.188  1.00  0.00     0.171 HD
BRANCH  20  23
HETATM   23  C5  UNL     1      20.590   3.425  46.128  1.00  0.00     0.141 C 
HETATM   24  C6  UNL     1      21.017   4.086  44.843  1.00  0.00     0.039 C 
BRANCH  23  25
HETATM   25  C7  UNL     1      19.135   3.303  46.295  1.00  0.00     0.097 A 
HETATM   26  N3  UNL     1      18.183   3.144  45.530  1.00  0.00    -0.256 NA
HETATM   27  C8  UNL     1      16.940   3.066  45.960  1.00  0.00     0.124 A 
HETATM   28  C9  UNL     1      16.682   3.176  47.427  1.00  0.00     0.071 A 
HETATM   29  S1  UNL     1      18.470   3.397  48.009  1.00  0.00    -0.083 SA
ENDBRANCH  23  25
ENDBRANCH  20  23
ENDBRANCH   2  17
BRANCH   1  30
HETATM   30  O1  UNL     1      22.642   2.377  50.986  1.00  0.00    -0.353 OA
HETATM   31  C1  UNL     1      21.791   3.340  51.643  1.00  0.00     0.210 C 
ENDBRANCH   1  30
BRANCH   9  32
HETATM   32  O3  UNL     1      21.822   0.748  53.788  1.00  0.00    -0.383 OA
HETATM   33  C17 UNL     1      20.617   0.150  53.352  1.00  0.00     0.202 C 
ENDBRANCH   9  32
TORSDOF 5
ENDMDL
MODEL 9
REMARK VINA RESULT:      -8.0      4.675      8.618
REMARK  5 active torsions:
REMARK  status: ('A' for Active; 'I' for Inactive)
REMARK    1  A    between atoms: O1_2  and  C2_3 
REMARK    2  A    between atoms: C3_4  and  N1_5 
REMARK       I    between atoms: N1_5  and  C4_6 
REMARK       I    between atoms: C4_6  and  N2_8 
REMARK    3  A    between atoms: N2_8  and  C5_9 
REMARK    4  A    between atoms: C5_9  and  C7_11 
REMARK    5  A    between atoms: C16_22  and  O3_23 
ROOT
HETATM    1  C2  UNL     1      22.856   0.322  52.573  1.00  0.00     0.108 A 
HETATM    2  C3  UNL     1      21.543  -0.139  52.595  1.00  0.00     0.070 A 
HETATM    3  C10 UNL     1      21.159  -0.996  53.631  1.00  0.00     0.035 A 
HETATM    4  C11 UNL     1      22.017  -1.420  54.647  1.00  0.00     0.040 A 
HETATM    5  C12 UNL     1      23.322  -0.940  54.603  1.00  0.00     0.088 A 
HETATM    6  C13 UNL     1      23.660  -0.109  53.590  1.00  0.00     0.044 A 
HETATM    7  C14 UNL     1      25.016   0.371  53.589  1.00  0.00    -0.008 A 
HETATM    8  C15 UNL     1      25.203   1.357  52.737  1.00  0.00     0.022 C 
HETATM    9  C16 UNL     1      26.094   2.343  52.100  1.00  0.00     0.168 C 
HETATM   10  C18 UNL     1      27.457   2.351  52.639  1.00  0.00     0.028 C 
HETATM   11  C19 UNL     1      28.373   1.912  53.490  1.00  0.00     0.115 C 
HETATM   12  N4  UNL     1      28.320   0.947  54.532  1.00  0.00    -0.272 NA
HETATM   13  C20 UNL     1      27.381   0.183  54.973  1.00  0.00     0.130 C 
HETATM   14  C21 UNL     1      25.991  -0.013  54.591  1.00  0.00     0.015 A 
HETATM   15  C22 UNL     1      25.580  -0.853  55.564  1.00  0.00     0.156 A 
HETATM   16  O4  UNL     1      24.264  -1.295  55.555  1.00  0.00    -0.321 OA
ENDROOT
BRANCH   2  17
HETATM   17  N1  UNL     1      20.569   0.233  51.633  1.00  0.00    -0.306 N 
HETATM   18  C4  UNL     1      19.166   0.137  51.536  1.00  0.00     0.321 C 
HETATM   19  O2  UNL     1      18.654  -0.409  52.538  1.00  0.00    -0.247 OA
HETATM   20  N2  UNL     1      18.345   0.572  50.479  1.00  0.00    -0.333 N 
HETATM   21  H5  UNL     1      18.824   1.020  49.667  1.00  0.00     0.165 HD
HETATM   22  H4  UNL     1      20.916   0.715  50.747  1.00  0.00     0.171 HD
BRANCH  20  23
HETATM   23  C5  UNL     1      16.927   0.377  50.581  1.00  0.00     0.141 C 
HETATM   24  C6  UNL     1      16.508  -0.517  49.443  1.00  0.00     0.039 C 
BRANCH  23  25
HETATM   25  C7  UNL     1      16.172   1.635  50.675  1.00  0.00     0.097 A 
HETATM   26  N3  UNL     1      15.023   1.981  50.400  1.00  0.00    -0.256 NA
HETATM   27  C8  UNL     1      14.594   3.213  50.590  1.00  0.00     0.124 A 
HETATM   28  C9  UNL     1      15.538   4.219  51.159  1.00  0.00     0.071 A 
HETATM   29  S1  UNL     1      17.057   3.104  51.346  1.00  0.00    -0.083 SA
ENDBRANCH  23  25
ENDBRANCH  20  23
ENDBRANCH   2  17
BRANCH   1  30
HETATM   30  O1  UNL     1      23.044   1.136  51.464  1.00  0.00    -0.353 OA
HETATM   31  C1  UNL     1      22.495   2.470  51.451  1.00  0.00     0.210 C 
ENDBRANCH   1  30
BRANCH   9  32
HETATM   32  O3  UNL     1      26.197   1.992  50.754  1.00  0.00    -0.383 OA
HETATM   33  C17 UNL     1      26.445   3.210  50.081  1.00  0.00     0.202 C 
ENDBRANCH   9  32
TORSDOF 5
ENDMDL
