MODEL 1
REMARK VINA RESULT:      -8.7      0.000      0.000
REMARK  2 active torsions:
REMARK  status: ('A' for Active; 'I' for Inactive)
REMARK    1  A    between atoms: C2_2  and  N1_3 
REMARK    2  A    between atoms: N1_3  and  C3_4 
ROOT
HETATM    1  C3  UNL     1      26.022   2.775  50.686  1.00  0.00     0.181 C 
HETATM    2  C4  UNL     1      24.956   2.188  51.178  1.00  0.00     0.028 C 
HETATM    3  C5  UNL     1      23.699   2.332  50.416  1.00  0.00     0.313 C 
HETATM    4  N2  UNL     1      22.591   1.662  50.943  1.00  0.00     0.091 NA
HETATM    5  C6  UNL     1      21.991   2.116  52.136  1.00  0.00     0.305 C 
HETATM    6  C7  UNL     1      20.842   1.159  52.458  1.00  0.00    -0.033 C 
HETATM    7  C8  UNL     1      19.594   0.756  52.294  1.00  0.00    -0.024 C 
HETATM    8  C9  UNL     1      18.235   0.797  51.732  1.00  0.00     0.012 C 
HETATM    9  C10 UNL     1      17.389  -0.171  52.044  1.00  0.00     0.002 C 
HETATM   10  C11 UNL     1      17.799  -1.261  52.931  1.00  0.00     0.013 C 
HETATM   11  C12 UNL     1      19.023  -1.412  53.395  1.00  0.00    -0.018 C 
HETATM   12  C13 UNL     1      19.835  -0.407  53.164  1.00  0.00    -0.028 C 
HETATM   13  C14 UNL     1      21.139   0.082  53.514  1.00  0.00     0.055 C 
HETATM   14  C15 UNL     1      22.342  -0.670  53.065  1.00  0.00     0.040 C 
HETATM   15  C16 UNL     1      23.253  -0.939  54.192  1.00  0.00    -0.029 C 
HETATM   16  C17 UNL     1      24.399  -0.253  54.112  1.00  0.00    -0.021 C 
HETATM   17  C18 UNL     1      25.265   0.700  53.435  1.00  0.00     0.051 C 
HETATM   18  C19 UNL     1      25.505   1.567  52.420  1.00  0.00    -0.035 C 
HETATM   19  C20 UNL     1      26.849   2.071  52.694  1.00  0.00     0.213 C 
HETATM   20  O1  UNL     1      27.175   2.631  51.411  1.00  0.00    -0.329 OA
HETATM   21  H5  UNL     1      21.869   1.538  50.208  1.00  0.00     0.316 HD
ENDROOT
BRANCH   1  22
HETATM   22  N1  UNL     1      26.041   3.525  49.484  1.00  0.00    -0.185 NA
BRANCH  22  23
HETATM   23  C2  UNL     1      27.007   4.335  49.204  1.00  0.00    -0.041 C 
HETATM   24  C1  UNL     1      27.901   5.049  48.536  1.00  0.00     0.119 C 
ENDBRANCH  22  23
ENDBRANCH   1  22
TORSDOF 2
ENDMDL
MODEL 2
REMARK VINA RESULT:      -8.5      2.898      5.703
REMARK  2 active torsions:
REMARK  status: ('A' for Active; 'I' for Inactive)
REMARK    1  A    between atoms: C2_2  and  N1_3 
REMARK    2  A    between atoms: N1_3  and  C3_4 
ROOT
HETATM    1  C3  UNL     1      26.386   0.224  54.570  1.00  0.00     0.181 C 
HETATM    2  C4  UNL     1      25.664   0.857  53.676  1.00  0.00     0.028 C 
HETATM    3  C5  UNL     1      26.293   2.010  52.999  1.00  0.00     0.313 C 
HETATM    4  N2  UNL     1      25.515   2.638  52.023  1.00  0.00     0.091 NA
HETATM    5  C6  UNL     1      24.387   3.397  52.398  1.00  0.00     0.305 C 
HETATM    6  C7  UNL     1      23.741   3.915  51.111  1.00  0.00    -0.033 C 
HETATM    7  C8  UNL     1      23.675   4.792  50.124  1.00  0.00    -0.024 C 
HETATM    8  C9  UNL     1      24.077   5.982  49.360  1.00  0.00     0.012 C 
HETATM    9  C10 UNL     1      23.473   6.233  48.209  1.00  0.00     0.002 C 
HETATM   10  C11 UNL     1      22.426   5.341  47.709  1.00  0.00     0.013 C 
HETATM   11  C12 UNL     1      22.080   4.211  48.292  1.00  0.00    -0.018 C 
HETATM   12  C13 UNL     1      22.609   4.010  49.476  1.00  0.00    -0.028 C 
HETATM   13  C14 UNL     1      22.520   3.130  50.607  1.00  0.00     0.055 C 
HETATM   14  C15 UNL     1      22.930   1.708  50.456  1.00  0.00     0.040 C 
HETATM   15  C16 UNL     1      21.880   0.796  50.947  1.00  0.00    -0.029 C 
HETATM   16  C17 UNL     1      22.232   0.147  52.063  1.00  0.00    -0.021 C 
HETATM   17  C18 UNL     1      23.190  -0.132  53.122  1.00  0.00     0.051 C 
HETATM   18  C19 UNL     1      24.387   0.084  53.722  1.00  0.00    -0.035 C 
HETATM   19  C20 UNL     1      24.378  -0.823  54.867  1.00  0.00     0.213 C 
HETATM   20  O1  UNL     1      25.780  -0.839  55.188  1.00  0.00    -0.329 OA
HETATM   21  H5  UNL     1      26.121   3.193  51.389  1.00  0.00     0.316 HD
ENDROOT
BRANCH   1  22
HETATM   22  N1  UNL     1      27.715   0.571  54.919  1.00  0.00    -0.185 NA
BRANCH  22  23
HETATM   23  C2  UNL     1      28.726  -0.129  54.526  1.00  0.00    -0.041 C 
HETATM   24  C1  UNL     1      29.574  -0.802  53.761  1.00  0.00     0.119 C 
ENDBRANCH  22  23
ENDBRANCH   1  22
TORSDOF 2
ENDMDL
MODEL 3
REMARK VINA RESULT:      -8.4      2.544      7.076
REMARK  2 active torsions:
REMARK  status: ('A' for Active; 'I' for Inactive)
REMARK    1  A    between atoms: C2_2  and  N1_3 
REMARK    2  A    between atoms: N1_3  and  C3_4 
ROOT
HETATM    1  C3  UNL     1      20.198  -0.832  53.639  1.00  0.00     0.181 C 
HETATM    2  C4  UNL     1      21.049  -0.033  53.040  1.00  0.00     0.028 C 
HETATM    3  C5  UNL     1      20.488   0.975  52.117  1.00  0.00     0.313 C 
HETATM    4  N2  UNL     1      21.414   1.838  51.525  1.00  0.00     0.091 NA
HETATM    5  C6  UNL     1      22.310   1.353  50.549  1.00  0.00     0.305 C 
HETATM    6  C7  UNL     1      23.203   2.524  50.133  1.00  0.00    -0.033 C 
HETATM    7  C8  UNL     1      23.421   3.612  49.415  1.00  0.00    -0.024 C 
HETATM    8  C9  UNL     1      23.096   4.656  48.432  1.00  0.00     0.012 C 
HETATM    9  C10 UNL     1      23.945   5.657  48.263  1.00  0.00     0.002 C 
HETATM   10  C11 UNL     1      25.183   5.722  49.041  1.00  0.00     0.013 C 
HETATM   11  C12 UNL     1      25.495   4.875  50.001  1.00  0.00    -0.018 C 
HETATM   12  C13 UNL     1      24.702   3.834  50.106  1.00  0.00    -0.028 C 
HETATM   13  C14 UNL     1      24.596   2.571  50.781  1.00  0.00     0.055 C 
HETATM   14  C15 UNL     1      24.408   2.549  52.256  1.00  0.00     0.040 C 
HETATM   15  C16 UNL     1      25.393   1.664  52.905  1.00  0.00    -0.029 C 
HETATM   16  C17 UNL     1      24.841   0.562  53.427  1.00  0.00    -0.021 C 
HETATM   17  C18 UNL     1      23.680  -0.273  53.694  1.00  0.00     0.051 C 
HETATM   18  C19 UNL     1      22.351  -0.522  53.584  1.00  0.00    -0.035 C 
HETATM   19  C20 UNL     1      22.167  -1.784  54.297  1.00  0.00     0.213 C 
HETATM   20  O1  UNL     1      20.742  -1.761  54.487  1.00  0.00    -0.329 OA
HETATM   21  H5  UNL     1      20.934   2.689  51.175  1.00  0.00     0.316 HD
ENDROOT
BRANCH   1  22
HETATM   22  N1  UNL     1      18.793  -0.787  53.460  1.00  0.00    -0.185 NA
BRANCH  22  23
HETATM   23  C2  UNL     1      18.083  -1.863  53.379  1.00  0.00    -0.041 C 
HETATM   24  C1  UNL     1      17.545  -3.042  53.651  1.00  0.00     0.119 C 
ENDBRANCH  22  23
ENDBRANCH   1  22
TORSDOF 2
ENDMDL
MODEL 4
REMARK VINA RESULT:      -8.2      3.159      6.501
REMARK  2 active torsions:
REMARK  status: ('A' for Active; 'I' for Inactive)
REMARK    1  A    between atoms: C2_2  and  N1_3 
REMARK    2  A    between atoms: N1_3  and  C3_4 
ROOT
HETATM    1  C3  UNL     1      21.337   5.087  51.208  1.00  0.00     0.181 C 
HETATM    2  C4  UNL     1      22.265   4.249  51.606  1.00  0.00     0.028 C 
HETATM    3  C5  UNL     1      23.537   4.831  52.081  1.00  0.00     0.313 C 
HETATM    4  N2  UNL     1      24.490   3.916  52.537  1.00  0.00     0.091 NA
HETATM    5  C6  UNL     1      25.149   3.066  51.624  1.00  0.00     0.305 C 
HETATM    6  C7  UNL     1      26.090   2.173  52.435  1.00  0.00    -0.033 C 
HETATM    7  C8  UNL     1      27.240   1.968  53.052  1.00  0.00    -0.024 C 
HETATM    8  C9  UNL     1      28.590   2.316  53.523  1.00  0.00     0.012 C 
HETATM    9  C10 UNL     1      29.232   1.460  54.302  1.00  0.00     0.002 C 
HETATM   10  C11 UNL     1      28.610   0.192  54.685  1.00  0.00     0.013 C 
HETATM   11  C12 UNL     1      27.373  -0.145  54.378  1.00  0.00    -0.018 C 
HETATM   12  C13 UNL     1      26.771   0.657  53.532  1.00  0.00    -0.028 C 
HETATM   13  C14 UNL     1      25.579   0.755  52.737  1.00  0.00     0.055 C 
HETATM   14  C15 UNL     1      24.262   0.886  53.414  1.00  0.00     0.040 C 
HETATM   15  C16 UNL     1      23.301  -0.110  52.907  1.00  0.00    -0.029 C 
HETATM   16  C17 UNL     1      22.307   0.437  52.196  1.00  0.00    -0.021 C 
HETATM   17  C18 UNL     1      21.648   1.598  51.620  1.00  0.00     0.051 C 
HETATM   18  C19 UNL     1      21.591   2.934  51.389  1.00  0.00    -0.035 C 
HETATM   19  C20 UNL     1      20.365   3.108  50.615  1.00  0.00     0.213 C 
HETATM   20  O1  UNL     1      20.168   4.524  50.768  1.00  0.00    -0.329 OA
HETATM   21  H5  UNL     1      25.185   4.398  53.139  1.00  0.00     0.316 HD
ENDROOT
BRANCH   1  22
HETATM   22  N1  UNL     1      21.478   6.497  51.207  1.00  0.00    -0.185 NA
BRANCH  22  23
HETATM   23  C2  UNL     1      21.297   7.198  50.137  1.00  0.00    -0.041 C 
HETATM   24  C1  UNL     1      20.720   7.832  49.128  1.00  0.00     0.119 C 
ENDBRANCH  22  23
ENDBRANCH   1  22
TORSDOF 2
ENDMDL
MODEL 5
REMARK VINA RESULT:      -8.1      2.586      4.174
REMARK  2 active torsions:
REMARK  status: ('A' for Active; 'I' for Inactive)
REMARK    1  A    between atoms: C2_2  and  N1_3 
REMARK    2  A    between atoms: N1_3  and  C3_4 
ROOT
HETATM    1  C3  UNL     1      26.004  -0.339  53.285  1.00  0.00     0.181 C 
HETATM    2  C4  UNL     1      24.844   0.230  53.058  1.00  0.00     0.028 C 
HETATM    3  C5  UNL     1      24.791   1.238  51.980  1.00  0.00     0.313 C 
HETATM    4  N2  UNL     1      23.533   1.797  51.734  1.00  0.00     0.091 NA
HETATM    5  C6  UNL     1      22.955   2.679  52.671  1.00  0.00     0.305 C 
HETATM    6  C7  UNL     1      21.582   3.080  52.128  1.00  0.00    -0.033 C 
HETATM    7  C8  UNL     1      20.822   3.829  51.348  1.00  0.00    -0.024 C 
HETATM    8  C9  UNL     1      20.543   4.881  50.359  1.00  0.00     0.012 C 
HETATM    9  C10 UNL     1      19.303   5.031  49.923  1.00  0.00     0.002 C 
HETATM   10  C11 UNL     1      18.231   4.165  50.416  1.00  0.00     0.013 C 
HETATM   11  C12 UNL     1      18.422   3.146  51.229  1.00  0.00    -0.018 C 
HETATM   12  C13 UNL     1      19.630   3.054  51.733  1.00  0.00    -0.028 C 
HETATM   13  C14 UNL     1      20.379   2.331  52.724  1.00  0.00     0.055 C 
HETATM   14  C15 UNL     1      20.616   0.875  52.536  1.00  0.00     0.040 C 
HETATM   15  C16 UNL     1      20.229   0.114  53.737  1.00  0.00    -0.029 C 
HETATM   16  C17 UNL     1      21.278  -0.416  54.380  1.00  0.00    -0.021 C 
HETATM   17  C18 UNL     1      22.710  -0.632  54.511  1.00  0.00     0.051 C 
HETATM   18  C19 UNL     1      23.981  -0.433  54.081  1.00  0.00    -0.035 C 
HETATM   19  C20 UNL     1      24.798  -1.187  55.029  1.00  0.00     0.213 C 
HETATM   20  O1  UNL     1      26.030  -1.268  54.293  1.00  0.00    -0.329 OA
HETATM   21  H5  UNL     1      23.512   2.221  50.787  1.00  0.00     0.316 HD
ENDROOT
BRANCH   1  22
HETATM   22  N1  UNL     1      27.192  -0.052  52.568  1.00  0.00    -0.185 NA
BRANCH  22  23
HETATM   23  C2  UNL     1      28.357  -0.137  53.120  1.00  0.00    -0.041 C 
HETATM   24  C1  UNL     1      29.446  -0.621  53.698  1.00  0.00     0.119 C 
ENDBRANCH  22  23
ENDBRANCH   1  22
TORSDOF 2
ENDMDL
MODEL 6
REMARK VINA RESULT:      -8.1      5.879      9.632
REMARK  2 active torsions:
REMARK  status: ('A' for Active; 'I' for Inactive)
REMARK    1  A    between atoms: C2_2  and  N1_3 
REMARK    2  A    between atoms: N1_3  and  C3_4 
ROOT
HETATM    1  C3  UNL     1      33.209   7.458  48.271  1.00  0.00     0.181 C 
HETATM    2  C4  UNL     1      31.931   7.174  48.361  1.00  0.00     0.028 C 
HETATM    3  C5  UNL     1      31.567   5.943  49.092  1.00  0.00     0.313 C 
HETATM    4  N2  UNL     1      30.197   5.689  49.207  1.00  0.00     0.091 NA
HETATM    5  C6  UNL     1      29.450   5.310  48.072  1.00  0.00     0.305 C 
HETATM    6  C7  UNL     1      27.997   5.144  48.521  1.00  0.00    -0.033 C 
HETATM    7  C8  UNL     1      27.033   4.426  49.071  1.00  0.00    -0.024 C 
HETATM    8  C9  UNL     1      26.443   3.240  49.711  1.00  0.00     0.012 C 
HETATM    9  C10 UNL     1      25.190   3.300  50.129  1.00  0.00     0.002 C 
HETATM   10  C11 UNL     1      24.406   4.524  49.956  1.00  0.00     0.013 C 
HETATM   11  C12 UNL     1      24.894   5.650  49.477  1.00  0.00    -0.018 C 
HETATM   12  C13 UNL     1      26.105   5.565  48.978  1.00  0.00    -0.028 C 
HETATM   13  C14 UNL     1      27.060   6.325  48.221  1.00  0.00     0.055 C 
HETATM   14  C15 UNL     1      27.663   7.543  48.826  1.00  0.00     0.040 C 
HETATM   15  C16 UNL     1      27.544   8.701  47.921  1.00  0.00    -0.029 C 
HETATM   16  C17 UNL     1      28.722   9.101  47.427  1.00  0.00    -0.021 C 
HETATM   17  C18 UNL     1      30.165   8.960  47.312  1.00  0.00     0.051 C 
HETATM   18  C19 UNL     1      31.319   8.315  47.615  1.00  0.00    -0.035 C 
HETATM   19  C20 UNL     1      32.347   9.073  46.905  1.00  0.00     0.213 C 
HETATM   20  O1  UNL     1      33.523   8.603  47.586  1.00  0.00    -0.329 OA
HETATM   21  H5  UNL     1      30.024   5.024  49.984  1.00  0.00     0.316 HD
ENDROOT
BRANCH   1  22
HETATM   22  N1  UNL     1      34.247   6.668  48.825  1.00  0.00    -0.185 NA
BRANCH  22  23
HETATM   23  C2  UNL     1      34.718   5.636  48.209  1.00  0.00    -0.041 C 
HETATM   24  C1  UNL     1      34.873   4.647  47.341  1.00  0.00     0.119 C 
ENDBRANCH  22  23
ENDBRANCH   1  22
TORSDOF 2
ENDMDL
MODEL 7
REMARK VINA RESULT:      -8.0      2.478      3.201
REMARK  2 active torsions:
REMARK  status: ('A' for Active; 'I' for Inactive)
REMARK    1  A    between atoms: C2_2  and  N1_3 
REMARK    2  A    between atoms: N1_3  and  C3_4 
ROOT
HETATM    1  C3  UNL     1      26.513   0.277  53.724  1.00  0.00     0.181 C 
HETATM    2  C4  UNL     1      25.232   0.267  53.439  1.00  0.00     0.028 C 
HETATM    3  C5  UNL     1      24.811   0.969  52.209  1.00  0.00     0.313 C 
HETATM    4  N2  UNL     1      23.447   0.906  51.911  1.00  0.00     0.091 NA
HETATM    5  C6  UNL     1      22.516   1.610  52.704  1.00  0.00     0.305 C 
HETATM    6  C7  UNL     1      21.125   1.308  52.144  1.00  0.00    -0.033 C 
HETATM    7  C8  UNL     1      20.157   1.534  51.273  1.00  0.00    -0.024 C 
HETATM    8  C9  UNL     1      19.510   2.197  50.130  1.00  0.00     0.012 C 
HETATM    9  C10 UNL     1      18.339   1.744  49.712  1.00  0.00     0.002 C 
HETATM   10  C11 UNL     1      17.702   0.605  50.376  1.00  0.00     0.013 C 
HETATM   11  C12 UNL     1      18.263  -0.094  51.342  1.00  0.00    -0.018 C 
HETATM   12  C13 UNL     1      19.378   0.409  51.818  1.00  0.00    -0.028 C 
HETATM   13  C14 UNL     1      20.316   0.236  52.892  1.00  0.00     0.055 C 
HETATM   14  C15 UNL     1      21.143  -0.999  52.943  1.00  0.00     0.040 C 
HETATM   15  C16 UNL     1      21.056  -1.643  54.266  1.00  0.00    -0.029 C 
HETATM   16  C17 UNL     1      22.201  -1.575  54.956  1.00  0.00    -0.021 C 
HETATM   17  C18 UNL     1      23.587  -1.152  55.079  1.00  0.00     0.051 C 
HETATM   18  C19 UNL     1      24.678  -0.517  54.584  1.00  0.00    -0.035 C 
HETATM   19  C20 UNL     1      25.693  -0.696  55.620  1.00  0.00     0.213 C 
HETATM   20  O1  UNL     1      26.878  -0.377  54.870  1.00  0.00    -0.329 OA
HETATM   21  H5  UNL     1      23.293   1.121  50.908  1.00  0.00     0.316 HD
ENDROOT
BRANCH   1  22
HETATM   22  N1  UNL     1      27.504   0.909  52.933  1.00  0.00    -0.185 NA
BRANCH  22  23
HETATM   23  C2  UNL     1      28.413   1.663  53.457  1.00  0.00    -0.041 C 
HETATM   24  C1  UNL     1      29.388   2.107  54.236  1.00  0.00     0.119 C 
ENDBRANCH  22  23
ENDBRANCH   1  22
TORSDOF 2
ENDMDL
MODEL 8
REMARK VINA RESULT:      -7.8      3.845      6.613
REMARK  2 active torsions:
REMARK  status: ('A' for Active; 'I' for Inactive)
REMARK    1  A    between atoms: C2_2  and  N1_3 
REMARK    2  A    between atoms: N1_3  and  C3_4 
ROOT
HETATM    1  C3  UNL     1      21.901   6.972  49.247  1.00  0.00     0.181 C 
HETATM    2  C4  UNL     1      22.687   6.014  49.679  1.00  0.00     0.028 C 
HETATM    3  C5  UNL     1      22.058   4.932  50.464  1.00  0.00     0.313 C 
HETATM    4  N2  UNL     1      22.913   3.905  50.874  1.00  0.00     0.091 NA
HETATM    5  C6  UNL     1      23.883   4.148  51.870  1.00  0.00     0.305 C 
HETATM    6  C7  UNL     1      24.669   2.849  52.062  1.00  0.00    -0.033 C 
HETATM    7  C8  UNL     1      24.800   1.647  52.596  1.00  0.00    -0.024 C 
HETATM    8  C9  UNL     1      24.405   0.498  53.425  1.00  0.00     0.012 C 
HETATM    9  C10 UNL     1      25.155  -0.592  53.401  1.00  0.00     0.002 C 
HETATM   10  C11 UNL     1      26.356  -0.650  52.565  1.00  0.00     0.013 C 
HETATM   11  C12 UNL     1      26.719   0.303  51.730  1.00  0.00    -0.018 C 
HETATM   12  C13 UNL     1      26.031   1.416  51.822  1.00  0.00    -0.028 C 
HETATM   13  C14 UNL     1      26.029   2.773  51.350  1.00  0.00     0.055 C 
HETATM   14  C15 UNL     1      25.797   3.041  49.906  1.00  0.00     0.040 C 
HETATM   15  C16 UNL     1      26.844   3.920  49.353  1.00  0.00    -0.029 C 
HETATM   16  C17 UNL     1      26.387   5.136  49.029  1.00  0.00    -0.021 C 
HETATM   17  C18 UNL     1      25.307   6.106  48.946  1.00  0.00     0.051 C 
HETATM   18  C19 UNL     1      24.013   6.458  49.154  1.00  0.00    -0.035 C 
HETATM   19  C20 UNL     1      23.933   7.827  48.650  1.00  0.00     0.213 C 
HETATM   20  O1  UNL     1      22.507   7.966  48.525  1.00  0.00    -0.329 OA
HETATM   21  H5  UNL     1      22.362   3.059  51.114  1.00  0.00     0.316 HD
ENDROOT
BRANCH   1  22
HETATM   22  N1  UNL     1      20.505   7.031  49.483  1.00  0.00    -0.185 NA
BRANCH  22  23
HETATM   23  C2  UNL     1      19.882   8.156  49.598  1.00  0.00    -0.041 C 
HETATM   24  C1  UNL     1      19.436   9.308  50.078  1.00  0.00     0.119 C 
ENDBRANCH  22  23
ENDBRANCH   1  22
TORSDOF 2
ENDMDL
MODEL 9
REMARK VINA RESULT:      -7.7      3.136      7.395
REMARK  2 active torsions:
REMARK  status: ('A' for Active; 'I' for Inactive)
REMARK    1  A    between atoms: C2_2  and  N1_3 
REMARK    2  A    between atoms: N1_3  and  C3_4 
ROOT
HETATM    1  C3  UNL     1      16.892   0.401  51.845  1.00  0.00     0.181 C 
HETATM    2  C4  UNL     1      18.192   0.449  52.017  1.00  0.00     0.028 C 
HETATM    3  C5  UNL     1      18.914   1.563  51.368  1.00  0.00     0.313 C 
HETATM    4  N2  UNL     1      20.291   1.611  51.602  1.00  0.00     0.091 NA
HETATM    5  C6  UNL     1      21.141   0.643  51.027  1.00  0.00     0.305 C 
HETATM    6  C7  UNL     1      22.563   0.950  51.500  1.00  0.00    -0.033 C 
HETATM    7  C8  UNL     1      23.694   1.625  51.395  1.00  0.00    -0.024 C 
HETATM    8  C9  UNL     1      24.617   2.613  50.814  1.00  0.00     0.012 C 
HETATM    9  C10 UNL     1      25.779   2.824  51.410  1.00  0.00     0.002 C 
HETATM   10  C11 UNL     1      26.138   2.089  52.625  1.00  0.00     0.013 C 
HETATM   11  C12 UNL     1      25.326   1.261  53.251  1.00  0.00    -0.018 C 
HETATM   12  C13 UNL     1      24.214   0.980  52.612  1.00  0.00    -0.028 C 
HETATM   13  C14 UNL     1      23.082   0.099  52.670  1.00  0.00     0.055 C 
HETATM   14  C15 UNL     1      22.113   0.233  53.790  1.00  0.00     0.040 C 
HETATM   15  C16 UNL     1      21.875  -1.065  54.447  1.00  0.00    -0.029 C 
HETATM   16  C17 UNL     1      20.641  -1.539  54.237  1.00  0.00    -0.021 C 
HETATM   17  C18 UNL     1      19.319  -1.420  53.642  1.00  0.00     0.051 C 
HETATM   18  C19 UNL     1      18.424  -0.754  52.870  1.00  0.00    -0.035 C 
HETATM   19  C20 UNL     1      17.223  -1.584  52.924  1.00  0.00     0.213 C 
HETATM   20  O1  UNL     1      16.244  -0.641  52.453  1.00  0.00    -0.329 OA
HETATM   21  H5  UNL     1      20.652   2.563  51.403  1.00  0.00     0.316 HD
ENDROOT
BRANCH   1  22
HETATM   22  N1  UNL     1      16.148   1.340  51.088  1.00  0.00    -0.185 NA
BRANCH  22  23
HETATM   23  C2  UNL     1      15.430   2.253  51.652  1.00  0.00    -0.041 C 
HETATM   24  C1  UNL     1      15.029   3.413  52.151  1.00  0.00     0.119 C 
ENDBRANCH  22  23
ENDBRANCH   1  22
TORSDOF 2
ENDMDL
