MODEL 1
REMARK VINA RESULT:      -8.3      0.000      0.000
REMARK  7 active torsions:
REMARK  status: ('A' for Active; 'I' for Inactive)
REMARK    1  A    between atoms: C5_5  and  C6_6 
REMARK    2  A    between atoms: C6_6  and  C7_7 
REMARK    3  A    between atoms: C7_7  and  C9_10 
REMARK       I    between atoms: C9_10  and  N2_11 
REMARK    4  A    between atoms: C10_13  and  O2_14 
REMARK    5  A    between atoms: C11_15  and  S1_16 
REMARK    6  A    between atoms: S1_16  and  C12_17 
REMARK    7  A    between atoms: C17_22  and  O3_23 
ROOT
HETATM    1  C7  UNL     1      26.548   5.865  49.396  1.00  0.00     0.188 C 
HETATM    2  C8  UNL     1      27.406   6.487  48.420  1.00  0.00     0.073 C 
HETATM    3  N1  UNL     1      28.113   6.998  47.643  1.00  0.00    -0.196 NA
ENDROOT
BRANCH   1   4
HETATM    4  C6  UNL     1      25.683   4.769  48.911  1.00  0.00     0.070 C 
BRANCH   4   5
HETATM    5  C5  UNL     1      25.195   3.759  49.816  1.00  0.00    -0.025 A 
HETATM    6  C4  UNL     1      23.893   3.436  49.633  1.00  0.00    -0.013 A 
HETATM    7  C3  UNL     1      23.033   2.455  50.353  1.00  0.00     0.063 A 
HETATM    8  C2  UNL     1      23.838   1.838  51.456  1.00  0.00    -0.056 A 
HETATM    9  C1  UNL     1      22.943   1.028  52.041  1.00  0.00     0.040 C 
HETATM   10  C11 UNL     1      25.274   2.154  51.718  1.00  0.00     0.042 A 
HETATM   11  C10 UNL     1      25.767   3.036  50.903  1.00  0.00     0.089 A 
BRANCH  10  12
HETATM   12  S1  UNL     1      25.691   1.166  53.032  1.00  0.00    -0.085 SA
BRANCH  12  13
HETATM   13  C12 UNL     1      27.186   0.341  53.206  1.00  0.00     0.038 A 
HETATM   14  C13 UNL     1      27.757  -0.878  53.050  1.00  0.00     0.021 A 
HETATM   15  C14 UNL     1      29.038  -1.261  53.314  1.00  0.00     0.002 A 
HETATM   16  C15 UNL     1      29.865  -0.281  53.804  1.00  0.00     0.003 A 
HETATM   17  C16 UNL     1      29.416   1.024  54.018  1.00  0.00     0.038 A 
HETATM   18  C17 UNL     1      28.076   1.319  53.713  1.00  0.00     0.082 A 
BRANCH  18  19
HETATM   19  O3  UNL     1      27.927   2.688  54.028  1.00  0.00    -0.359 OA
HETATM   20  H16 UNL     1      28.783   3.159  54.275  1.00  0.00     0.217 HD
ENDBRANCH  18  19
ENDBRANCH  12  13
ENDBRANCH  10  12
BRANCH  11  21
HETATM   21  O2  UNL     1      27.085   3.295  51.172  1.00  0.00    -0.359 OA
HETATM   22  H11 UNL     1      27.503   4.214  51.093  1.00  0.00     0.217 HD
ENDBRANCH  11  21
ENDBRANCH   4   5
ENDBRANCH   1   4
BRANCH   1  23
HETATM   23  C9  UNL     1      25.722   6.929  50.105  1.00  0.00     0.233 C 
HETATM   24  N2  UNL     1      26.506   8.028  50.538  1.00  0.00    -0.369 N 
HETATM   25  H9  UNL     1      27.042   8.875  50.765  1.00  0.00     0.159 HD
HETATM   26  H10 UNL     1      27.031   7.911  51.454  1.00  0.00     0.159 HD
HETATM   27  O1  UNL     1      24.523   7.174  50.452  1.00  0.00    -0.272 OA
ENDBRANCH   1  23
TORSDOF 7
ENDMDL
MODEL 2
REMARK VINA RESULT:      -8.2      4.034      7.268
REMARK  7 active torsions:
REMARK  status: ('A' for Active; 'I' for Inactive)
REMARK    1  A    between atoms: C5_5  and  C6_6 
REMARK    2  A    between atoms: C6_6  and  C7_7 
REMARK    3  A    between atoms: C7_7  and  C9_10 
REMARK       I    between atoms: C9_10  and  N2_11 
REMARK    4  A    between atoms: C10_13  and  O2_14 
REMARK    5  A    between atoms: C11_15  and  S1_16 
REMARK    6  A    between atoms: S1_16  and  C12_17 
REMARK    7  A    between atoms: C17_22  and  O3_23 
ROOT
HETATM    1  C7  UNL     1      27.734  -0.772  53.201  1.00  0.00     0.188 C 
HETATM    2  C8  UNL     1      29.150  -0.613  53.415  1.00  0.00     0.073 C 
HETATM    3  N1  UNL     1      30.301  -0.482  53.568  1.00  0.00    -0.196 NA
ENDROOT
BRANCH   1   4
HETATM    4  C6  UNL     1      26.856  -0.471  54.351  1.00  0.00     0.070 C 
BRANCH   4   5
HETATM    5  C5  UNL     1      25.439  -0.287  54.168  1.00  0.00    -0.025 A 
HETATM    6  C4  UNL     1      24.672  -1.100  54.932  1.00  0.00    -0.013 A 
HETATM    7  C3  UNL     1      23.190  -1.215  55.032  1.00  0.00     0.063 A 
HETATM    8  C2  UNL     1      22.574  -0.268  54.048  1.00  0.00    -0.056 A 
HETATM    9  C1  UNL     1      21.263  -0.507  54.207  1.00  0.00     0.040 C 
HETATM   10  C11 UNL     1      23.358   0.651  53.171  1.00  0.00     0.042 A 
HETATM   11  C10 UNL     1      24.643   0.543  53.326  1.00  0.00     0.089 A 
BRANCH  10  12
HETATM   12  S1  UNL     1      22.184   1.509  52.299  1.00  0.00    -0.085 SA
BRANCH  12  13
HETATM   13  C12 UNL     1      22.107   1.610  50.588  1.00  0.00     0.038 A 
HETATM   14  C13 UNL     1      21.502   1.051  49.512  1.00  0.00     0.021 A 
HETATM   15  C14 UNL     1      21.672   1.339  48.191  1.00  0.00     0.002 A 
HETATM   16  C15 UNL     1      22.579   2.329  47.908  1.00  0.00     0.003 A 
HETATM   17  C16 UNL     1      23.281   2.996  48.915  1.00  0.00     0.038 A 
HETATM   18  C17 UNL     1      23.033   2.626  50.248  1.00  0.00     0.082 A 
BRANCH  18  19
HETATM   19  O3  UNL     1      23.873   3.461  51.017  1.00  0.00    -0.359 OA
HETATM   20  H16 UNL     1      24.667   3.834  50.520  1.00  0.00     0.217 HD
ENDBRANCH  18  19
ENDBRANCH  12  13
ENDBRANCH  10  12
BRANCH  11  21
HETATM   21  O2  UNL     1      25.327   1.404  52.509  1.00  0.00    -0.359 OA
HETATM   22  H11 UNL     1      25.176   2.406  52.498  1.00  0.00     0.217 HD
ENDBRANCH  11  21
ENDBRANCH   4   5
ENDBRANCH   1   4
BRANCH   1  23
HETATM   23  C9  UNL     1      27.451  -2.165  52.657  1.00  0.00     0.233 C 
HETATM   24  N2  UNL     1      28.376  -3.131  53.126  1.00  0.00    -0.369 N 
HETATM   25  H9  UNL     1      28.975  -3.858  53.538  1.00  0.00     0.159 HD
HETATM   26  H10 UNL     1      29.309  -3.188  52.620  1.00  0.00     0.159 HD
HETATM   27  O1  UNL     1      26.636  -2.777  51.896  1.00  0.00    -0.272 OA
ENDBRANCH   1  23
TORSDOF 7
ENDMDL
MODEL 3
REMARK VINA RESULT:      -8.1      3.167      6.589
REMARK  7 active torsions:
REMARK  status: ('A' for Active; 'I' for Inactive)
REMARK    1  A    between atoms: C5_5  and  C6_6 
REMARK    2  A    between atoms: C6_6  and  C7_7 
REMARK    3  A    between atoms: C7_7  and  C9_10 
REMARK       I    between atoms: C9_10  and  N2_11 
REMARK    4  A    between atoms: C10_13  and  O2_14 
REMARK    5  A    between atoms: C11_15  and  S1_16 
REMARK    6  A    between atoms: S1_16  and  C12_17 
REMARK    7  A    between atoms: C17_22  and  O3_23 
ROOT
HETATM    1  C7  UNL     1      27.666  -0.029  53.375  1.00  0.00     0.188 C 
HETATM    2  C8  UNL     1      28.560  -1.158  53.437  1.00  0.00     0.073 C 
HETATM    3  N1  UNL     1      29.285  -2.071  53.508  1.00  0.00    -0.196 NA
ENDROOT
BRANCH   1   4
HETATM    4  C6  UNL     1      26.867   0.111  52.140  1.00  0.00     0.070 C 
BRANCH   4   5
HETATM    5  C5  UNL     1      25.807   1.084  52.054  1.00  0.00    -0.025 A 
HETATM    6  C4  UNL     1      24.613   0.643  52.515  1.00  0.00    -0.013 A 
HETATM    7  C3  UNL     1      23.295   1.336  52.596  1.00  0.00     0.063 A 
HETATM    8  C2  UNL     1      23.439   2.701  51.997  1.00  0.00    -0.056 A 
HETATM    9  C1  UNL     1      22.191   3.184  52.090  1.00  0.00     0.040 C 
HETATM   10  C11 UNL     1      24.723   3.248  51.466  1.00  0.00     0.042 A 
HETATM   11  C10 UNL     1      25.716   2.415  51.553  1.00  0.00     0.089 A 
BRANCH  10  12
HETATM   12  S1  UNL     1      24.335   4.817  50.953  1.00  0.00    -0.085 SA
BRANCH  12  13
HETATM   13  C12 UNL     1      25.352   5.822  50.006  1.00  0.00     0.038 A 
HETATM   14  C13 UNL     1      26.230   5.784  48.973  1.00  0.00     0.021 A 
HETATM   15  C14 UNL     1      26.950   6.803  48.426  1.00  0.00     0.002 A 
HETATM   16  C15 UNL     1      26.764   8.038  48.994  1.00  0.00     0.003 A 
HETATM   17  C16 UNL     1      25.890   8.232  50.067  1.00  0.00     0.038 A 
HETATM   18  C17 UNL     1      25.193   7.115  50.560  1.00  0.00     0.082 A 
BRANCH  18  19
HETATM   19  O3  UNL     1      24.406   7.620  51.619  1.00  0.00    -0.359 OA
HETATM   20  H16 UNL     1      24.784   8.437  52.074  1.00  0.00     0.217 HD
ENDBRANCH  18  19
ENDBRANCH  12  13
ENDBRANCH  10  12
BRANCH  11  21
HETATM   21  O2  UNL     1      26.875   2.954  51.060  1.00  0.00    -0.359 OA
HETATM   22  H11 UNL     1      26.905   3.788  50.486  1.00  0.00     0.217 HD
ENDBRANCH  11  21
ENDBRANCH   4   5
ENDBRANCH   1   4
BRANCH   1  23
HETATM   23  C9  UNL     1      28.435   1.252  53.667  1.00  0.00     0.233 C 
HETATM   24  N2  UNL     1      29.839   1.056  53.662  1.00  0.00    -0.369 N 
HETATM   25  H9  UNL     1      30.857   0.951  53.560  1.00  0.00     0.159 HD
HETATM   26  H10 UNL     1      30.272   0.665  54.550  1.00  0.00     0.159 HD
HETATM   27  O1  UNL     1      28.237   2.481  53.923  1.00  0.00    -0.272 OA
ENDBRANCH   1  23
TORSDOF 7
ENDMDL
MODEL 4
REMARK VINA RESULT:      -8.1      3.313      6.748
REMARK  7 active torsions:
REMARK  status: ('A' for Active; 'I' for Inactive)
REMARK    1  A    between atoms: C5_5  and  C6_6 
REMARK    2  A    between atoms: C6_6  and  C7_7 
REMARK    3  A    between atoms: C7_7  and  C9_10 
REMARK       I    between atoms: C9_10  and  N2_11 
REMARK    4  A    between atoms: C10_13  and  O2_14 
REMARK    5  A    between atoms: C11_15  and  S1_16 
REMARK    6  A    between atoms: S1_16  and  C12_17 
REMARK    7  A    between atoms: C17_22  and  O3_23 
ROOT
HETATM    1  C7  UNL     1      27.822   0.491  53.658  1.00  0.00     0.188 C 
HETATM    2  C8  UNL     1      28.720   1.493  54.176  1.00  0.00     0.073 C 
HETATM    3  N1  UNL     1      29.457   2.305  54.578  1.00  0.00    -0.196 NA
ENDROOT
BRANCH   1   4
HETATM    4  C6  UNL     1      26.551   0.304  54.390  1.00  0.00     0.070 C 
BRANCH   4   5
HETATM    5  C5  UNL     1      25.289   0.605  53.763  1.00  0.00    -0.025 A 
HETATM    6  C4  UNL     1      24.467  -0.463  53.636  1.00  0.00    -0.013 A 
HETATM    7  C3  UNL     1      23.099  -0.563  53.051  1.00  0.00     0.063 A 
HETATM    8  C2  UNL     1      22.714   0.780  52.512  1.00  0.00    -0.056 A 
HETATM    9  C1  UNL     1      21.506   0.538  51.983  1.00  0.00     0.040 C 
HETATM   10  C11 UNL     1      23.574   1.997  52.613  1.00  0.00     0.042 A 
HETATM   11  C10 UNL     1      24.711   1.781  53.202  1.00  0.00     0.089 A 
BRANCH  10  12
HETATM   12  S1  UNL     1      22.656   3.226  51.889  1.00  0.00    -0.085 SA
BRANCH  12  13
HETATM   13  C12 UNL     1      23.224   4.292  50.672  1.00  0.00     0.038 A 
HETATM   14  C13 UNL     1      23.291   4.438  49.326  1.00  0.00     0.021 A 
HETATM   15  C14 UNL     1      23.866   5.440  48.602  1.00  0.00     0.002 A 
HETATM   16  C15 UNL     1      24.457   6.440  49.333  1.00  0.00     0.003 A 
HETATM   17  C16 UNL     1      24.467   6.426  50.730  1.00  0.00     0.038 A 
HETATM   18  C17 UNL     1      23.847   5.346  51.383  1.00  0.00     0.082 A 
BRANCH  18  19
HETATM   19  O3  UNL     1      24.018   5.612  52.760  1.00  0.00    -0.359 OA
HETATM   20  H16 UNL     1      24.914   6.004  53.006  1.00  0.00     0.217 HD
ENDBRANCH  18  19
ENDBRANCH  12  13
ENDBRANCH  10  12
BRANCH  11  21
HETATM   21  O2  UNL     1      25.468   2.920  53.279  1.00  0.00    -0.359 OA
HETATM   22  H11 UNL     1      25.458   3.546  54.075  1.00  0.00     0.217 HD
ENDBRANCH  11  21
ENDBRANCH   4   5
ENDBRANCH   1   4
BRANCH   1  23
HETATM   23  C9  UNL     1      28.559  -0.832  53.513  1.00  0.00     0.233 C 
HETATM   24  N2  UNL     1      29.958  -0.700  53.701  1.00  0.00    -0.369 N 
HETATM   25  H9  UNL     1      30.957  -0.637  53.936  1.00  0.00     0.159 HD
HETATM   26  H10 UNL     1      30.524  -0.362  52.868  1.00  0.00     0.159 HD
HETATM   27  O1  UNL     1      28.337  -2.061  53.270  1.00  0.00    -0.272 OA
ENDBRANCH   1  23
TORSDOF 7
ENDMDL
MODEL 5
REMARK VINA RESULT:      -8.0      1.771      2.345
REMARK  7 active torsions:
REMARK  status: ('A' for Active; 'I' for Inactive)
REMARK    1  A    between atoms: C5_5  and  C6_6 
REMARK    2  A    between atoms: C6_6  and  C7_7 
REMARK    3  A    between atoms: C7_7  and  C9_10 
REMARK       I    between atoms: C9_10  and  N2_11 
REMARK    4  A    between atoms: C10_13  and  O2_14 
REMARK    5  A    between atoms: C11_15  and  S1_16 
REMARK    6  A    between atoms: S1_16  and  C12_17 
REMARK    7  A    between atoms: C17_22  and  O3_23 
ROOT
HETATM    1  C7  UNL     1      24.520   4.231  49.500  1.00  0.00     0.188 C 
HETATM    2  C8  UNL     1      24.072   5.321  48.670  1.00  0.00     0.073 C 
HETATM    3  N1  UNL     1      23.717   6.195  47.980  1.00  0.00    -0.196 NA
ENDROOT
BRANCH   1   4
HETATM    4  C6  UNL     1      23.869   4.099  50.820  1.00  0.00     0.070 C 
BRANCH   4   5
HETATM    5  C5  UNL     1      23.843   2.831  51.505  1.00  0.00    -0.025 A 
HETATM    6  C4  UNL     1      22.686   2.144  51.352  1.00  0.00    -0.013 A 
HETATM    7  C3  UNL     1      22.274   0.818  51.892  1.00  0.00     0.063 A 
HETATM    8  C2  UNL     1      23.376   0.295  52.760  1.00  0.00    -0.056 A 
HETATM    9  C1  UNL     1      22.860  -0.858  53.210  1.00  0.00     0.040 C 
HETATM   10  C11 UNL     1      24.673   1.003  52.978  1.00  0.00     0.042 A 
HETATM   11  C10 UNL     1      24.755   2.138  52.352  1.00  0.00     0.089 A 
BRANCH  10  12
HETATM   12  S1  UNL     1      25.553  -0.029  53.996  1.00  0.00    -0.085 SA
BRANCH  12  13
HETATM   13  C12 UNL     1      27.119  -0.644  53.658  1.00  0.00     0.038 A 
HETATM   14  C13 UNL     1      27.756  -1.746  53.193  1.00  0.00     0.021 A 
HETATM   15  C14 UNL     1      29.095  -1.965  53.056  1.00  0.00     0.002 A 
HETATM   16  C15 UNL     1      29.911  -0.931  53.440  1.00  0.00     0.003 A 
HETATM   17  C16 UNL     1      29.397   0.268  53.940  1.00  0.00     0.038 A 
HETATM   18  C17 UNL     1      28.001   0.396  54.042  1.00  0.00     0.082 A 
BRANCH  18  19
HETATM   19  O3  UNL     1      27.795   1.690  54.567  1.00  0.00    -0.359 OA
HETATM   20  H16 UNL     1      27.512   1.713  55.535  1.00  0.00     0.217 HD
ENDBRANCH  18  19
ENDBRANCH  12  13
ENDBRANCH  10  12
BRANCH  11  21
HETATM   21  O2  UNL     1      25.959   2.753  52.572  1.00  0.00    -0.359 OA
HETATM   22  H11 UNL     1      26.642   2.425  53.245  1.00  0.00     0.217 HD
ENDBRANCH  11  21
ENDBRANCH   4   5
ENDBRANCH   1   4
BRANCH   1  23
HETATM   23  C9  UNL     1      26.034   4.289  49.648  1.00  0.00     0.233 C 
HETATM   24  N2  UNL     1      26.553   5.590  49.436  1.00  0.00    -0.369 N 
HETATM   25  H9  UNL     1      26.931   6.545  49.387  1.00  0.00     0.159 HD
HETATM   26  H10 UNL     1      26.700   5.889  48.427  1.00  0.00     0.159 HD
HETATM   27  O1  UNL     1      27.025   3.536  49.907  1.00  0.00    -0.272 OA
ENDBRANCH   1  23
TORSDOF 7
ENDMDL
MODEL 6
REMARK VINA RESULT:      -7.9      3.374      6.791
REMARK  7 active torsions:
REMARK  status: ('A' for Active; 'I' for Inactive)
REMARK    1  A    between atoms: C5_5  and  C6_6 
REMARK    2  A    between atoms: C6_6  and  C7_7 
REMARK    3  A    between atoms: C7_7  and  C9_10 
REMARK       I    between atoms: C9_10  and  N2_11 
REMARK    4  A    between atoms: C10_13  and  O2_14 
REMARK    5  A    between atoms: C11_15  and  S1_16 
REMARK    6  A    between atoms: S1_16  and  C12_17 
REMARK    7  A    between atoms: C17_22  and  O3_23 
ROOT
HETATM    1  C7  UNL     1      27.643   0.030  53.359  1.00  0.00     0.188 C 
HETATM    2  C8  UNL     1      28.499  -1.130  53.381  1.00  0.00     0.073 C 
HETATM    3  N1  UNL     1      29.194  -2.068  53.419  1.00  0.00    -0.196 NA
ENDROOT
BRANCH   1   4
HETATM    4  C6  UNL     1      26.807   0.209  52.154  1.00  0.00     0.070 C 
BRANCH   4   5
HETATM    5  C5  UNL     1      25.618   1.022  52.196  1.00  0.00    -0.025 A 
HETATM    6  C4  UNL     1      24.498   0.348  52.546  1.00  0.00    -0.013 A 
HETATM    7  C3  UNL     1      23.094   0.824  52.700  1.00  0.00     0.063 A 
HETATM    8  C2  UNL     1      23.042   2.275  52.332  1.00  0.00    -0.056 A 
HETATM    9  C1  UNL     1      21.737   2.554  52.466  1.00  0.00     0.040 C 
HETATM   10  C11 UNL     1      24.236   3.077  51.931  1.00  0.00     0.042 A 
HETATM   11  C10 UNL     1      25.338   2.391  51.912  1.00  0.00     0.089 A 
BRANCH  10  12
HETATM   12  S1  UNL     1      23.628   4.638  51.666  1.00  0.00    -0.085 SA
BRANCH  12  13
HETATM   13  C12 UNL     1      23.367   5.344  50.125  1.00  0.00     0.038 A 
HETATM   14  C13 UNL     1      22.402   5.556  49.197  1.00  0.00     0.021 A 
HETATM   15  C14 UNL     1      22.506   6.159  47.979  1.00  0.00     0.002 A 
HETATM   16  C15 UNL     1      23.757   6.613  47.643  1.00  0.00     0.003 A 
HETATM   17  C16 UNL     1      24.851   6.464  48.499  1.00  0.00     0.038 A 
HETATM   18  C17 UNL     1      24.639   5.829  49.735  1.00  0.00     0.082 A 
BRANCH  18  19
HETATM   19  O3  UNL     1      25.904   5.830  50.362  1.00  0.00    -0.359 OA
HETATM   20  H16 UNL     1      25.888   6.051  51.345  1.00  0.00     0.217 HD
ENDBRANCH  18  19
ENDBRANCH  12  13
ENDBRANCH  10  12
BRANCH  11  21
HETATM   21  O2  UNL     1      26.409   3.162  51.545  1.00  0.00    -0.359 OA
HETATM   22  H11 UNL     1      27.120   2.858  50.890  1.00  0.00     0.217 HD
ENDBRANCH  11  21
ENDBRANCH   4   5
ENDBRANCH   1   4
BRANCH   1  23
HETATM   23  C9  UNL     1      28.466   1.280  53.635  1.00  0.00     0.233 C 
HETATM   24  N2  UNL     1      29.862   1.032  53.596  1.00  0.00    -0.369 N 
HETATM   25  H9  UNL     1      30.872   0.890  53.469  1.00  0.00     0.159 HD
HETATM   26  H10 UNL     1      30.301   0.623  54.472  1.00  0.00     0.159 HD
HETATM   27  O1  UNL     1      28.320   2.516  53.897  1.00  0.00    -0.272 OA
ENDBRANCH   1  23
TORSDOF 7
ENDMDL
MODEL 7
REMARK VINA RESULT:      -7.8      2.233      3.175
REMARK  7 active torsions:
REMARK  status: ('A' for Active; 'I' for Inactive)
REMARK    1  A    between atoms: C5_5  and  C6_6 
REMARK    2  A    between atoms: C6_6  and  C7_7 
REMARK    3  A    between atoms: C7_7  and  C9_10 
REMARK       I    between atoms: C9_10  and  N2_11 
REMARK    4  A    between atoms: C10_13  and  O2_14 
REMARK    5  A    between atoms: C11_15  and  S1_16 
REMARK    6  A    between atoms: S1_16  and  C12_17 
REMARK    7  A    between atoms: C17_22  and  O3_23 
ROOT
HETATM    1  C7  UNL     1      23.357   5.148  50.965  1.00  0.00     0.188 C 
HETATM    2  C8  UNL     1      22.642   6.391  50.821  1.00  0.00     0.073 C 
HETATM    3  N1  UNL     1      22.062   7.396  50.684  1.00  0.00    -0.196 NA
ENDROOT
BRANCH   1   4
HETATM    4  C6  UNL     1      23.397   4.565  52.323  1.00  0.00     0.070 C 
BRANCH   4   5
HETATM    5  C5  UNL     1      23.488   3.139  52.510  1.00  0.00    -0.025 A 
HETATM    6  C4  UNL     1      22.290   2.511  52.568  1.00  0.00    -0.013 A 
HETATM    7  C3  UNL     1      21.965   1.068  52.749  1.00  0.00     0.063 A 
HETATM    8  C2  UNL     1      23.245   0.313  52.935  1.00  0.00    -0.056 A 
HETATM    9  C1  UNL     1      22.809  -0.940  53.132  1.00  0.00     0.040 C 
HETATM   10  C11 UNL     1      24.598   0.943  52.889  1.00  0.00     0.042 A 
HETATM   11  C10 UNL     1      24.567   2.225  52.689  1.00  0.00     0.089 A 
BRANCH  10  12
HETATM   12  S1  UNL     1      25.674  -0.349  53.117  1.00  0.00    -0.085 SA
BRANCH  12  13
HETATM   13  C12 UNL     1      27.364  -0.190  53.362  1.00  0.00     0.038 A 
HETATM   14  C13 UNL     1      28.321   0.728  53.642  1.00  0.00     0.021 A 
HETATM   15  C14 UNL     1      29.668   0.552  53.753  1.00  0.00     0.002 A 
HETATM   16  C15 UNL     1      30.121  -0.728  53.555  1.00  0.00     0.003 A 
HETATM   17  C16 UNL     1      29.251  -1.781  53.259  1.00  0.00     0.038 A 
HETATM   18  C17 UNL     1      27.878  -1.495  53.166  1.00  0.00     0.082 A 
BRANCH  18  19
HETATM   19  O3  UNL     1      27.272  -2.734  52.863  1.00  0.00    -0.359 OA
HETATM   20  H16 UNL     1      26.460  -2.954  53.419  1.00  0.00     0.217 HD
ENDBRANCH  18  19
ENDBRANCH  12  13
ENDBRANCH  10  12
BRANCH  11  21
HETATM   21  O2  UNL     1      25.826   2.764  52.649  1.00  0.00    -0.359 OA
HETATM   22  H11 UNL     1      26.585   2.374  52.105  1.00  0.00     0.217 HD
ENDBRANCH  11  21
ENDBRANCH   4   5
ENDBRANCH   1   4
BRANCH   1  23
HETATM   23  C9  UNL     1      24.762   5.296  50.400  1.00  0.00     0.233 C 
HETATM   24  N2  UNL     1      25.353   6.542  50.728  1.00  0.00    -0.369 N 
HETATM   25  H9  UNL     1      25.831   7.396  51.044  1.00  0.00     0.159 HD
HETATM   26  H10 UNL     1      25.087   7.373  50.122  1.00  0.00     0.159 HD
HETATM   27  O1  UNL     1      25.616   4.656  49.708  1.00  0.00    -0.272 OA
ENDBRANCH   1  23
TORSDOF 7
ENDMDL
MODEL 8
REMARK VINA RESULT:      -7.7      3.187      6.920
REMARK  7 active torsions:
REMARK  status: ('A' for Active; 'I' for Inactive)
REMARK    1  A    between atoms: C5_5  and  C6_6 
REMARK    2  A    between atoms: C6_6  and  C7_7 
REMARK    3  A    between atoms: C7_7  and  C9_10 
REMARK       I    between atoms: C9_10  and  N2_11 
REMARK    4  A    between atoms: C10_13  and  O2_14 
REMARK    5  A    between atoms: C11_15  and  S1_16 
REMARK    6  A    between atoms: S1_16  and  C12_17 
REMARK    7  A    between atoms: C17_22  and  O3_23 
ROOT
HETATM    1  C7  UNL     1      27.000   0.703  54.090  1.00  0.00     0.188 C 
HETATM    2  C8  UNL     1      26.210  -0.154  54.938  1.00  0.00     0.073 C 
HETATM    3  N1  UNL     1      25.572  -0.837  55.640  1.00  0.00    -0.196 NA
ENDROOT
BRANCH   1   4
HETATM    4  C6  UNL     1      26.791   0.564  52.634  1.00  0.00     0.070 C 
BRANCH   4   5
HETATM    5  C5  UNL     1      25.944   1.486  51.920  1.00  0.00    -0.025 A 
HETATM    6  C4  UNL     1      24.642   1.118  51.873  1.00  0.00    -0.013 A 
HETATM    7  C3  UNL     1      23.472   1.791  51.241  1.00  0.00     0.063 A 
HETATM    8  C2  UNL     1      23.955   3.024  50.541  1.00  0.00    -0.056 A 
HETATM    9  C1  UNL     1      22.828   3.494  49.986  1.00  0.00     0.040 C 
HETATM   10  C11 UNL     1      25.375   3.484  50.547  1.00  0.00     0.042 A 
HETATM   11  C10 UNL     1      26.171   2.699  51.208  1.00  0.00     0.089 A 
BRANCH  10  12
HETATM   12  S1  UNL     1      25.358   4.924  49.651  1.00  0.00    -0.085 SA
BRANCH  12  13
HETATM   13  C12 UNL     1      26.711   5.593  48.836  1.00  0.00     0.038 A 
HETATM   14  C13 UNL     1      28.015   5.352  48.558  1.00  0.00     0.021 A 
HETATM   15  C14 UNL     1      28.900   6.128  47.869  1.00  0.00     0.002 A 
HETATM   16  C15 UNL     1      28.404   7.316  47.392  1.00  0.00     0.003 A 
HETATM   17  C16 UNL     1      27.078   7.700  47.601  1.00  0.00     0.038 A 
HETATM   18  C17 UNL     1      26.245   6.828  48.324  1.00  0.00     0.082 A 
BRANCH  18  19
HETATM   19  O3  UNL     1      24.992   7.479  48.368  1.00  0.00    -0.359 OA
HETATM   20  H16 UNL     1      24.391   7.188  49.122  1.00  0.00     0.217 HD
ENDBRANCH  18  19
ENDBRANCH  12  13
ENDBRANCH  10  12
BRANCH  11  21
HETATM   21  O2  UNL     1      27.462   3.157  51.194  1.00  0.00    -0.359 OA
HETATM   22  H11 UNL     1      27.827   3.783  50.486  1.00  0.00     0.217 HD
ENDBRANCH  11  21
ENDBRANCH   4   5
ENDBRANCH   1   4
BRANCH   1  23
HETATM   23  C9  UNL     1      28.474   0.550  54.440  1.00  0.00     0.233 C 
HETATM   24  N2  UNL     1      29.123   1.798  54.617  1.00  0.00    -0.369 N 
HETATM   25  H9  UNL     1      29.581   2.689  54.850  1.00  0.00     0.159 HD
HETATM   26  H10 UNL     1      29.446   2.300  53.739  1.00  0.00     0.159 HD
HETATM   27  O1  UNL     1      29.351  -0.350  54.633  1.00  0.00    -0.272 OA
ENDBRANCH   1  23
TORSDOF 7
ENDMDL
MODEL 9
REMARK VINA RESULT:      -7.5      2.129      2.401
REMARK  7 active torsions:
REMARK  status: ('A' for Active; 'I' for Inactive)
REMARK    1  A    between atoms: C5_5  and  C6_6 
REMARK    2  A    between atoms: C6_6  and  C7_7 
REMARK    3  A    between atoms: C7_7  and  C9_10 
REMARK       I    between atoms: C9_10  and  N2_11 
REMARK    4  A    between atoms: C10_13  and  O2_14 
REMARK    5  A    between atoms: C11_15  and  S1_16 
REMARK    6  A    between atoms: S1_16  and  C12_17 
REMARK    7  A    between atoms: C17_22  and  O3_23 
ROOT
HETATM    1  C7  UNL     1      23.538   4.875  49.773  1.00  0.00     0.188 C 
HETATM    2  C8  UNL     1      23.344   5.634  48.563  1.00  0.00     0.073 C 
HETATM    3  N1  UNL     1      23.201   6.262  47.588  1.00  0.00    -0.196 NA
ENDROOT
BRANCH   1   4
HETATM    4  C6  UNL     1      23.081   3.470  49.750  1.00  0.00     0.070 C 
BRANCH   4   5
HETATM    5  C5  UNL     1      23.429   2.564  50.815  1.00  0.00    -0.025 A 
HETATM    6  C4  UNL     1      22.478   1.639  51.087  1.00  0.00    -0.013 A 
HETATM    7  C3  UNL     1      22.458   0.545  52.099  1.00  0.00     0.063 A 
HETATM    8  C2  UNL     1      23.717   0.623  52.906  1.00  0.00    -0.056 A 
HETATM    9  C1  UNL     1      23.547  -0.369  53.793  1.00  0.00     0.040 C 
HETATM   10  C11 UNL     1      24.802   1.620  52.666  1.00  0.00     0.042 A 
HETATM   11  C10 UNL     1      24.547   2.438  51.690  1.00  0.00     0.089 A 
BRANCH  10  12
HETATM   12  S1  UNL     1      25.988   1.242  53.818  1.00  0.00    -0.085 SA
BRANCH  12  13
HETATM   13  C12 UNL     1      27.301   0.169  53.563  1.00  0.00     0.038 A 
HETATM   14  C13 UNL     1      27.584  -1.101  53.182  1.00  0.00     0.021 A 
HETATM   15  C14 UNL     1      28.796  -1.718  53.097  1.00  0.00     0.002 A 
HETATM   16  C15 UNL     1      29.881  -0.952  53.444  1.00  0.00     0.003 A 
HETATM   17  C16 UNL     1      29.745   0.376  53.858  1.00  0.00     0.038 A 
HETATM   18  C17 UNL     1      28.450   0.920  53.911  1.00  0.00     0.082 A 
BRANCH  18  19
HETATM   19  O3  UNL     1      28.635   2.249  54.354  1.00  0.00    -0.359 OA
HETATM   20  H16 UNL     1      28.968   2.335  55.301  1.00  0.00     0.217 HD
ENDBRANCH  18  19
ENDBRANCH  12  13
ENDBRANCH  10  12
BRANCH  11  21
HETATM   21  O2  UNL     1      25.566   3.333  51.497  1.00  0.00    -0.359 OA
HETATM   22  H11 UNL     1      26.495   3.216  51.885  1.00  0.00     0.217 HD
ENDBRANCH  11  21
ENDBRANCH   4   5
ENDBRANCH   1   4
BRANCH   1  23
HETATM   23  C9  UNL     1      22.925   5.621  50.950  1.00  0.00     0.233 C 
HETATM   24  N2  UNL     1      23.894   6.027  51.902  1.00  0.00    -0.369 N 
HETATM   25  H9  UNL     1      24.594   6.416  52.546  1.00  0.00     0.159 HD
HETATM   26  H10 UNL     1      24.209   5.297  52.606  1.00  0.00     0.159 HD
HETATM   27  O1  UNL     1      21.797   6.018  51.383  1.00  0.00    -0.272 OA
ENDBRANCH   1  23
TORSDOF 7
ENDMDL
