MODEL 1
REMARK VINA RESULT:      -8.5      0.000      0.000
REMARK  4 active torsions:
REMARK  status: ('A' for Active; 'I' for Inactive)
REMARK       I    between atoms: C2_2  and  N1_4 
REMARK    1  A    between atoms: N1_4  and  C3_5 
REMARK    2  A    between atoms: C8_10  and  N2_11 
REMARK    3  A    between atoms: N2_11  and  C9_12 
REMARK    4  A    between atoms: C11_15  and  C12_16 
ROOT
HETATM    1  N2  UNL     1      22.589   1.620  52.036  1.00  0.00    -0.188 N 
HETATM    2  H10 UNL     1      21.674   1.352  51.568  1.00  0.00     0.184 HD
ENDROOT
BRANCH   1   3
HETATM    3  C8  UNL     1      23.102   0.694  52.980  1.00  0.00     0.057 A 
HETATM    4  C6  UNL     1      22.283   0.022  53.876  1.00  0.00    -0.035 A 
HETATM    5  C5  UNL     1      22.748  -0.885  54.802  1.00  0.00     0.011 A 
HETATM    6  C7  UNL     1      20.807   0.305  53.828  1.00  0.00     0.050 C 
HETATM    7  C4  UNL     1      24.075  -1.170  54.880  1.00  0.00     0.030 A 
HETATM    8  C3  UNL     1      24.948  -0.539  54.019  1.00  0.00     0.036 A 
HETATM    9  C17 UNL     1      24.428   0.360  53.113  1.00  0.00     0.060 A 
BRANCH   8  10
HETATM   10  N1  UNL     1      26.337  -0.835  54.098  1.00  0.00    -0.327 N 
HETATM   11  C2  UNL     1      27.220   0.175  54.629  1.00  0.00     0.218 C 
HETATM   12  C1  UNL     1      28.693   0.074  54.797  1.00  0.00     0.117 C 
HETATM   13  O1  UNL     1      26.662   1.253  54.984  1.00  0.00    -0.274 OA
HETATM   14  H4  UNL     1      26.858  -1.717  53.816  1.00  0.00     0.169 HD
ENDBRANCH   8  10
ENDBRANCH   1   3
BRANCH   1  15
HETATM   15  C9  UNL     1      23.225   2.843  51.702  1.00  0.00     0.723 A 
HETATM   16  N3  UNL     1      22.879   3.963  52.196  1.00  0.00    -0.099 NA
HETATM   17  C10 UNL     1      23.749   4.995  51.628  1.00  0.00     0.229 A 
HETATM   18  C11 UNL     1      24.656   4.232  50.712  1.00  0.00     0.085 A 
HETATM   19  N5  UNL     1      24.309   2.972  50.790  1.00  0.00    -0.065 NA
BRANCH  18  20
HETATM   20  C12 UNL     1      25.708   4.851  49.913  1.00  0.00     0.009 A 
HETATM   21  C13 UNL     1      26.729   4.116  49.357  1.00  0.00     0.016 A 
HETATM   22  C14 UNL     1      27.684   4.806  48.609  1.00  0.00     0.020 A 
HETATM   23  C15 UNL     1      27.668   6.179  48.396  1.00  0.00     0.116 A 
HETATM   24  N4  UNL     1      26.640   6.862  48.965  1.00  0.00    -0.272 NA
HETATM   25  C16 UNL     1      25.709   6.213  49.689  1.00  0.00     0.129 A 
ENDBRANCH  18  20
ENDBRANCH   1  15
TORSDOF 4
ENDMDL
MODEL 2
REMARK VINA RESULT:      -8.0      4.102      6.651
REMARK  4 active torsions:
REMARK  status: ('A' for Active; 'I' for Inactive)
REMARK       I    between atoms: C2_2  and  N1_4 
REMARK    1  A    between atoms: N1_4  and  C3_5 
REMARK    2  A    between atoms: C8_10  and  N2_11 
REMARK    3  A    between atoms: N2_11  and  C9_12 
REMARK    4  A    between atoms: C11_15  and  C12_16 
ROOT
HETATM    1  N2  UNL     1      20.275   0.024  54.221  1.00  0.00    -0.188 N 
HETATM    2  H10 UNL     1      19.625   0.242  55.033  1.00  0.00     0.184 HD
ENDROOT
BRANCH   1   3
HETATM    3  C8  UNL     1      19.755   0.263  52.924  1.00  0.00     0.057 A 
HETATM    4  C6  UNL     1      18.639  -0.407  52.440  1.00  0.00    -0.035 A 
HETATM    5  C5  UNL     1      18.108  -0.197  51.187  1.00  0.00     0.011 A 
HETATM    6  C7  UNL     1      17.981  -1.416  53.338  1.00  0.00     0.050 C 
HETATM    7  C4  UNL     1      18.672   0.707  50.343  1.00  0.00     0.030 A 
HETATM    8  C3  UNL     1      19.783   1.410  50.757  1.00  0.00     0.036 A 
HETATM    9  C17 UNL     1      20.274   1.160  52.021  1.00  0.00     0.060 A 
BRANCH   8  10
HETATM   10  N1  UNL     1      20.376   2.356  49.877  1.00  0.00    -0.327 N 
HETATM   11  C2  UNL     1      21.316   1.876  48.894  1.00  0.00     0.218 C 
HETATM   12  C1  UNL     1      22.045   2.689  47.884  1.00  0.00     0.117 C 
HETATM   13  O1  UNL     1      21.529   0.630  48.907  1.00  0.00    -0.274 OA
HETATM   14  H4  UNL     1      20.236   3.408  49.820  1.00  0.00     0.169 HD
ENDBRANCH   8  10
ENDBRANCH   1   3
BRANCH   1  15
HETATM   15  C9  UNL     1      21.580  -0.472  54.472  1.00  0.00     0.723 A 
HETATM   16  N3  UNL     1      21.811  -1.459  55.241  1.00  0.00    -0.099 NA
HETATM   17  C10 UNL     1      23.257  -1.689  55.259  1.00  0.00     0.229 A 
HETATM   18  C11 UNL     1      23.797  -0.632  54.343  1.00  0.00     0.085 A 
HETATM   19  N5  UNL     1      22.773   0.057  53.906  1.00  0.00    -0.065 NA
BRANCH  18  20
HETATM   20  C12 UNL     1      25.214  -0.466  54.045  1.00  0.00     0.009 A 
HETATM   21  C13 UNL     1      25.701  -0.527  52.760  1.00  0.00     0.016 A 
HETATM   22  C14 UNL     1      27.075  -0.354  52.585  1.00  0.00     0.020 A 
HETATM   23  C15 UNL     1      27.973  -0.127  53.620  1.00  0.00     0.116 A 
HETATM   24  N4  UNL     1      27.445  -0.075  54.871  1.00  0.00    -0.272 NA
HETATM   25  C16 UNL     1      26.122  -0.240  55.060  1.00  0.00     0.129 A 
ENDBRANCH  18  20
ENDBRANCH   1  15
TORSDOF 4
ENDMDL
MODEL 3
REMARK VINA RESULT:      -7.8      2.596      3.867
REMARK  4 active torsions:
REMARK  status: ('A' for Active; 'I' for Inactive)
REMARK       I    between atoms: C2_2  and  N1_4 
REMARK    1  A    between atoms: N1_4  and  C3_5 
REMARK    2  A    between atoms: C8_10  and  N2_11 
REMARK    3  A    between atoms: N2_11  and  C9_12 
REMARK    4  A    between atoms: C11_15  and  C12_16 
ROOT
HETATM    1  N2  UNL     1      25.575   3.224  49.888  1.00  0.00    -0.188 N 
HETATM    2  H10 UNL     1      24.899   2.650  49.303  1.00  0.00     0.184 HD
ENDROOT
BRANCH   1   3
HETATM    3  C8  UNL     1      25.784   2.776  51.217  1.00  0.00     0.057 A 
HETATM    4  C6  UNL     1      24.794   2.850  52.187  1.00  0.00    -0.035 A 
HETATM    5  C5  UNL     1      24.964   2.422  53.484  1.00  0.00     0.011 A 
HETATM    6  C7  UNL     1      23.465   3.432  51.791  1.00  0.00     0.050 C 
HETATM    7  C4  UNL     1      26.149   1.890  53.884  1.00  0.00     0.030 A 
HETATM    8  C3  UNL     1      27.178   1.785  52.973  1.00  0.00     0.036 A 
HETATM    9  C17 UNL     1      26.954   2.230  51.688  1.00  0.00     0.060 A 
BRANCH   8  10
HETATM   10  N1  UNL     1      28.420   1.230  53.387  1.00  0.00    -0.327 N 
HETATM   11  C2  UNL     1      28.582  -0.202  53.323  1.00  0.00     0.218 C 
HETATM   12  C1  UNL     1      29.788  -0.983  53.705  1.00  0.00     0.117 C 
HETATM   13  O1  UNL     1      27.581  -0.844  52.893  1.00  0.00    -0.274 OA
HETATM   14  H4  UNL     1      29.290   1.717  53.755  1.00  0.00     0.169 HD
ENDBRANCH   8  10
ENDBRANCH   1   3
BRANCH   1  15
HETATM   15  C9  UNL     1      26.208   4.363  49.327  1.00  0.00     0.723 A 
HETATM   16  N3  UNL     1      25.612   5.473  49.152  1.00  0.00    -0.099 NA
HETATM   17  C10 UNL     1      26.567   6.410  48.558  1.00  0.00     0.229 A 
HETATM   18  C11 UNL     1      27.825   5.605  48.433  1.00  0.00     0.085 A 
HETATM   19  N5  UNL     1      27.563   4.409  48.898  1.00  0.00    -0.065 NA
BRANCH  18  20
HETATM   20  C12 UNL     1      29.070   6.128  47.884  1.00  0.00     0.009 A 
HETATM   21  C13 UNL     1      30.247   5.419  47.941  1.00  0.00     0.016 A 
HETATM   22  C14 UNL     1      31.382   6.011  47.385  1.00  0.00     0.020 A 
HETATM   23  C15 UNL     1      31.395   7.262  46.782  1.00  0.00     0.116 A 
HETATM   24  N4  UNL     1      30.209   7.925  46.748  1.00  0.00    -0.272 NA
HETATM   25  C16 UNL     1      29.104   7.369  47.280  1.00  0.00     0.129 A 
ENDBRANCH  18  20
ENDBRANCH   1  15
TORSDOF 4
ENDMDL
MODEL 4
REMARK VINA RESULT:      -7.8      2.348      6.595
REMARK  4 active torsions:
REMARK  status: ('A' for Active; 'I' for Inactive)
REMARK       I    between atoms: C2_2  and  N1_4 
REMARK    1  A    between atoms: N1_4  and  C3_5 
REMARK    2  A    between atoms: C8_10  and  N2_11 
REMARK    3  A    between atoms: N2_11  and  C9_12 
REMARK    4  A    between atoms: C11_15  and  C12_16 
ROOT
HETATM    1  N2  UNL     1      23.312   2.396  52.344  1.00  0.00    -0.188 N 
HETATM    2  H10 UNL     1      22.687   2.941  53.008  1.00  0.00     0.184 HD
ENDROOT
BRANCH   1   3
HETATM    3  C8  UNL     1      23.393   2.890  51.017  1.00  0.00     0.057 A 
HETATM    4  C6  UNL     1      22.612   2.380  49.990  1.00  0.00    -0.035 A 
HETATM    5  C5  UNL     1      22.663   2.838  48.692  1.00  0.00     0.011 A 
HETATM    6  C7  UNL     1      21.660   1.264  50.318  1.00  0.00     0.050 C 
HETATM    7  C4  UNL     1      23.510   3.845  48.351  1.00  0.00     0.030 A 
HETATM    8  C3  UNL     1      24.316   4.401  49.322  1.00  0.00     0.036 A 
HETATM    9  C17 UNL     1      24.224   3.904  50.604  1.00  0.00     0.060 A 
BRANCH   8  10
HETATM   10  N1  UNL     1      25.204   5.455  48.969  1.00  0.00    -0.327 N 
HETATM   11  C2  UNL     1      26.609   5.151  48.847  1.00  0.00     0.218 C 
HETATM   12  C1  UNL     1      27.700   6.097  48.491  1.00  0.00     0.117 C 
HETATM   13  O1  UNL     1      26.926   3.947  49.069  1.00  0.00    -0.274 OA
HETATM   14  H4  UNL     1      24.995   6.479  48.772  1.00  0.00     0.169 HD
ENDBRANCH   8  10
ENDBRANCH   1   3
BRANCH   1  15
HETATM   15  C9  UNL     1      24.008   1.250  52.805  1.00  0.00     0.723 A 
HETATM   16  N3  UNL     1      23.450   0.321  53.471  1.00  0.00    -0.099 NA
HETATM   17  C10 UNL     1      24.465  -0.691  53.773  1.00  0.00     0.229 A 
HETATM   18  C11 UNL     1      25.710  -0.145  53.143  1.00  0.00     0.085 A 
HETATM   19  N5  UNL     1      25.391   0.996  52.587  1.00  0.00    -0.065 NA
BRANCH  18  20
HETATM   20  C12 UNL     1      27.001  -0.820  53.185  1.00  0.00     0.009 A 
HETATM   21  C13 UNL     1      28.150  -0.174  53.580  1.00  0.00     0.016 A 
HETATM   22  C14 UNL     1      29.334  -0.913  53.585  1.00  0.00     0.020 A 
HETATM   23  C15 UNL     1      29.423  -2.249  53.217  1.00  0.00     0.116 A 
HETATM   24  N4  UNL     1      28.263  -2.845  52.836  1.00  0.00    -0.272 NA
HETATM   25  C16 UNL     1      27.111  -2.148  52.825  1.00  0.00     0.129 A 
ENDBRANCH  18  20
ENDBRANCH   1  15
TORSDOF 4
ENDMDL
MODEL 5
REMARK VINA RESULT:      -7.6      2.980      7.562
REMARK  4 active torsions:
REMARK  status: ('A' for Active; 'I' for Inactive)
REMARK       I    between atoms: C2_2  and  N1_4 
REMARK    1  A    between atoms: N1_4  and  C3_5 
REMARK    2  A    between atoms: C8_10  and  N2_11 
REMARK    3  A    between atoms: N2_11  and  C9_12 
REMARK    4  A    between atoms: C11_15  and  C12_16 
ROOT
HETATM    1  N2  UNL     1      25.335   4.386  49.557  1.00  0.00    -0.188 N 
HETATM    2  H10 UNL     1      24.550   4.223  48.860  1.00  0.00     0.184 HD
ENDROOT
BRANCH   1   3
HETATM    3  C8  UNL     1      26.156   5.517  49.317  1.00  0.00     0.057 A 
HETATM    4  C6  UNL     1      25.894   6.756  49.885  1.00  0.00    -0.035 A 
HETATM    5  C5  UNL     1      26.673   7.871  49.675  1.00  0.00     0.011 A 
HETATM    6  C7  UNL     1      24.691   6.878  50.779  1.00  0.00     0.050 C 
HETATM    7  C4  UNL     1      27.769   7.805  48.875  1.00  0.00     0.030 A 
HETATM    8  C3  UNL     1      28.091   6.605  48.276  1.00  0.00     0.036 A 
HETATM    9  C17 UNL     1      27.277   5.520  48.521  1.00  0.00     0.060 A 
BRANCH   8  10
HETATM   10  N1  UNL     1      29.238   6.531  47.438  1.00  0.00    -0.327 N 
HETATM   11  C2  UNL     1      30.413   5.866  47.946  1.00  0.00     0.218 C 
HETATM   12  C1  UNL     1      31.708   5.679  47.241  1.00  0.00     0.117 C 
HETATM   13  O1  UNL     1      30.310   5.400  49.117  1.00  0.00    -0.274 OA
HETATM   14  H4  UNL     1      29.380   6.903  46.452  1.00  0.00     0.169 HD
ENDBRANCH   8  10
ENDBRANCH   1   3
BRANCH   1  15
HETATM   15  C9  UNL     1      25.510   3.498  50.649  1.00  0.00     0.723 A 
HETATM   16  N3  UNL     1      24.595   3.255  51.499  1.00  0.00    -0.099 NA
HETATM   17  C10 UNL     1      25.127   2.301  52.474  1.00  0.00     0.229 A 
HETATM   18  C11 UNL     1      26.528   2.055  52.004  1.00  0.00     0.085 A 
HETATM   19  N5  UNL     1      26.705   2.781  50.929  1.00  0.00    -0.065 NA
BRANCH  18  20
HETATM   20  C12 UNL     1      27.462   1.159  52.675  1.00  0.00     0.009 A 
HETATM   21  C13 UNL     1      28.606   1.620  53.284  1.00  0.00     0.016 A 
HETATM   22  C14 UNL     1      29.431   0.677  53.899  1.00  0.00     0.020 A 
HETATM   23  C15 UNL     1      29.171  -0.686  53.932  1.00  0.00     0.116 A 
HETATM   24  N4  UNL     1      28.029  -1.095  53.318  1.00  0.00    -0.272 NA
HETATM   25  C16 UNL     1      27.221  -0.199  52.720  1.00  0.00     0.129 A 
ENDBRANCH  18  20
ENDBRANCH   1  15
TORSDOF 4
ENDMDL
MODEL 6
REMARK VINA RESULT:      -7.3      2.552      4.170
REMARK  4 active torsions:
REMARK  status: ('A' for Active; 'I' for Inactive)
REMARK       I    between atoms: C2_2  and  N1_4 
REMARK    1  A    between atoms: N1_4  and  C3_5 
REMARK    2  A    between atoms: C8_10  and  N2_11 
REMARK    3  A    between atoms: N2_11  and  C9_12 
REMARK    4  A    between atoms: C11_15  and  C12_16 
ROOT
HETATM    1  N2  UNL     1      25.482   3.703  49.553  1.00  0.00    -0.188 N 
HETATM    2  H10 UNL     1      24.729   3.372  48.881  1.00  0.00     0.184 HD
ENDROOT
BRANCH   1   3
HETATM    3  C8  UNL     1      25.470   3.113  50.843  1.00  0.00     0.057 A 
HETATM    4  C6  UNL     1      24.533   3.458  51.806  1.00  0.00    -0.035 A 
HETATM    5  C5  UNL     1      24.492   2.901  53.065  1.00  0.00     0.011 A 
HETATM    6  C7  UNL     1      23.508   4.497  51.448  1.00  0.00     0.050 C 
HETATM    7  C4  UNL     1      25.400   1.958  53.430  1.00  0.00     0.030 A 
HETATM    8  C3  UNL     1      26.361   1.566  52.523  1.00  0.00     0.036 A 
HETATM    9  C17 UNL     1      26.356   2.155  51.277  1.00  0.00     0.060 A 
BRANCH   8  10
HETATM   10  N1  UNL     1      27.313   0.579  52.901  1.00  0.00    -0.327 N 
HETATM   11  C2  UNL     1      28.630   1.017  53.293  1.00  0.00     0.218 C 
HETATM   12  C1  UNL     1      29.767   0.159  53.721  1.00  0.00     0.117 C 
HETATM   13  O1  UNL     1      28.819   2.267  53.264  1.00  0.00    -0.274 OA
HETATM   14  H4  UNL     1      27.211  -0.478  52.945  1.00  0.00     0.169 HD
ENDBRANCH   8  10
ENDBRANCH   1   3
BRANCH   1  15
HETATM   15  C9  UNL     1      26.423   4.680  49.139  1.00  0.00     0.723 A 
HETATM   16  N3  UNL     1      27.604   4.391  48.764  1.00  0.00    -0.099 NA
HETATM   17  C10 UNL     1      28.284   5.639  48.412  1.00  0.00     0.229 A 
HETATM   18  C11 UNL     1      27.249   6.693  48.665  1.00  0.00     0.085 A 
HETATM   19  N5  UNL     1      26.173   6.080  49.091  1.00  0.00    -0.065 NA
BRANCH  18  20
HETATM   20  C12 UNL     1      27.474   8.117  48.452  1.00  0.00     0.009 A 
HETATM   21  C13 UNL     1      28.024   8.922  49.423  1.00  0.00     0.016 A 
HETATM   22  C14 UNL     1      28.198  10.272  49.116  1.00  0.00     0.020 A 
HETATM   23  C15 UNL     1      27.852  10.848  47.901  1.00  0.00     0.116 A 
HETATM   24  N4  UNL     1      27.313  10.015  46.973  1.00  0.00    -0.272 NA
HETATM   25  C16 UNL     1      27.138   8.709  47.251  1.00  0.00     0.129 A 
ENDBRANCH  18  20
ENDBRANCH   1  15
TORSDOF 4
ENDMDL
MODEL 7
REMARK VINA RESULT:      -7.2      4.030      8.583
REMARK  4 active torsions:
REMARK  status: ('A' for Active; 'I' for Inactive)
REMARK       I    between atoms: C2_2  and  N1_4 
REMARK    1  A    between atoms: N1_4  and  C3_5 
REMARK    2  A    between atoms: C8_10  and  N2_11 
REMARK    3  A    between atoms: N2_11  and  C9_12 
REMARK    4  A    between atoms: C11_15  and  C12_16 
ROOT
HETATM    1  N2  UNL     1      28.162   6.132  47.863  1.00  0.00    -0.188 N 
HETATM    2  H10 UNL     1      27.970   6.290  46.830  1.00  0.00     0.184 HD
ENDROOT
BRANCH   1   3
HETATM    3  C8  UNL     1      29.443   6.530  48.326  1.00  0.00     0.057 A 
HETATM    4  C6  UNL     1      29.733   7.847  48.654  1.00  0.00    -0.035 A 
HETATM    5  C5  UNL     1      30.964   8.265  49.109  1.00  0.00     0.011 A 
HETATM    6  C7  UNL     1      28.640   8.867  48.502  1.00  0.00     0.050 C 
HETATM    7  C4  UNL     1      31.980   7.376  49.261  1.00  0.00     0.030 A 
HETATM    8  C3  UNL     1      31.763   6.050  48.954  1.00  0.00     0.036 A 
HETATM    9  C17 UNL     1      30.512   5.686  48.502  1.00  0.00     0.060 A 
BRANCH   8  10
HETATM   10  N1  UNL     1      32.824   5.116  49.112  1.00  0.00    -0.327 N 
HETATM   11  C2  UNL     1      33.659   4.834  47.970  1.00  0.00     0.218 C 
HETATM   12  C1  UNL     1      34.814   3.898  47.917  1.00  0.00     0.117 C 
HETATM   13  O1  UNL     1      33.363   5.459  46.911  1.00  0.00    -0.274 OA
HETATM   14  H4  UNL     1      33.118   4.564  49.971  1.00  0.00     0.169 HD
ENDBRANCH   8  10
ENDBRANCH   1   3
BRANCH   1  15
HETATM   15  C9  UNL     1      27.166   5.555  48.690  1.00  0.00     0.723 A 
HETATM   16  N3  UNL     1      26.075   6.144  48.977  1.00  0.00    -0.099 NA
HETATM   17  C10 UNL     1      25.297   5.257  49.844  1.00  0.00     0.229 A 
HETATM   18  C11 UNL     1      26.169   4.047  49.990  1.00  0.00     0.085 A 
HETATM   19  N5  UNL     1      27.255   4.270  49.294  1.00  0.00    -0.065 NA
BRANCH  18  20
HETATM   20  C12 UNL     1      25.804   2.877  50.779  1.00  0.00     0.009 A 
HETATM   21  C13 UNL     1      26.751   2.053  51.343  1.00  0.00     0.016 A 
HETATM   22  C14 UNL     1      26.295   0.960  52.081  1.00  0.00     0.020 A 
HETATM   23  C15 UNL     1      24.955   0.655  52.278  1.00  0.00     0.116 A 
HETATM   24  N4  UNL     1      24.056   1.497  51.703  1.00  0.00    -0.272 NA
HETATM   25  C16 UNL     1      24.478   2.557  50.988  1.00  0.00     0.129 A 
ENDBRANCH  18  20
ENDBRANCH   1  15
TORSDOF 4
ENDMDL
MODEL 8
REMARK VINA RESULT:      -7.1     20.421     24.377
REMARK  4 active torsions:
REMARK  status: ('A' for Active; 'I' for Inactive)
REMARK       I    between atoms: C2_2  and  N1_4 
REMARK    1  A    between atoms: N1_4  and  C3_5 
REMARK    2  A    between atoms: C8_10  and  N2_11 
REMARK    3  A    between atoms: N2_11  and  C9_12 
REMARK    4  A    between atoms: C11_15  and  C12_16 
ROOT
HETATM    1  N2  UNL     1      43.501   2.936  69.505  1.00  0.00    -0.188 N 
HETATM    2  H10 UNL     1      43.709   2.948  70.546  1.00  0.00     0.184 HD
ENDROOT
BRANCH   1   3
HETATM    3  C8  UNL     1      43.874   4.098  68.782  1.00  0.00     0.057 A 
HETATM    4  C6  UNL     1      43.428   5.364  69.136  1.00  0.00    -0.035 A 
HETATM    5  C5  UNL     1      43.774   6.511  68.457  1.00  0.00     0.011 A 
HETATM    6  C7  UNL     1      42.519   5.482  70.326  1.00  0.00     0.050 C 
HETATM    7  C4  UNL     1      44.594   6.450  67.374  1.00  0.00     0.030 A 
HETATM    8  C3  UNL     1      45.075   5.225  66.966  1.00  0.00     0.036 A 
HETATM    9  C17 UNL     1      44.697   4.109  67.681  1.00  0.00     0.060 A 
BRANCH   8  10
HETATM   10  N1  UNL     1      45.933   5.157  65.834  1.00  0.00    -0.327 N 
HETATM   11  C2  UNL     1      45.373   4.719  64.579  1.00  0.00     0.218 C 
HETATM   12  C1  UNL     1      46.087   4.576  63.283  1.00  0.00     0.117 C 
HETATM   13  O1  UNL     1      44.141   4.431  64.604  1.00  0.00    -0.274 OA
HETATM   14  H4  UNL     1      46.968   5.385  65.755  1.00  0.00     0.169 HD
ENDBRANCH   8  10
ENDBRANCH   1   3
BRANCH   1  15
HETATM   15  C9  UNL     1      42.886   1.802  68.917  1.00  0.00     0.723 A 
HETATM   16  N3  UNL     1      43.542   0.792  68.506  1.00  0.00    -0.099 NA
HETATM   17  C10 UNL     1      42.587  -0.177  67.964  1.00  0.00     0.229 A 
HETATM   18  C11 UNL     1      41.258   0.489  68.152  1.00  0.00     0.085 A 
HETATM   19  N5  UNL     1      41.486   1.649  68.716  1.00  0.00    -0.065 NA
BRANCH  18  20
HETATM   20  C12 UNL     1      39.989  -0.108  67.754  1.00  0.00     0.009 A 
HETATM   21  C13 UNL     1      38.797   0.257  68.335  1.00  0.00     0.016 A 
HETATM   22  C14 UNL     1      37.639  -0.376  67.881  1.00  0.00     0.020 A 
HETATM   23  C15 UNL     1      37.618  -1.345  66.886  1.00  0.00     0.116 A 
HETATM   24  N4  UNL     1      38.819  -1.672  66.341  1.00  0.00    -0.272 NA
HETATM   25  C16 UNL     1      39.946  -1.072  66.767  1.00  0.00     0.129 A 
ENDBRANCH  18  20
ENDBRANCH   1  15
TORSDOF 4
ENDMDL
MODEL 9
REMARK VINA RESULT:      -7.0      2.760      7.715
REMARK  4 active torsions:
REMARK  status: ('A' for Active; 'I' for Inactive)
REMARK       I    between atoms: C2_2  and  N1_4 
REMARK    1  A    between atoms: N1_4  and  C3_5 
REMARK    2  A    between atoms: C8_10  and  N2_11 
REMARK    3  A    between atoms: N2_11  and  C9_12 
REMARK    4  A    between atoms: C11_15  and  C12_16 
ROOT
HETATM    1  N2  UNL     1      24.570   4.560  49.070  1.00  0.00    -0.188 N 
HETATM    2  H10 UNL     1      24.220   4.000  48.238  1.00  0.00     0.184 HD
ENDROOT
BRANCH   1   3
HETATM    3  C8  UNL     1      25.173   5.809  48.772  1.00  0.00     0.057 A 
HETATM    4  C6  UNL     1      24.503   6.805  48.076  1.00  0.00    -0.035 A 
HETATM    5  C5  UNL     1      25.058   8.029  47.773  1.00  0.00     0.011 A 
HETATM    6  C7  UNL     1      23.095   6.527  47.630  1.00  0.00     0.050 C 
HETATM    7  C4  UNL     1      26.329   8.322  48.157  1.00  0.00     0.030 A 
HETATM    8  C3  UNL     1      27.054   7.379  48.854  1.00  0.00     0.036 A 
HETATM    9  C17 UNL     1      26.449   6.171  49.130  1.00  0.00     0.060 A 
BRANCH   8  10
HETATM   10  N1  UNL     1      28.383   7.682  49.258  1.00  0.00    -0.327 N 
HETATM   11  C2  UNL     1      29.463   7.325  48.371  1.00  0.00     0.218 C 
HETATM   12  C1  UNL     1      30.916   7.549  48.596  1.00  0.00     0.117 C 
HETATM   13  O1  UNL     1      29.118   6.764  47.291  1.00  0.00    -0.274 OA
HETATM   14  H4  UNL     1      28.730   8.149  50.147  1.00  0.00     0.169 HD
ENDBRANCH   8  10
ENDBRANCH   1   3
BRANCH   1  15
HETATM   15  C9  UNL     1      24.419   4.048  50.384  1.00  0.00     0.723 A 
HETATM   16  N3  UNL     1      23.612   4.542  51.234  1.00  0.00    -0.099 NA
HETATM   17  C10 UNL     1      23.724   3.764  52.469  1.00  0.00     0.229 A 
HETATM   18  C11 UNL     1      24.759   2.730  52.146  1.00  0.00     0.085 A 
HETATM   19  N5  UNL     1      25.137   2.938  50.910  1.00  0.00    -0.065 NA
BRANCH  18  20
HETATM   20  C12 UNL     1      25.209   1.713  53.089  1.00  0.00     0.009 A 
HETATM   21  C13 UNL     1      24.600   0.483  53.181  1.00  0.00     0.016 A 
HETATM   22  C14 UNL     1      25.110  -0.418  54.117  1.00  0.00     0.020 A 
HETATM   23  C15 UNL     1      26.185  -0.151  54.954  1.00  0.00     0.116 A 
HETATM   24  N4  UNL     1      26.754   1.077  54.827  1.00  0.00    -0.272 NA
HETATM   25  C16 UNL     1      26.275   1.959  53.930  1.00  0.00     0.129 A 
ENDBRANCH  18  20
ENDBRANCH   1  15
TORSDOF 4
ENDMDL
