MODEL 1
REMARK VINA RESULT:      -8.2      0.000      0.000
REMARK  10 active torsions:
REMARK  status: ('A' for Active; 'I' for Inactive)
REMARK    1  A    between atoms: C2_2  and  C3_3 
REMARK    2  A    between atoms: C3_3  and  N1_4 
REMARK    3  A    between atoms: N1_4  and  C4_5 
REMARK    4  A    between atoms: N2_8  and  C7_9 
REMARK    5  A    between atoms: C7_9  and  N3_10 
REMARK    6  A    between atoms: N3_10  and  C8_11 
REMARK    7  A    between atoms: C11_14  and  N4_15 
REMARK    8  A    between atoms: N4_15  and  C12_16 
REMARK    9  A    between atoms: C12_16  and  C13_17 
REMARK   10  A    between atoms: C23_28  and  O1_29 
ROOT
HETATM    1  N3  UNL     1      26.517   6.303  48.407  1.00  0.00    -0.372 N 
HETATM    2  H12 UNL     1      25.773   6.621  47.727  1.00  0.00     0.161 HD
ENDROOT
BRANCH   1   3
HETATM    3  C7  UNL     1      27.824   6.947  48.457  1.00  0.00     0.272 C 
BRANCH   3   4
HETATM    4  N2  UNL     1      28.864   6.057  48.001  1.00  0.00    -0.255 NA
HETATM    5  C6  UNL     1      30.090   6.290  48.269  1.00  0.00     0.124 C 
HETATM    6  C5  UNL     1      30.991   5.245  47.701  1.00  0.00     0.122 C 
HETATM    7  N5  UNL     1      30.319   7.468  49.028  1.00  0.00    -0.246 NA
HETATM    8  C4  UNL     1      32.188   5.092  48.563  1.00  0.00     0.283 C 
HETATM    9  C23 UNL     1      33.038   6.338  48.419  1.00  0.00     0.080 C 
HETATM   10  C22 UNL     1      32.781   7.620  48.683  1.00  0.00     0.053 C 
HETATM   11  C21 UNL     1      31.473   8.057  49.217  1.00  0.00     0.121 C 
BRANCH   8  12
HETATM   12  N1  UNL     1      33.010   3.956  48.330  1.00  0.00     0.095 N 
HETATM   13  H6  UNL     1      33.033   3.380  49.198  1.00  0.00     0.316 HD
BRANCH  12  14
HETATM   14  C3  UNL     1      32.709   3.108  47.243  1.00  0.00     0.275 C 
BRANCH  14  15
HETATM   15  C2  UNL     1      32.911   1.658  47.449  1.00  0.00     0.019 C 
HETATM   16  C1  UNL     1      32.180   0.753  46.760  1.00  0.00     0.007 C 
ENDBRANCH  14  15
ENDBRANCH  12  14
ENDBRANCH   8  12
BRANCH   9  17
HETATM   17  O1  UNL     1      34.339   6.145  47.919  1.00  0.00    -0.358 OA
HETATM   18  C24 UNL     1      35.495   6.514  48.646  1.00  0.00     0.209 C 
ENDBRANCH   9  17
ENDBRANCH   3   4
ENDBRANCH   1   3
BRANCH   1  19
HETATM   19  C8  UNL     1      26.144   5.219  49.249  1.00  0.00     0.029 A 
HETATM   20  C9  UNL     1      26.839   4.010  49.292  1.00  0.00     0.031 A 
HETATM   21  C10 UNL     1      26.458   2.974  50.118  1.00  0.00     0.031 A 
HETATM   22  C11 UNL     1      25.362   3.111  50.937  1.00  0.00     0.028 A 
HETATM   23  C19 UNL     1      24.649   4.286  50.926  1.00  0.00     0.031 A 
HETATM   24  C20 UNL     1      25.051   5.316  50.084  1.00  0.00     0.031 A 
BRANCH  22  25
HETATM   25  N4  UNL     1      24.979   2.037  51.784  1.00  0.00    -0.386 N 
HETATM   26  H15 UNL     1      24.367   1.277  51.404  1.00  0.00     0.160 HD
BRANCH  25  27
HETATM   27  C12 UNL     1      25.442   2.012  53.160  1.00  0.00     0.158 C 
BRANCH  27  28
HETATM   28  C13 UNL     1      26.626   1.119  53.242  1.00  0.00    -0.041 A 
HETATM   29  C14 UNL     1      27.861   1.541  53.645  1.00  0.00     0.009 A 
HETATM   30  C15 UNL     1      28.998   0.760  53.741  1.00  0.00     0.001 A 
HETATM   31  C16 UNL     1      28.861  -0.588  53.391  1.00  0.00     0.000 A 
HETATM   32  C17 UNL     1      27.627  -1.055  52.979  1.00  0.00     0.001 A 
HETATM   33  C18 UNL     1      26.524  -0.230  52.901  1.00  0.00     0.009 A 
ENDBRANCH  27  28
ENDBRANCH  25  27
ENDBRANCH  22  25
ENDBRANCH   1  19
TORSDOF 10
ENDMDL
MODEL 2
REMARK VINA RESULT:      -8.1      1.931      2.505
REMARK  10 active torsions:
REMARK  status: ('A' for Active; 'I' for Inactive)
REMARK    1  A    between atoms: C2_2  and  C3_3 
REMARK    2  A    between atoms: C3_3  and  N1_4 
REMARK    3  A    between atoms: N1_4  and  C4_5 
REMARK    4  A    between atoms: N2_8  and  C7_9 
REMARK    5  A    between atoms: C7_9  and  N3_10 
REMARK    6  A    between atoms: N3_10  and  C8_11 
REMARK    7  A    between atoms: C11_14  and  N4_15 
REMARK    8  A    between atoms: N4_15  and  C12_16 
REMARK    9  A    between atoms: C12_16  and  C13_17 
REMARK   10  A    between atoms: C23_28  and  O1_29 
ROOT
HETATM    1  N3  UNL     1      27.276   6.524  49.222  1.00  0.00    -0.372 N 
HETATM    2  H12 UNL     1      27.500   6.972  50.153  1.00  0.00     0.161 HD
ENDROOT
BRANCH   1   3
HETATM    3  C7  UNL     1      27.946   6.942  47.998  1.00  0.00     0.272 C 
BRANCH   3   4
HETATM    4  N2  UNL     1      29.023   6.043  47.656  1.00  0.00    -0.255 NA
HETATM    5  C6  UNL     1      30.217   6.274  48.044  1.00  0.00     0.124 C 
HETATM    6  C5  UNL     1      31.165   5.219  47.579  1.00  0.00     0.122 C 
HETATM    7  N5  UNL     1      30.374   7.458  48.812  1.00  0.00    -0.246 NA
HETATM    8  C4  UNL     1      32.268   5.069  48.559  1.00  0.00     0.283 C 
HETATM    9  C23 UNL     1      33.135   6.311  48.490  1.00  0.00     0.080 C 
HETATM   10  C22 UNL     1      32.858   7.595  48.717  1.00  0.00     0.053 C 
HETATM   11  C21 UNL     1      31.506   8.043  49.113  1.00  0.00     0.121 C 
BRANCH   8  12
HETATM   12  N1  UNL     1      33.104   3.928  48.418  1.00  0.00     0.095 N 
HETATM   13  H6  UNL     1      33.031   3.356  49.286  1.00  0.00     0.316 HD
BRANCH  12  14
HETATM   14  C3  UNL     1      32.915   3.076  47.309  1.00  0.00     0.275 C 
BRANCH  14  15
HETATM   15  C2  UNL     1      32.849   1.625  47.583  1.00  0.00     0.019 C 
HETATM   16  C1  UNL     1      32.118   0.805  46.796  1.00  0.00     0.007 C 
ENDBRANCH  14  15
ENDBRANCH  12  14
ENDBRANCH   8  12
BRANCH   9  17
HETATM   17  O1  UNL     1      34.478   6.108  48.125  1.00  0.00    -0.358 OA
HETATM   18  C24 UNL     1      35.518   6.973  48.541  1.00  0.00     0.209 C 
ENDBRANCH   9  17
ENDBRANCH   3   4
ENDBRANCH   1   3
BRANCH   1  19
HETATM   19  C8  UNL     1      26.285   5.504  49.266  1.00  0.00     0.029 A 
HETATM   20  C9  UNL     1      26.583   4.156  49.469  1.00  0.00     0.031 A 
HETATM   21  C10 UNL     1      25.603   3.187  49.508  1.00  0.00     0.031 A 
HETATM   22  C11 UNL     1      24.283   3.533  49.345  1.00  0.00     0.028 A 
HETATM   23  C19 UNL     1      23.945   4.850  49.142  1.00  0.00     0.031 A 
HETATM   24  C20 UNL     1      24.950   5.809  49.106  1.00  0.00     0.031 A 
BRANCH  22  25
HETATM   25  N4  UNL     1      23.282   2.525  49.388  1.00  0.00    -0.386 N 
HETATM   26  H15 UNL     1      23.279   1.774  48.659  1.00  0.00     0.160 HD
BRANCH  25  27
HETATM   27  C12 UNL     1      22.282   2.556  50.439  1.00  0.00     0.158 C 
BRANCH  27  28
HETATM   28  C13 UNL     1      22.628   1.523  51.449  1.00  0.00    -0.041 A 
HETATM   29  C14 UNL     1      23.793   1.527  52.161  1.00  0.00     0.009 A 
HETATM   30  C15 UNL     1      24.172   0.596  53.111  1.00  0.00     0.001 A 
HETATM   31  C16 UNL     1      23.269  -0.445  53.360  1.00  0.00     0.000 A 
HETATM   32  C17 UNL     1      22.078  -0.484  52.660  1.00  0.00     0.001 A 
HETATM   33  C18 UNL     1      21.751   0.473  51.721  1.00  0.00     0.009 A 
ENDBRANCH  27  28
ENDBRANCH  25  27
ENDBRANCH  22  25
ENDBRANCH   1  19
TORSDOF 10
ENDMDL
MODEL 3
REMARK VINA RESULT:      -8.1      3.323      8.946
REMARK  10 active torsions:
REMARK  status: ('A' for Active; 'I' for Inactive)
REMARK    1  A    between atoms: C2_2  and  C3_3 
REMARK    2  A    between atoms: C3_3  and  N1_4 
REMARK    3  A    between atoms: N1_4  and  C4_5 
REMARK    4  A    between atoms: N2_8  and  C7_9 
REMARK    5  A    between atoms: C7_9  and  N3_10 
REMARK    6  A    between atoms: N3_10  and  C8_11 
REMARK    7  A    between atoms: C11_14  and  N4_15 
REMARK    8  A    between atoms: N4_15  and  C12_16 
REMARK    9  A    between atoms: C12_16  and  C13_17 
REMARK   10  A    between atoms: C23_28  and  O1_29 
ROOT
HETATM    1  N3  UNL     1      24.357   4.521  49.608  1.00  0.00    -0.372 N 
HETATM    2  H12 UNL     1      23.833   3.927  48.908  1.00  0.00     0.161 HD
ENDROOT
BRANCH   1   3
HETATM    3  C7  UNL     1      23.819   4.780  50.937  1.00  0.00     0.272 C 
BRANCH   3   4
HETATM    4  N2  UNL     1      24.450   3.945  51.930  1.00  0.00    -0.255 NA
HETATM    5  C6  UNL     1      24.052   2.749  52.130  1.00  0.00     0.124 C 
HETATM    6  C5  UNL     1      24.843   2.071  53.199  1.00  0.00     0.122 C 
HETATM    7  N5  UNL     1      22.966   2.340  51.311  1.00  0.00    -0.246 NA
HETATM    8  C4  UNL     1      24.907   0.615  52.927  1.00  0.00     0.283 C 
HETATM    9  C23 UNL     1      23.527   0.030  53.152  1.00  0.00     0.080 C 
HETATM   10  C22 UNL     1      22.356   0.277  52.565  1.00  0.00     0.053 C 
HETATM   11  C21 UNL     1      22.222   1.276  51.484  1.00  0.00     0.121 C 
BRANCH   8  12
HETATM   12  N1  UNL     1      25.845  -0.141  53.683  1.00  0.00     0.095 N 
HETATM   13  H6  UNL     1      26.477  -0.641  53.021  1.00  0.00     0.316 HD
BRANCH  12  14
HETATM   14  C3  UNL     1      26.641   0.522  54.640  1.00  0.00     0.275 C 
BRANCH  14  15
HETATM   15  C2  UNL     1      28.077   0.169  54.677  1.00  0.00     0.019 C 
HETATM   16  C1  UNL     1      28.636  -0.559  53.685  1.00  0.00     0.007 C 
ENDBRANCH  14  15
ENDBRANCH  12  14
ENDBRANCH   8  12
BRANCH   9  17
HETATM   17  O1  UNL     1      23.428  -0.954  54.153  1.00  0.00    -0.358 OA
HETATM   18  C24 UNL     1      22.232  -1.187  54.873  1.00  0.00     0.209 C 
ENDBRANCH   9  17
ENDBRANCH   3   4
ENDBRANCH   1   3
BRANCH   1  19
HETATM   19  C8  UNL     1      25.602   5.037  49.151  1.00  0.00     0.029 A 
HETATM   20  C9  UNL     1      26.777   4.284  49.119  1.00  0.00     0.031 A 
HETATM   21  C10 UNL     1      27.970   4.808  48.669  1.00  0.00     0.031 A 
HETATM   22  C11 UNL     1      28.033   6.110  48.234  1.00  0.00     0.028 A 
HETATM   23  C19 UNL     1      26.899   6.887  48.249  1.00  0.00     0.031 A 
HETATM   24  C20 UNL     1      25.707   6.338  48.707  1.00  0.00     0.031 A 
BRANCH  22  25
HETATM   25  N4  UNL     1      29.269   6.639  47.773  1.00  0.00    -0.386 N 
HETATM   26  H15 UNL     1      29.269   7.329  46.985  1.00  0.00     0.160 HD
BRANCH  25  27
HETATM   27  C12 UNL     1      30.506   6.213  48.399  1.00  0.00     0.158 C 
BRANCH  27  28
HETATM   28  C13 UNL     1      31.361   5.574  47.367  1.00  0.00    -0.041 A 
HETATM   29  C14 UNL     1      32.029   6.275  46.403  1.00  0.00     0.009 A 
HETATM   30  C15 UNL     1      32.837   5.739  45.418  1.00  0.00     0.001 A 
HETATM   31  C16 UNL     1      32.979   4.346  45.415  1.00  0.00     0.000 A 
HETATM   32  C17 UNL     1      32.319   3.601  46.375  1.00  0.00     0.001 A 
HETATM   33  C18 UNL     1      31.524   4.189  47.336  1.00  0.00     0.009 A 
ENDBRANCH  27  28
ENDBRANCH  25  27
ENDBRANCH  22  25
ENDBRANCH   1  19
TORSDOF 10
ENDMDL
MODEL 4
REMARK VINA RESULT:      -8.0      5.798      8.783
REMARK  10 active torsions:
REMARK  status: ('A' for Active; 'I' for Inactive)
REMARK    1  A    between atoms: C2_2  and  C3_3 
REMARK    2  A    between atoms: C3_3  and  N1_4 
REMARK    3  A    between atoms: N1_4  and  C4_5 
REMARK    4  A    between atoms: N2_8  and  C7_9 
REMARK    5  A    between atoms: C7_9  and  N3_10 
REMARK    6  A    between atoms: N3_10  and  C8_11 
REMARK    7  A    between atoms: C11_14  and  N4_15 
REMARK    8  A    between atoms: N4_15  and  C12_16 
REMARK    9  A    between atoms: C12_16  and  C13_17 
REMARK   10  A    between atoms: C23_28  and  O1_29 
ROOT
HETATM    1  N3  UNL     1      24.732   0.014  52.932  1.00  0.00    -0.372 N 
HETATM    2  H12 UNL     1      25.253  -0.810  52.525  1.00  0.00     0.161 HD
ENDROOT
BRANCH   1   3
HETATM    3  C7  UNL     1      25.403   1.279  53.200  1.00  0.00     0.272 C 
BRANCH   3   4
HETATM    4  N2  UNL     1      25.887   1.884  51.983  1.00  0.00    -0.255 NA
HETATM    5  C6  UNL     1      25.276   2.872  51.454  1.00  0.00     0.124 C 
HETATM    6  C5  UNL     1      25.948   3.337  50.205  1.00  0.00     0.122 C 
HETATM    7  N5  UNL     1      24.117   3.298  52.155  1.00  0.00    -0.246 NA
HETATM    8  C4  UNL     1      25.733   4.794  50.032  1.00  0.00     0.283 C 
HETATM    9  C23 UNL     1      24.273   5.021  49.695  1.00  0.00     0.080 C 
HETATM   10  C22 UNL     1      23.157   4.747  50.371  1.00  0.00     0.053 C 
HETATM   11  C21 UNL     1      23.190   4.106  51.703  1.00  0.00     0.121 C 
BRANCH   8  12
HETATM   12  N1  UNL     1      26.528   5.451  49.054  1.00  0.00     0.095 N 
HETATM   13  H6  UNL     1      26.781   6.397  49.414  1.00  0.00     0.316 HD
BRANCH  12  14
HETATM   14  C3  UNL     1      27.706   4.822  48.597  1.00  0.00     0.275 C 
BRANCH  14  15
HETATM   15  C2  UNL     1      28.864   5.696  48.312  1.00  0.00     0.019 C 
HETATM   16  C1  UNL     1      28.707   6.855  47.634  1.00  0.00     0.007 C 
ENDBRANCH  14  15
ENDBRANCH  12  14
ENDBRANCH   8  12
BRANCH   9  17
HETATM   17  O1  UNL     1      24.012   5.627  48.453  1.00  0.00    -0.358 OA
HETATM   18  C24 UNL     1      22.860   5.327  47.688  1.00  0.00     0.209 C 
ENDBRANCH   9  17
ENDBRANCH   3   4
ENDBRANCH   1   3
BRANCH   1  19
HETATM   19  C8  UNL     1      23.352  -0.213  53.193  1.00  0.00     0.029 A 
HETATM   20  C9  UNL     1      22.330   0.247  52.362  1.00  0.00     0.031 A 
HETATM   21  C10 UNL     1      21.000   0.012  52.637  1.00  0.00     0.031 A 
HETATM   22  C11 UNL     1      20.641  -0.695  53.759  1.00  0.00     0.028 A 
HETATM   23  C19 UNL     1      21.616  -1.166  54.606  1.00  0.00     0.031 A 
HETATM   24  C20 UNL     1      22.950  -0.917  54.309  1.00  0.00     0.031 A 
BRANCH  22  25
HETATM   25  N4  UNL     1      19.266  -0.931  54.032  1.00  0.00    -0.386 N 
HETATM   26  H15 UNL     1      18.978  -1.229  54.994  1.00  0.00     0.160 HD
BRANCH  25  27
HETATM   27  C12 UNL     1      18.288  -0.756  52.975  1.00  0.00     0.158 C 
BRANCH  27  28
HETATM   28  C13 UNL     1      17.364  -1.919  52.991  1.00  0.00    -0.041 A 
HETATM   29  C14 UNL     1      16.134  -1.913  52.399  1.00  0.00     0.009 A 
HETATM   30  C15 UNL     1      15.233  -2.961  52.380  1.00  0.00     0.001 A 
HETATM   31  C16 UNL     1      15.626  -4.135  53.034  1.00  0.00     0.000 A 
HETATM   32  C17 UNL     1      16.865  -4.182  53.646  1.00  0.00     0.001 A 
HETATM   33  C18 UNL     1      17.726  -3.104  53.633  1.00  0.00     0.009 A 
ENDBRANCH  27  28
ENDBRANCH  25  27
ENDBRANCH  22  25
ENDBRANCH   1  19
TORSDOF 10
ENDMDL
MODEL 5
REMARK VINA RESULT:      -8.0      4.515      6.358
REMARK  10 active torsions:
REMARK  status: ('A' for Active; 'I' for Inactive)
REMARK    1  A    between atoms: C2_2  and  C3_3 
REMARK    2  A    between atoms: C3_3  and  N1_4 
REMARK    3  A    between atoms: N1_4  and  C4_5 
REMARK    4  A    between atoms: N2_8  and  C7_9 
REMARK    5  A    between atoms: C7_9  and  N3_10 
REMARK    6  A    between atoms: N3_10  and  C8_11 
REMARK    7  A    between atoms: C11_14  and  N4_15 
REMARK    8  A    between atoms: N4_15  and  C12_16 
REMARK    9  A    between atoms: C12_16  and  C13_17 
REMARK   10  A    between atoms: C23_28  and  O1_29 
ROOT
HETATM    1  N3  UNL     1      20.155   3.217  51.054  1.00  0.00    -0.372 N 
HETATM    2  H12 UNL     1      19.251   3.356  51.585  1.00  0.00     0.161 HD
ENDROOT
BRANCH   1   3
HETATM    3  C7  UNL     1      20.457   3.992  49.858  1.00  0.00     0.272 C 
BRANCH   3   4
HETATM    4  N2  UNL     1      21.850   3.878  49.498  1.00  0.00    -0.255 NA
HETATM    5  C6  UNL     1      22.682   4.799  49.795  1.00  0.00     0.124 C 
HETATM    6  C5  UNL     1      24.062   4.475  49.329  1.00  0.00     0.122 C 
HETATM    7  N5  UNL     1      22.120   5.906  50.486  1.00  0.00    -0.246 NA
HETATM    8  C4  UNL     1      25.057   5.085  50.243  1.00  0.00     0.283 C 
HETATM    9  C23 UNL     1      25.016   6.588  50.052  1.00  0.00     0.080 C 
HETATM   10  C22 UNL     1      24.036   7.475  50.225  1.00  0.00     0.053 C 
HETATM   11  C21 UNL     1      22.689   7.069  50.681  1.00  0.00     0.121 C 
BRANCH   8  12
HETATM   12  N1  UNL     1      26.404   4.651  50.112  1.00  0.00     0.095 N 
HETATM   13  H6  UNL     1      26.896   4.821  51.016  1.00  0.00     0.316 HD
BRANCH  12  14
HETATM   14  C3  UNL     1      26.656   3.321  49.714  1.00  0.00     0.275 C 
BRANCH  14  15
HETATM   15  C2  UNL     1      26.482   2.270  50.740  1.00  0.00     0.019 C 
HETATM   16  C1  UNL     1      26.921   2.458  52.004  1.00  0.00     0.007 C 
ENDBRANCH  14  15
ENDBRANCH  12  14
ENDBRANCH   8  12
BRANCH   9  17
HETATM   17  O1  UNL     1      26.211   7.189  49.613  1.00  0.00    -0.358 OA
HETATM   18  C24 UNL     1      26.642   8.453  50.081  1.00  0.00     0.209 C 
ENDBRANCH   9  17
ENDBRANCH   3   4
ENDBRANCH   1   3
BRANCH   1  19
HETATM   19  C8  UNL     1      21.028   2.231  51.592  1.00  0.00     0.029 A 
HETATM   20  C9  UNL     1      22.089   2.533  52.446  1.00  0.00     0.031 A 
HETATM   21  C10 UNL     1      22.920   1.559  52.956  1.00  0.00     0.031 A 
HETATM   22  C11 UNL     1      22.718   0.239  52.629  1.00  0.00     0.028 A 
HETATM   23  C19 UNL     1      21.684  -0.103  51.790  1.00  0.00     0.031 A 
HETATM   24  C20 UNL     1      20.860   0.897  51.288  1.00  0.00     0.031 A 
BRANCH  22  25
HETATM   25  N4  UNL     1      23.581  -0.757  53.160  1.00  0.00    -0.386 N 
HETATM   26  H15 UNL     1      23.709  -1.656  52.638  1.00  0.00     0.160 HD
BRANCH  25  27
HETATM   27  C12 UNL     1      24.267  -0.512  54.415  1.00  0.00     0.158 C 
BRANCH  27  28
HETATM   28  C13 UNL     1      25.730  -0.500  54.157  1.00  0.00    -0.041 A 
HETATM   29  C14 UNL     1      26.630   0.153  54.950  1.00  0.00     0.009 A 
HETATM   30  C15 UNL     1      27.998   0.201  54.762  1.00  0.00     0.001 A 
HETATM   31  C16 UNL     1      28.501  -0.488  53.651  1.00  0.00     0.000 A 
HETATM   32  C17 UNL     1      27.622  -1.163  52.824  1.00  0.00     0.001 A 
HETATM   33  C18 UNL     1      26.263  -1.177  53.060  1.00  0.00     0.009 A 
ENDBRANCH  27  28
ENDBRANCH  25  27
ENDBRANCH  22  25
ENDBRANCH   1  19
TORSDOF 10
ENDMDL
MODEL 6
REMARK VINA RESULT:      -7.8      3.169      9.020
REMARK  10 active torsions:
REMARK  status: ('A' for Active; 'I' for Inactive)
REMARK    1  A    between atoms: C2_2  and  C3_3 
REMARK    2  A    between atoms: C3_3  and  N1_4 
REMARK    3  A    between atoms: N1_4  and  C4_5 
REMARK    4  A    between atoms: N2_8  and  C7_9 
REMARK    5  A    between atoms: C7_9  and  N3_10 
REMARK    6  A    between atoms: N3_10  and  C8_11 
REMARK    7  A    between atoms: C11_14  and  N4_15 
REMARK    8  A    between atoms: N4_15  and  C12_16 
REMARK    9  A    between atoms: C12_16  and  C13_17 
REMARK   10  A    between atoms: C23_28  and  O1_29 
ROOT
HETATM    1  N3  UNL     1      24.922   5.006  49.155  1.00  0.00    -0.372 N 
HETATM    2  H12 UNL     1      24.379   4.505  48.399  1.00  0.00     0.161 HD
ENDROOT
BRANCH   1   3
HETATM    3  C7  UNL     1      24.400   5.125  50.511  1.00  0.00     0.272 C 
BRANCH   3   4
HETATM    4  N2  UNL     1      23.789   3.893  50.948  1.00  0.00    -0.255 NA
HETATM    5  C6  UNL     1      24.493   2.951  51.441  1.00  0.00     0.124 C 
HETATM    6  C5  UNL     1      23.658   1.774  51.823  1.00  0.00     0.122 C 
HETATM    7  N5  UNL     1      25.885   3.224  51.512  1.00  0.00    -0.246 NA
HETATM    8  C4  UNL     1      24.274   1.076  52.978  1.00  0.00     0.283 C 
HETATM    9  C23 UNL     1      25.547   0.404  52.501  1.00  0.00     0.080 C 
HETATM   10  C22 UNL     1      26.663   0.902  51.967  1.00  0.00     0.053 C 
HETATM   11  C21 UNL     1      26.837   2.352  51.737  1.00  0.00     0.121 C 
BRANCH   8  12
HETATM   12  N1  UNL     1      23.477   0.107  53.645  1.00  0.00     0.095 N 
HETATM   13  H6  UNL     1      23.833  -0.002  54.618  1.00  0.00     0.316 HD
BRANCH  12  14
HETATM   14  C3  UNL     1      22.080   0.297  53.704  1.00  0.00     0.275 C 
BRANCH  14  15
HETATM   15  C2  UNL     1      21.312  -0.639  54.553  1.00  0.00     0.019 C 
HETATM   16  C1  UNL     1      21.700  -1.927  54.689  1.00  0.00     0.007 C 
ENDBRANCH  14  15
ENDBRANCH  12  14
ENDBRANCH   8  12
BRANCH   9  17
HETATM   17  O1  UNL     1      25.593  -0.996  52.629  1.00  0.00    -0.358 OA
HETATM   18  C24 UNL     1      26.810  -1.717  52.654  1.00  0.00     0.209 C 
ENDBRANCH   9  17
ENDBRANCH   3   4
ENDBRANCH   1   3
BRANCH   1  19
HETATM   19  C8  UNL     1      26.173   5.545  48.745  1.00  0.00     0.029 A 
HETATM   20  C9  UNL     1      26.339   6.869  48.338  1.00  0.00     0.031 A 
HETATM   21  C10 UNL     1      27.564   7.367  47.948  1.00  0.00     0.031 A 
HETATM   22  C11 UNL     1      28.673   6.555  47.950  1.00  0.00     0.028 A 
HETATM   23  C19 UNL     1      28.553   5.243  48.344  1.00  0.00     0.031 A 
HETATM   24  C20 UNL     1      27.308   4.763  48.733  1.00  0.00     0.031 A 
BRANCH  22  25
HETATM   25  N4  UNL     1      29.930   7.080  47.546  1.00  0.00    -0.386 N 
HETATM   26  H15 UNL     1      29.958   7.871  46.860  1.00  0.00     0.160 HD
BRANCH  25  27
HETATM   27  C12 UNL     1      31.150   6.511  48.088  1.00  0.00     0.158 C 
BRANCH  27  28
HETATM   28  C13 UNL     1      31.843   5.765  47.007  1.00  0.00    -0.041 A 
HETATM   29  C14 UNL     1      32.122   4.430  47.073  1.00  0.00     0.009 A 
HETATM   30  C15 UNL     1      32.763   3.683  46.102  1.00  0.00     0.001 A 
HETATM   31  C16 UNL     1      33.159   4.367  44.947  1.00  0.00     0.000 A 
HETATM   32  C17 UNL     1      32.893   5.720  44.841  1.00  0.00     0.001 A 
HETATM   33  C18 UNL     1      32.250   6.417  45.842  1.00  0.00     0.009 A 
ENDBRANCH  27  28
ENDBRANCH  25  27
ENDBRANCH  22  25
ENDBRANCH   1  19
TORSDOF 10
ENDMDL
MODEL 7
REMARK VINA RESULT:      -7.7      3.827      9.077
REMARK  10 active torsions:
REMARK  status: ('A' for Active; 'I' for Inactive)
REMARK    1  A    between atoms: C2_2  and  C3_3 
REMARK    2  A    between atoms: C3_3  and  N1_4 
REMARK    3  A    between atoms: N1_4  and  C4_5 
REMARK    4  A    between atoms: N2_8  and  C7_9 
REMARK    5  A    between atoms: C7_9  and  N3_10 
REMARK    6  A    between atoms: N3_10  and  C8_11 
REMARK    7  A    between atoms: C11_14  and  N4_15 
REMARK    8  A    between atoms: N4_15  and  C12_16 
REMARK    9  A    between atoms: C12_16  and  C13_17 
REMARK   10  A    between atoms: C23_28  and  O1_29 
ROOT
HETATM    1  N3  UNL     1      23.574   4.484  49.846  1.00  0.00    -0.372 N 
HETATM    2  H12 UNL     1      22.983   4.012  49.108  1.00  0.00     0.161 HD
ENDROOT
BRANCH   1   3
HETATM    3  C7  UNL     1      23.076   4.687  51.201  1.00  0.00     0.272 C 
BRANCH   3   4
HETATM    4  N2  UNL     1      23.937   4.061  52.176  1.00  0.00    -0.255 NA
HETATM    5  C6  UNL     1      23.871   2.806  52.399  1.00  0.00     0.124 C 
HETATM    6  C5  UNL     1      24.849   2.375  53.441  1.00  0.00     0.122 C 
HETATM    7  N5  UNL     1      22.902   2.115  51.624  1.00  0.00    -0.246 NA
HETATM    8  C4  UNL     1      25.281   0.981  53.178  1.00  0.00     0.283 C 
HETATM    9  C23 UNL     1      24.110   0.061  53.459  1.00  0.00     0.080 C 
HETATM   10  C22 UNL     1      22.895  -0.015  52.915  1.00  0.00     0.053 C 
HETATM   11  C21 UNL     1      22.467   0.897  51.832  1.00  0.00     0.121 C 
BRANCH   8  12
HETATM   12  N1  UNL     1      26.409   0.508  53.902  1.00  0.00     0.095 N 
HETATM   13  H6  UNL     1      26.074  -0.122  54.661  1.00  0.00     0.316 HD
BRANCH  12  14
HETATM   14  C3  UNL     1      27.442  -0.150  53.202  1.00  0.00     0.275 C 
BRANCH  14  15
HETATM   15  C2  UNL     1      28.812  -0.009  53.741  1.00  0.00     0.019 C 
HETATM   16  C1  UNL     1      29.699  -1.025  53.651  1.00  0.00     0.007 C 
ENDBRANCH  14  15
ENDBRANCH  12  14
ENDBRANCH   8  12
BRANCH   9  17
HETATM   17  O1  UNL     1      24.305  -0.898  54.470  1.00  0.00    -0.358 OA
HETATM   18  C24 UNL     1      23.270  -1.297  55.348  1.00  0.00     0.209 C 
ENDBRANCH   9  17
ENDBRANCH   3   4
ENDBRANCH   1   3
BRANCH   1  19
HETATM   19  C8  UNL     1      24.865   4.898  49.415  1.00  0.00     0.029 A 
HETATM   20  C9  UNL     1      25.157   6.203  49.017  1.00  0.00     0.031 A 
HETATM   21  C10 UNL     1      26.418   6.579  48.606  1.00  0.00     0.031 A 
HETATM   22  C11 UNL     1      27.438   5.658  48.577  1.00  0.00     0.028 A 
HETATM   23  C19 UNL     1      27.194   4.361  48.960  1.00  0.00     0.031 A 
HETATM   24  C20 UNL     1      25.915   4.005  49.371  1.00  0.00     0.031 A 
BRANCH  22  25
HETATM   25  N4  UNL     1      28.734   6.057  48.150  1.00  0.00    -0.386 N 
HETATM   26  H15 UNL     1      29.575   5.572  48.543  1.00  0.00     0.160 HD
BRANCH  25  27
HETATM   27  C12 UNL     1      28.868   7.129  47.181  1.00  0.00     0.158 C 
BRANCH  27  28
HETATM   28  C13 UNL     1      29.459   8.309  47.863  1.00  0.00    -0.041 A 
HETATM   29  C14 UNL     1      30.390   8.216  48.858  1.00  0.00     0.009 A 
HETATM   30  C15 UNL     1      30.975   9.274  49.529  1.00  0.00     0.001 A 
HETATM   31  C16 UNL     1      30.569  10.558  49.146  1.00  0.00     0.000 A 
HETATM   32  C17 UNL     1      29.628  10.694  48.142  1.00  0.00     0.001 A 
HETATM   33  C18 UNL     1      29.077   9.602  47.505  1.00  0.00     0.009 A 
ENDBRANCH  27  28
ENDBRANCH  25  27
ENDBRANCH  22  25
ENDBRANCH   1  19
TORSDOF 10
ENDMDL
MODEL 8
REMARK VINA RESULT:      -7.6      3.556      9.635
REMARK  10 active torsions:
REMARK  status: ('A' for Active; 'I' for Inactive)
REMARK    1  A    between atoms: C2_2  and  C3_3 
REMARK    2  A    between atoms: C3_3  and  N1_4 
REMARK    3  A    between atoms: N1_4  and  C4_5 
REMARK    4  A    between atoms: N2_8  and  C7_9 
REMARK    5  A    between atoms: C7_9  and  N3_10 
REMARK    6  A    between atoms: N3_10  and  C8_11 
REMARK    7  A    between atoms: C11_14  and  N4_15 
REMARK    8  A    between atoms: N4_15  and  C12_16 
REMARK    9  A    between atoms: C12_16  and  C13_17 
REMARK   10  A    between atoms: C23_28  and  O1_29 
ROOT
HETATM    1  N3  UNL     1      25.590   4.089  49.404  1.00  0.00    -0.372 N 
HETATM    2  H12 UNL     1      25.623   3.194  48.844  1.00  0.00     0.161 HD
ENDROOT
BRANCH   1   3
HETATM    3  C7  UNL     1      24.645   4.265  50.499  1.00  0.00     0.272 C 
BRANCH   3   4
HETATM    4  N2  UNL     1      24.149   2.996  50.973  1.00  0.00    -0.255 NA
HETATM    5  C6  UNL     1      24.894   2.214  51.654  1.00  0.00     0.124 C 
HETATM    6  C5  UNL     1      24.180   0.961  52.037  1.00  0.00     0.122 C 
HETATM    7  N5  UNL     1      26.208   2.699  51.886  1.00  0.00    -0.246 NA
HETATM    8  C4  UNL     1      24.705   0.461  53.331  1.00  0.00     0.283 C 
HETATM    9  C23 UNL     1      26.115  -0.048  53.106  1.00  0.00     0.080 C 
HETATM   10  C22 UNL     1      27.219   0.567  52.682  1.00  0.00     0.053 C 
HETATM   11  C21 UNL     1      27.225   2.003  52.330  1.00  0.00     0.121 C 
BRANCH   8  12
HETATM   12  N1  UNL     1      23.956  -0.558  53.980  1.00  0.00     0.095 N 
HETATM   13  H6  UNL     1      23.704  -0.227  54.935  1.00  0.00     0.316 HD
BRANCH  12  14
HETATM   14  C3  UNL     1      22.788  -1.047  53.357  1.00  0.00     0.275 C 
BRANCH  14  15
HETATM   15  C2  UNL     1      21.560  -1.094  54.180  1.00  0.00     0.019 C 
HETATM   16  C1  UNL     1      21.058   0.030  54.738  1.00  0.00     0.007 C 
ENDBRANCH  14  15
ENDBRANCH  12  14
ENDBRANCH   8  12
BRANCH   9  17
HETATM   17  O1  UNL     1      26.332  -1.410  53.384  1.00  0.00    -0.358 OA
HETATM   18  C24 UNL     1      27.090  -2.248  52.532  1.00  0.00     0.209 C 
ENDBRANCH   9  17
ENDBRANCH   3   4
ENDBRANCH   1   3
BRANCH   1  19
HETATM   19  C8  UNL     1      26.524   5.087  49.005  1.00  0.00     0.029 A 
HETATM   20  C9  UNL     1      27.835   4.799  48.624  1.00  0.00     0.031 A 
HETATM   21  C10 UNL     1      28.719   5.784  48.239  1.00  0.00     0.031 A 
HETATM   22  C11 UNL     1      28.322   7.100  48.223  1.00  0.00     0.028 A 
HETATM   23  C19 UNL     1      27.039   7.428  48.591  1.00  0.00     0.031 A 
HETATM   24  C20 UNL     1      26.165   6.417  48.975  1.00  0.00     0.031 A 
BRANCH  22  25
HETATM   25  N4  UNL     1      29.243   8.107  47.825  1.00  0.00    -0.386 N 
HETATM   26  H15 UNL     1      29.004   9.113  47.987  1.00  0.00     0.160 HD
BRANCH  25  27
HETATM   27  C12 UNL     1      30.495   7.723  47.200  1.00  0.00     0.158 C 
BRANCH  27  28
HETATM   28  C13 UNL     1      31.385   8.911  47.160  1.00  0.00    -0.041 A 
HETATM   29  C14 UNL     1      30.987  10.163  47.533  1.00  0.00     0.009 A 
HETATM   30  C15 UNL     1      31.767  11.305  47.518  1.00  0.00     0.001 A 
HETATM   31  C16 UNL     1      33.087  11.155  47.076  1.00  0.00     0.000 A 
HETATM   32  C17 UNL     1      33.528   9.902  46.690  1.00  0.00     0.001 A 
HETATM   33  C18 UNL     1      32.706   8.796  46.726  1.00  0.00     0.009 A 
ENDBRANCH  27  28
ENDBRANCH  25  27
ENDBRANCH  22  25
ENDBRANCH   1  19
TORSDOF 10
ENDMDL
MODEL 9
REMARK VINA RESULT:      -7.6      3.682      9.326
REMARK  10 active torsions:
REMARK  status: ('A' for Active; 'I' for Inactive)
REMARK    1  A    between atoms: C2_2  and  C3_3 
REMARK    2  A    between atoms: C3_3  and  N1_4 
REMARK    3  A    between atoms: N1_4  and  C4_5 
REMARK    4  A    between atoms: N2_8  and  C7_9 
REMARK    5  A    between atoms: C7_9  and  N3_10 
REMARK    6  A    between atoms: N3_10  and  C8_11 
REMARK    7  A    between atoms: C11_14  and  N4_15 
REMARK    8  A    between atoms: N4_15  and  C12_16 
REMARK    9  A    between atoms: C12_16  and  C13_17 
REMARK   10  A    between atoms: C23_28  and  O1_29 
ROOT
HETATM    1  N3  UNL     1      23.364   4.423  49.502  1.00  0.00    -0.372 N 
HETATM    2  H12 UNL     1      22.862   3.943  48.706  1.00  0.00     0.161 HD
ENDROOT
BRANCH   1   3
HETATM    3  C7  UNL     1      22.688   4.712  50.761  1.00  0.00     0.272 C 
BRANCH   3   4
HETATM    4  N2  UNL     1      23.145   3.837  51.814  1.00  0.00    -0.255 NA
HETATM    5  C6  UNL     1      22.806   2.606  51.837  1.00  0.00     0.124 C 
HETATM    6  C5  UNL     1      23.389   1.892  53.010  1.00  0.00     0.122 C 
HETATM    7  N5  UNL     1      21.966   2.202  50.766  1.00  0.00    -0.246 NA
HETATM    8  C4  UNL     1      23.626   0.469  52.664  1.00  0.00     0.283 C 
HETATM    9  C23 UNL     1      22.280  -0.215  52.528  1.00  0.00     0.080 C 
HETATM   10  C22 UNL     1      21.254   0.008  51.707  1.00  0.00     0.053 C 
HETATM   11  C21 UNL     1      21.287   1.083  50.692  1.00  0.00     0.121 C 
BRANCH   8  12
HETATM   12  N1  UNL     1      24.427  -0.288  53.561  1.00  0.00     0.095 N 
HETATM   13  H6  UNL     1      24.203  -1.298  53.434  1.00  0.00     0.316 HD
BRANCH  12  14
HETATM   14  C3  UNL     1      25.829  -0.136  53.517  1.00  0.00     0.275 C 
BRANCH  14  15
HETATM   15  C2  UNL     1      26.440   0.059  52.185  1.00  0.00     0.019 C 
HETATM   16  C1  UNL     1      26.965   1.254  51.833  1.00  0.00     0.007 C 
ENDBRANCH  14  15
ENDBRANCH  12  14
ENDBRANCH   8  12
BRANCH   9  17
HETATM   17  O1  UNL     1      22.036  -1.282  53.412  1.00  0.00    -0.358 OA
HETATM   18  C24 UNL     1      21.138  -1.178  54.500  1.00  0.00     0.209 C 
ENDBRANCH   9  17
ENDBRANCH   3   4
ENDBRANCH   1   3
BRANCH   1  19
HETATM   19  C8  UNL     1      24.723   4.758  49.247  1.00  0.00     0.029 A 
HETATM   20  C9  UNL     1      25.128   6.013  48.791  1.00  0.00     0.031 A 
HETATM   21  C10 UNL     1      26.452   6.314  48.553  1.00  0.00     0.031 A 
HETATM   22  C11 UNL     1      27.425   5.365  48.763  1.00  0.00     0.028 A 
HETATM   23  C19 UNL     1      27.069   4.115  49.211  1.00  0.00     0.031 A 
HETATM   24  C20 UNL     1      25.727   3.835  49.444  1.00  0.00     0.031 A 
BRANCH  22  25
HETATM   25  N4  UNL     1      28.786   5.686  48.514  1.00  0.00    -0.386 N 
HETATM   26  H15 UNL     1      29.494   4.916  48.462  1.00  0.00     0.160 HD
BRANCH  25  27
HETATM   27  C12 UNL     1      29.172   7.074  48.337  1.00  0.00     0.158 C 
BRANCH  27  28
HETATM   28  C13 UNL     1      30.650   7.169  48.445  1.00  0.00    -0.041 A 
HETATM   29  C14 UNL     1      31.444   6.135  48.852  1.00  0.00     0.009 A 
HETATM   30  C15 UNL     1      32.821   6.162  48.973  1.00  0.00     0.001 A 
HETATM   31  C16 UNL     1      33.453   7.368  48.644  1.00  0.00     0.000 A 
HETATM   32  C17 UNL     1      32.684   8.439  48.227  1.00  0.00     0.001 A 
HETATM   33  C18 UNL     1      31.311   8.355  48.125  1.00  0.00     0.009 A 
ENDBRANCH  27  28
ENDBRANCH  25  27
ENDBRANCH  22  25
ENDBRANCH   1  19
TORSDOF 10
ENDMDL
