MODEL 1
REMARK VINA RESULT:      -7.2      0.000      0.000
REMARK  8 active torsions:
REMARK  status: ('A' for Active; 'I' for Inactive)
REMARK    1  A    between atoms: C6_7  and  C7_8 
REMARK    2  A    between atoms: C7_8  and  O1_9 
REMARK    3  A    between atoms: C10_12  and  N2_13 
REMARK    4  A    between atoms: N2_13  and  C11_14 
REMARK    5  A    between atoms: C14_18  and  O3_19 
REMARK    6  A    between atoms: O3_19  and  C15_20 
REMARK    7  A    between atoms: C15_20  and  C16_21 
REMARK    8  A    between atoms: C16_21  and  O4_22 
ROOT
HETATM    1  C1  UNL     1      26.497   3.198  49.922  1.00  0.00     0.018 C 
HETATM    2  C2  UNL     1      26.687   2.696  51.008  1.00  0.00    -0.077 C 
HETATM    3  C3  UNL     1      26.919   2.081  52.282  1.00  0.00     0.028 A 
HETATM    4  C4  UNL     1      28.124   2.259  52.787  1.00  0.00     0.040 A 
HETATM    5  C5  UNL     1      28.318   1.617  54.080  1.00  0.00     0.113 A 
HETATM    6  N1  UNL     1      27.498   0.929  54.757  1.00  0.00    -0.289 NA
HETATM    7  C6  UNL     1      26.156   0.656  54.322  1.00  0.00     0.167 A 
HETATM    8  C9  UNL     1      25.905   1.316  52.992  1.00  0.00     0.002 A 
HETATM    9  C10 UNL     1      24.701   1.179  52.483  1.00  0.00     0.094 C 
ENDROOT
BRANCH   7  10
HETATM   10  C7  UNL     1      25.893  -0.801  54.277  1.00  0.00     0.199 C 
BRANCH  10  11
HETATM   11  O1  UNL     1      25.263  -1.283  55.370  1.00  0.00    -0.394 OA
HETATM   12  C8  UNL     1      23.896  -1.290  55.414  1.00  0.00     0.201 C 
ENDBRANCH  10  11
ENDBRANCH   7  10
BRANCH   9  13
HETATM   13  N2  UNL     1      24.082   1.625  51.319  1.00  0.00    -0.389 N 
HETATM   14  H11 UNL     1      24.922   1.899  50.723  1.00  0.00     0.159 HD
BRANCH  13  15
HETATM   15  C11 UNL     1      22.742   1.787  50.792  1.00  0.00     0.134 C 
HETATM   16  C12 UNL     1      21.833   0.811  51.445  1.00  0.00     0.202 C 
HETATM   17  O2  UNL     1      20.563   0.687  50.815  1.00  0.00    -0.358 OA
HETATM   18  C13 UNL     1      19.387   1.424  51.145  1.00  0.00     0.171 C 
HETATM   19  C14 UNL     1      19.218   2.624  51.759  1.00  0.00     0.091 C 
HETATM   20  C18 UNL     1      20.271   3.541  52.281  1.00  0.00     0.049 C 
HETATM   21  C19 UNL     1      21.538   3.738  51.839  1.00  0.00    -0.011 A 
HETATM   22  C20 UNL     1      22.630   4.618  52.299  1.00  0.00     0.120 A 
HETATM   23  C21 UNL     1      22.380   3.201  50.723  1.00  0.00     0.166 A 
HETATM   24  N3  UNL     1      23.318   4.126  51.325  1.00  0.00    -0.289 NA
BRANCH  19  25
HETATM   25  O3  UNL     1      17.961   3.158  51.982  1.00  0.00    -0.347 OA
BRANCH  25  26
HETATM   26  C15 UNL     1      17.101   3.614  50.964  1.00  0.00     0.201 C 
BRANCH  26  27
HETATM   27  C16 UNL     1      15.882   4.308  51.498  1.00  0.00     0.193 C 
BRANCH  27  28
HETATM   28  O4  UNL     1      15.882   4.501  52.854  1.00  0.00    -0.394 OA
HETATM   29  C17 UNL     1      14.722   4.190  53.514  1.00  0.00     0.201 C 
ENDBRANCH  27  28
ENDBRANCH  26  27
ENDBRANCH  25  26
ENDBRANCH  19  25
ENDBRANCH  13  15
ENDBRANCH   9  13
TORSDOF 8
ENDMDL
MODEL 2
REMARK VINA RESULT:      -7.1      3.441      6.174
REMARK  8 active torsions:
REMARK  status: ('A' for Active; 'I' for Inactive)
REMARK    1  A    between atoms: C6_7  and  C7_8 
REMARK    2  A    between atoms: C7_8  and  O1_9 
REMARK    3  A    between atoms: C10_12  and  N2_13 
REMARK    4  A    between atoms: N2_13  and  C11_14 
REMARK    5  A    between atoms: C14_18  and  O3_19 
REMARK    6  A    between atoms: O3_19  and  C15_20 
REMARK    7  A    between atoms: C15_20  and  C16_21 
REMARK    8  A    between atoms: C16_21  and  O4_22 
ROOT
HETATM    1  C1  UNL     1      20.468   1.015  53.004  1.00  0.00     0.018 C 
HETATM    2  C2  UNL     1      21.452   0.477  53.464  1.00  0.00    -0.077 C 
HETATM    3  C3  UNL     1      22.619  -0.140  54.023  1.00  0.00     0.028 A 
HETATM    4  C4  UNL     1      22.400  -0.947  55.043  1.00  0.00     0.040 A 
HETATM    5  C5  UNL     1      23.611  -1.550  55.582  1.00  0.00     0.113 A 
HETATM    6  N1  UNL     1      24.811  -1.399  55.205  1.00  0.00    -0.289 NA
HETATM    7  C6  UNL     1      25.187  -0.548  54.111  1.00  0.00     0.167 A 
HETATM    8  C9  UNL     1      23.961   0.087  53.510  1.00  0.00     0.002 A 
HETATM    9  C10 UNL     1      24.151   0.871  52.473  1.00  0.00     0.094 C 
ENDROOT
BRANCH   7  10
HETATM   10  C7  UNL     1      26.185   0.462  54.535  1.00  0.00     0.199 C 
BRANCH  10  11
HETATM   11  O1  UNL     1      27.242  -0.050  55.200  1.00  0.00    -0.394 OA
HETATM   12  C8  UNL     1      28.489   0.016  54.639  1.00  0.00     0.201 C 
ENDBRANCH  10  11
ENDBRANCH   7  10
BRANCH   9  13
HETATM   13  N2  UNL     1      23.309   1.617  51.652  1.00  0.00    -0.389 N 
HETATM   14  H11 UNL     1      22.869   0.855  51.052  1.00  0.00     0.159 HD
BRANCH  13  15
HETATM   15  C11 UNL     1      22.938   3.002  51.445  1.00  0.00     0.134 C 
HETATM   16  C12 UNL     1      24.100   3.876  51.749  1.00  0.00     0.202 C 
HETATM   17  O2  UNL     1      23.778   5.258  51.850  1.00  0.00    -0.358 OA
HETATM   18  C13 UNL     1      23.826   6.211  50.789  1.00  0.00     0.171 C 
HETATM   19  C14 UNL     1      23.760   6.062  49.441  1.00  0.00     0.091 C 
HETATM   20  C18 UNL     1      23.614   4.796  48.666  1.00  0.00     0.049 C 
HETATM   21  C19 UNL     1      22.985   3.645  49.008  1.00  0.00    -0.011 A 
HETATM   22  C20 UNL     1      22.798   2.362  48.303  1.00  0.00     0.120 A 
HETATM   23  C21 UNL     1      22.205   3.159  50.191  1.00  0.00     0.166 A 
HETATM   24  N3  UNL     1      22.135   1.986  49.344  1.00  0.00    -0.289 NA
BRANCH  19  25
HETATM   25  O3  UNL     1      23.830   7.146  48.583  1.00  0.00    -0.347 OA
BRANCH  25  26
HETATM   26  C15 UNL     1      24.845   7.335  47.625  1.00  0.00     0.201 C 
BRANCH  26  27
HETATM   27  C16 UNL     1      26.139   7.795  48.232  1.00  0.00     0.193 C 
BRANCH  27  28
HETATM   28  O4  UNL     1      27.226   7.024  47.916  1.00  0.00    -0.394 OA
HETATM   29  C17 UNL     1      27.299   5.797  48.522  1.00  0.00     0.201 C 
ENDBRANCH  27  28
ENDBRANCH  26  27
ENDBRANCH  25  26
ENDBRANCH  19  25
ENDBRANCH  13  15
ENDBRANCH   9  13
TORSDOF 8
ENDMDL
MODEL 3
REMARK VINA RESULT:      -6.9      3.322      5.251
REMARK  8 active torsions:
REMARK  status: ('A' for Active; 'I' for Inactive)
REMARK    1  A    between atoms: C6_7  and  C7_8 
REMARK    2  A    between atoms: C7_8  and  O1_9 
REMARK    3  A    between atoms: C10_12  and  N2_13 
REMARK    4  A    between atoms: N2_13  and  C11_14 
REMARK    5  A    between atoms: C14_18  and  O3_19 
REMARK    6  A    between atoms: O3_19  and  C15_20 
REMARK    7  A    between atoms: C15_20  and  C16_21 
REMARK    8  A    between atoms: C16_21  and  O4_22 
ROOT
HETATM    1  C1  UNL     1      20.740   1.315  52.676  1.00  0.00     0.018 C 
HETATM    2  C2  UNL     1      21.636   0.710  53.224  1.00  0.00    -0.077 C 
HETATM    3  C3  UNL     1      22.700   0.014  53.886  1.00  0.00     0.028 A 
HETATM    4  C4  UNL     1      22.340  -0.717  54.924  1.00  0.00     0.040 A 
HETATM    5  C5  UNL     1      23.451  -1.405  55.567  1.00  0.00     0.113 A 
HETATM    6  N1  UNL     1      24.681  -1.388  55.265  1.00  0.00    -0.289 NA
HETATM    7  C6  UNL     1      25.206  -0.632  54.162  1.00  0.00     0.167 A 
HETATM    8  C9  UNL     1      24.087   0.086  53.455  1.00  0.00     0.002 A 
HETATM    9  C10 UNL     1      24.417   0.796  52.399  1.00  0.00     0.094 C 
ENDROOT
BRANCH   7  10
HETATM   10  C7  UNL     1      26.269   0.299  54.608  1.00  0.00     0.199 C 
BRANCH  10  11
HETATM   11  O1  UNL     1      27.360  -0.311  55.118  1.00  0.00    -0.394 OA
HETATM   12  C8  UNL     1      28.604   0.048  54.674  1.00  0.00     0.201 C 
ENDBRANCH  10  11
ENDBRANCH   7  10
BRANCH   9  13
HETATM   13  N2  UNL     1      23.705   1.576  51.492  1.00  0.00    -0.389 N 
HETATM   14  H11 UNL     1      22.730   1.153  51.568  1.00  0.00     0.159 HD
BRANCH  13  15
HETATM   15  C11 UNL     1      23.942   2.681  50.585  1.00  0.00     0.134 C 
HETATM   16  C12 UNL     1      22.963   2.623  49.469  1.00  0.00     0.202 C 
HETATM   17  O2  UNL     1      23.271   3.486  48.380  1.00  0.00    -0.358 OA
HETATM   18  C13 UNL     1      22.807   4.824  48.211  1.00  0.00     0.171 C 
HETATM   19  C14 UNL     1      22.361   5.743  49.107  1.00  0.00     0.091 C 
HETATM   20  C18 UNL     1      22.230   5.591  50.585  1.00  0.00     0.049 C 
HETATM   21  C19 UNL     1      22.965   4.840  51.442  1.00  0.00    -0.011 A 
HETATM   22  C20 UNL     1      22.898   4.640  52.903  1.00  0.00     0.120 A 
HETATM   23  C21 UNL     1      24.144   3.924  51.326  1.00  0.00     0.166 A 
HETATM   24  N3  UNL     1      23.912   3.857  52.754  1.00  0.00    -0.289 NA
BRANCH  19  25
HETATM   25  O3  UNL     1      21.951   7.005  48.715  1.00  0.00    -0.347 OA
BRANCH  25  26
HETATM   26  C15 UNL     1      22.460   8.205  49.248  1.00  0.00     0.201 C 
BRANCH  26  27
HETATM   27  C16 UNL     1      23.892   8.450  48.869  1.00  0.00     0.193 C 
BRANCH  27  28
HETATM   28  O4  UNL     1      24.749   8.585  49.929  1.00  0.00    -0.394 OA
HETATM   29  C17 UNL     1      25.446   7.463  50.295  1.00  0.00     0.201 C 
ENDBRANCH  27  28
ENDBRANCH  26  27
ENDBRANCH  25  26
ENDBRANCH  19  25
ENDBRANCH  13  15
ENDBRANCH   9  13
TORSDOF 8
ENDMDL
MODEL 4
REMARK VINA RESULT:      -6.8      3.862      6.260
REMARK  8 active torsions:
REMARK  status: ('A' for Active; 'I' for Inactive)
REMARK    1  A    between atoms: C6_7  and  C7_8 
REMARK    2  A    between atoms: C7_8  and  O1_9 
REMARK    3  A    between atoms: C10_12  and  N2_13 
REMARK    4  A    between atoms: N2_13  and  C11_14 
REMARK    5  A    between atoms: C14_18  and  O3_19 
REMARK    6  A    between atoms: O3_19  and  C15_20 
REMARK    7  A    between atoms: C15_20  and  C16_21 
REMARK    8  A    between atoms: C16_21  and  O4_22 
ROOT
HETATM    1  C1  UNL     1      26.271   2.988  50.021  1.00  0.00     0.018 C 
HETATM    2  C2  UNL     1      26.647   4.053  49.583  1.00  0.00    -0.077 C 
HETATM    3  C3  UNL     1      27.105   5.317  49.084  1.00  0.00     0.028 A 
HETATM    4  C4  UNL     1      28.175   5.269  48.314  1.00  0.00     0.040 A 
HETATM    5  C5  UNL     1      28.607   6.573  47.831  1.00  0.00     0.113 A 
HETATM    6  N1  UNL     1      28.100   7.712  48.054  1.00  0.00    -0.289 NA
HETATM    7  C6  UNL     1      26.938   7.906  48.876  1.00  0.00     0.167 A 
HETATM    8  C9  UNL     1      26.445   6.578  49.386  1.00  0.00     0.002 A 
HETATM    9  C10 UNL     1      25.362   6.598  50.130  1.00  0.00     0.094 C 
ENDROOT
BRANCH   7  10
HETATM   10  C7  UNL     1      27.214   8.857  49.978  1.00  0.00     0.199 C 
BRANCH  10  11
HETATM   11  O1  UNL     1      26.725  10.099  49.773  1.00  0.00    -0.394 OA
HETATM   12  C8  UNL     1      25.853  10.319  48.741  1.00  0.00     0.201 C 
ENDBRANCH  10  11
ENDBRANCH   7  10
BRANCH   9  13
HETATM   13  N2  UNL     1      24.605   5.619  50.769  1.00  0.00    -0.389 N 
HETATM   14  H11 UNL     1      25.363   5.038  51.241  1.00  0.00     0.159 HD
BRANCH  13  15
HETATM   15  C11 UNL     1      23.212   5.249  50.924  1.00  0.00     0.134 C 
HETATM   16  C12 UNL     1      22.736   4.587  49.682  1.00  0.00     0.202 C 
HETATM   17  O2  UNL     1      21.324   4.431  49.611  1.00  0.00    -0.358 OA
HETATM   18  C13 UNL     1      20.582   3.293  50.046  1.00  0.00     0.171 C 
HETATM   19  C14 UNL     1      20.870   2.322  50.951  1.00  0.00     0.091 C 
HETATM   20  C18 UNL     1      22.105   2.175  51.774  1.00  0.00     0.049 C 
HETATM   21  C19 UNL     1      22.934   3.132  52.261  1.00  0.00    -0.011 A 
HETATM   22  C20 UNL     1      24.164   3.066  53.075  1.00  0.00     0.120 A 
HETATM   23  C21 UNL     1      22.983   4.628  52.225  1.00  0.00     0.166 A 
HETATM   24  N3  UNL     1      24.166   4.355  53.016  1.00  0.00    -0.289 NA
BRANCH  19  25
HETATM   25  O3  UNL     1      19.987   1.291  51.222  1.00  0.00    -0.347 OA
BRANCH  25  26
HETATM   26  C15 UNL     1      20.360   0.053  51.780  1.00  0.00     0.201 C 
BRANCH  26  27
HETATM   27  C16 UNL     1      19.708  -0.208  53.107  1.00  0.00     0.193 C 
BRANCH  27  28
HETATM   28  O4  UNL     1      20.350   0.350  54.180  1.00  0.00    -0.394 OA
HETATM   29  C17 UNL     1      21.390  -0.368  54.709  1.00  0.00     0.201 C 
ENDBRANCH  27  28
ENDBRANCH  26  27
ENDBRANCH  25  26
ENDBRANCH  19  25
ENDBRANCH  13  15
ENDBRANCH   9  13
TORSDOF 8
ENDMDL
MODEL 5
REMARK VINA RESULT:      -6.7      4.122      6.964
REMARK  8 active torsions:
REMARK  status: ('A' for Active; 'I' for Inactive)
REMARK    1  A    between atoms: C6_7  and  C7_8 
REMARK    2  A    between atoms: C7_8  and  O1_9 
REMARK    3  A    between atoms: C10_12  and  N2_13 
REMARK    4  A    between atoms: N2_13  and  C11_14 
REMARK    5  A    between atoms: C14_18  and  O3_19 
REMARK    6  A    between atoms: O3_19  and  C15_20 
REMARK    7  A    between atoms: C15_20  and  C16_21 
REMARK    8  A    between atoms: C16_21  and  O4_22 
ROOT
HETATM    1  C1  UNL     1      25.270   1.209  51.944  1.00  0.00     0.018 C 
HETATM    2  C2  UNL     1      24.383   0.744  52.626  1.00  0.00    -0.077 C 
HETATM    3  C3  UNL     1      23.327   0.178  53.415  1.00  0.00     0.028 A 
HETATM    4  C4  UNL     1      23.683  -0.809  54.214  1.00  0.00     0.040 A 
HETATM    5  C5  UNL     1      22.582  -1.356  54.995  1.00  0.00     0.113 A 
HETATM    6  N1  UNL     1      21.363  -1.012  55.000  1.00  0.00    -0.289 NA
HETATM    7  C6  UNL     1      20.843   0.044  54.177  1.00  0.00     0.167 A 
HETATM    8  C9  UNL     1      21.953   0.651  53.361  1.00  0.00     0.002 A 
HETATM    9  C10 UNL     1      21.628   1.658  52.580  1.00  0.00     0.094 C 
ENDROOT
BRANCH   7  10
HETATM   10  C7  UNL     1      19.728  -0.437  53.327  1.00  0.00     0.199 C 
BRANCH  10  11
HETATM   11  O1  UNL     1      19.165  -1.589  53.753  1.00  0.00    -0.394 OA
HETATM   12  C8  UNL     1      17.859  -1.856  53.444  1.00  0.00     0.201 C 
ENDBRANCH  10  11
ENDBRANCH   7  10
BRANCH   9  13
HETATM   13  N2  UNL     1      22.336   2.473  51.701  1.00  0.00    -0.389 N 
HETATM   14  H11 UNL     1      22.922   1.757  51.173  1.00  0.00     0.159 HD
BRANCH  13  15
HETATM   15  C11 UNL     1      22.454   3.880  51.377  1.00  0.00     0.134 C 
HETATM   16  C12 UNL     1      23.670   4.436  52.026  1.00  0.00     0.202 C 
HETATM   17  O2  UNL     1      23.739   5.858  52.009  1.00  0.00    -0.358 OA
HETATM   18  C13 UNL     1      24.372   6.656  51.010  1.00  0.00     0.171 C 
HETATM   19  C14 UNL     1      24.674   6.401  49.711  1.00  0.00     0.091 C 
HETATM   20  C18 UNL     1      24.413   5.152  48.939  1.00  0.00     0.049 C 
HETATM   21  C19 UNL     1      23.410   4.249  49.075  1.00  0.00    -0.011 A 
HETATM   22  C20 UNL     1      23.087   3.001  48.356  1.00  0.00     0.120 A 
HETATM   23  C21 UNL     1      22.207   4.107  49.955  1.00  0.00     0.166 A 
HETATM   24  N3  UNL     1      22.065   2.919  49.138  1.00  0.00    -0.289 NA
BRANCH  19  25
HETATM   25  O3  UNL     1      25.303   7.338  48.911  1.00  0.00    -0.347 OA
BRANCH  25  26
HETATM   26  C15 UNL     1      26.502   7.995  49.250  1.00  0.00     0.201 C 
BRANCH  26  27
HETATM   27  C16 UNL     1      27.712   7.351  48.638  1.00  0.00     0.193 C 
BRANCH  27  28
HETATM   28  O4  UNL     1      28.725   8.218  48.326  1.00  0.00    -0.394 OA
HETATM   29  C17 UNL     1      29.030   9.164  49.269  1.00  0.00     0.201 C 
ENDBRANCH  27  28
ENDBRANCH  26  27
ENDBRANCH  25  26
ENDBRANCH  19  25
ENDBRANCH  13  15
ENDBRANCH   9  13
TORSDOF 8
ENDMDL
MODEL 6
REMARK VINA RESULT:      -6.7      3.371      6.726
REMARK  8 active torsions:
REMARK  status: ('A' for Active; 'I' for Inactive)
REMARK    1  A    between atoms: C6_7  and  C7_8 
REMARK    2  A    between atoms: C7_8  and  O1_9 
REMARK    3  A    between atoms: C10_12  and  N2_13 
REMARK    4  A    between atoms: N2_13  and  C11_14 
REMARK    5  A    between atoms: C14_18  and  O3_19 
REMARK    6  A    between atoms: O3_19  and  C15_20 
REMARK    7  A    between atoms: C15_20  and  C16_21 
REMARK    8  A    between atoms: C16_21  and  O4_22 
ROOT
HETATM    1  C1  UNL     1      26.669   3.014  50.025  1.00  0.00     0.018 C 
HETATM    2  C2  UNL     1      26.563   4.088  49.475  1.00  0.00    -0.077 C 
HETATM    3  C3  UNL     1      26.437   5.370  48.845  1.00  0.00     0.028 A 
HETATM    4  C4  UNL     1      27.571   5.937  48.483  1.00  0.00     0.040 A 
HETATM    5  C5  UNL     1      27.399   7.237  47.849  1.00  0.00     0.113 A 
HETATM    6  N1  UNL     1      26.328   7.871  47.612  1.00  0.00    -0.289 NA
HETATM    7  C6  UNL     1      25.027   7.369  47.957  1.00  0.00     0.167 A 
HETATM    8  C9  UNL     1      25.156   6.015  48.603  1.00  0.00     0.002 A 
HETATM    9  C10 UNL     1      24.037   5.416  48.944  1.00  0.00     0.094 C 
ENDROOT
BRANCH   7  10
HETATM   10  C7  UNL     1      24.294   8.327  48.818  1.00  0.00     0.199 C 
BRANCH  10  11
HETATM   11  O1  UNL     1      23.248   8.928  48.209  1.00  0.00    -0.394 OA
HETATM   12  C8  UNL     1      22.815   8.464  46.997  1.00  0.00     0.201 C 
ENDBRANCH  10  11
ENDBRANCH   7  10
BRANCH   9  13
HETATM   13  N2  UNL     1      23.732   4.194  49.539  1.00  0.00    -0.389 N 
HETATM   14  H11 UNL     1      24.677   3.704  49.513  1.00  0.00     0.159 HD
BRANCH  13  15
HETATM   15  C11 UNL     1      22.584   3.517  50.108  1.00  0.00     0.134 C 
HETATM   16  C12 UNL     1      22.427   2.186  49.467  1.00  0.00     0.202 C 
HETATM   17  O2  UNL     1      21.184   1.551  49.742  1.00  0.00    -0.358 OA
HETATM   18  C13 UNL     1      20.924   0.642  50.810  1.00  0.00     0.171 C 
HETATM   19  C14 UNL     1      21.541   0.457  52.006  1.00  0.00     0.091 C 
HETATM   20  C18 UNL     1      22.718   1.192  52.552  1.00  0.00     0.049 C 
HETATM   21  C19 UNL     1      23.106   2.475  52.342  1.00  0.00    -0.011 A 
HETATM   22  C20 UNL     1      24.246   3.266  52.841  1.00  0.00     0.120 A 
HETATM   23  C21 UNL     1      22.579   3.640  51.563  1.00  0.00     0.166 A 
HETATM   24  N3  UNL     1      23.757   4.242  52.154  1.00  0.00    -0.289 NA
BRANCH  19  25
HETATM   25  O3  UNL     1      21.113  -0.502  52.907  1.00  0.00    -0.347 OA
BRANCH  25  26
HETATM   26  C15 UNL     1      21.955  -1.458  53.508  1.00  0.00     0.201 C 
BRANCH  26  27
HETATM   27  C16 UNL     1      21.763  -1.553  54.993  1.00  0.00     0.193 C 
BRANCH  27  28
HETATM   28  O4  UNL     1      22.916  -1.732  55.710  1.00  0.00    -0.394 OA
HETATM   29  C17 UNL     1      24.040  -1.123  55.218  1.00  0.00     0.201 C 
ENDBRANCH  27  28
ENDBRANCH  26  27
ENDBRANCH  25  26
ENDBRANCH  19  25
ENDBRANCH  13  15
ENDBRANCH   9  13
TORSDOF 8
ENDMDL
MODEL 7
REMARK VINA RESULT:      -6.4      3.135      8.261
REMARK  8 active torsions:
REMARK  status: ('A' for Active; 'I' for Inactive)
REMARK    1  A    between atoms: C6_7  and  C7_8 
REMARK    2  A    between atoms: C7_8  and  O1_9 
REMARK    3  A    between atoms: C10_12  and  N2_13 
REMARK    4  A    between atoms: N2_13  and  C11_14 
REMARK    5  A    between atoms: C14_18  and  O3_19 
REMARK    6  A    between atoms: O3_19  and  C15_20 
REMARK    7  A    between atoms: C15_20  and  C16_21 
REMARK    8  A    between atoms: C16_21  and  O4_22 
ROOT
HETATM    1  C1  UNL     1      23.690   7.074  49.794  1.00  0.00     0.018 C 
HETATM    2  C2  UNL     1      23.266   6.394  48.886  1.00  0.00    -0.077 C 
HETATM    3  C3  UNL     1      22.740   5.594  47.818  1.00  0.00     0.028 A 
HETATM    4  C4  UNL     1      22.550   6.226  46.676  1.00  0.00     0.040 A 
HETATM    5  C5  UNL     1      22.014   5.378  45.621  1.00  0.00     0.113 A 
HETATM    6  N1  UNL     1      21.716   4.148  45.663  1.00  0.00    -0.289 NA
HETATM    7  C6  UNL     1      21.871   3.343  46.843  1.00  0.00     0.167 A 
HETATM    8  C9  UNL     1      22.440   4.178  47.960  1.00  0.00     0.002 A 
HETATM    9  C10 UNL     1      22.667   3.562  49.099  1.00  0.00     0.094 C 
ENDROOT
BRANCH   7  10
HETATM   10  C7  UNL     1      20.592   2.700  47.226  1.00  0.00     0.199 C 
BRANCH  10  11
HETATM   11  O1  UNL     1      19.582   3.568  47.449  1.00  0.00    -0.394 OA
HETATM   12  C8  UNL     1      18.499   3.169  48.185  1.00  0.00     0.201 C 
ENDBRANCH  10  11
ENDBRANCH   7  10
BRANCH   9  13
HETATM   13  N2  UNL     1      23.177   3.959  50.332  1.00  0.00    -0.389 N 
HETATM   14  H11 UNL     1      23.078   5.018  50.272  1.00  0.00     0.159 HD
BRANCH  13  15
HETATM   15  C11 UNL     1      23.739   3.354  51.523  1.00  0.00     0.134 C 
HETATM   16  C12 UNL     1      23.151   2.003  51.716  1.00  0.00     0.202 C 
HETATM   17  O2  UNL     1      23.415   1.431  52.992  1.00  0.00    -0.358 OA
HETATM   18  C13 UNL     1      24.513   0.582  53.320  1.00  0.00     0.171 C 
HETATM   19  C14 UNL     1      25.735   0.426  52.747  1.00  0.00     0.091 C 
HETATM   20  C18 UNL     1      26.284   1.137  51.556  1.00  0.00     0.049 C 
HETATM   21  C19 UNL     1      26.031   2.392  51.110  1.00  0.00    -0.011 A 
HETATM   22  C20 UNL     1      26.530   3.159  49.952  1.00  0.00     0.120 A 
HETATM   23  C21 UNL     1      25.187   3.542  51.565  1.00  0.00     0.166 A 
HETATM   24  N3  UNL     1      25.786   4.122  50.381  1.00  0.00    -0.289 NA
BRANCH  19  25
HETATM   25  O3  UNL     1      26.662  -0.474  53.240  1.00  0.00    -0.347 OA
BRANCH  25  26
HETATM   26  C15 UNL     1      28.056  -0.265  53.226  1.00  0.00     0.201 C 
BRANCH  26  27
HETATM   27  C16 UNL     1      28.614   0.025  54.589  1.00  0.00     0.193 C 
BRANCH  27  28
HETATM   28  O4  UNL     1      28.668   1.354  54.914  1.00  0.00    -0.394 OA
HETATM   29  C17 UNL     1      28.879   2.227  53.879  1.00  0.00     0.201 C 
ENDBRANCH  27  28
ENDBRANCH  26  27
ENDBRANCH  25  26
ENDBRANCH  19  25
ENDBRANCH  13  15
ENDBRANCH   9  13
TORSDOF 8
ENDMDL
MODEL 8
REMARK VINA RESULT:      -6.4      2.785      8.623
REMARK  8 active torsions:
REMARK  status: ('A' for Active; 'I' for Inactive)
REMARK    1  A    between atoms: C6_7  and  C7_8 
REMARK    2  A    between atoms: C7_8  and  O1_9 
REMARK    3  A    between atoms: C10_12  and  N2_13 
REMARK    4  A    between atoms: N2_13  and  C11_14 
REMARK    5  A    between atoms: C14_18  and  O3_19 
REMARK    6  A    between atoms: O3_19  and  C15_20 
REMARK    7  A    between atoms: C15_20  and  C16_21 
REMARK    8  A    between atoms: C16_21  and  O4_22 
ROOT
HETATM    1  C1  UNL     1      21.198   4.244  52.082  1.00  0.00     0.018 C 
HETATM    2  C2  UNL     1      20.150   3.762  51.711  1.00  0.00    -0.077 C 
HETATM    3  C3  UNL     1      18.902   3.193  51.294  1.00  0.00     0.028 A 
HETATM    4  C4  UNL     1      18.006   4.054  50.851  1.00  0.00     0.040 A 
HETATM    5  C5  UNL     1      16.753   3.435  50.440  1.00  0.00     0.113 A 
HETATM    6  N1  UNL     1      16.427   2.211  50.457  1.00  0.00    -0.289 NA
HETATM    7  C6  UNL     1      17.305   1.172  50.918  1.00  0.00     0.167 A 
HETATM    8  C9  UNL     1      18.623   1.766  51.339  1.00  0.00     0.002 A 
HETATM    9  C10 UNL     1      19.543   0.924  51.755  1.00  0.00     0.094 C 
ENDROOT
BRANCH   7  10
HETATM   10  C7  UNL     1      16.679   0.383  52.004  1.00  0.00     0.199 C 
BRANCH  10  11
HETATM   11  O1  UNL     1      16.334  -0.873  51.647  1.00  0.00    -0.394 OA
HETATM   12  C8  UNL     1      15.357  -1.529  52.345  1.00  0.00     0.201 C 
ENDBRANCH  10  11
ENDBRANCH   7  10
BRANCH   9  13
HETATM   13  N2  UNL     1      20.852   1.062  52.210  1.00  0.00    -0.389 N 
HETATM   14  H11 UNL     1      20.755   1.873  52.893  1.00  0.00     0.159 HD
BRANCH  13  15
HETATM   15  C11 UNL     1      22.147   0.447  52.001  1.00  0.00     0.134 C 
HETATM   16  C12 UNL     1      23.209   1.480  52.114  1.00  0.00     0.202 C 
HETATM   17  O2  UNL     1      24.487   1.054  51.657  1.00  0.00    -0.358 OA
HETATM   18  C13 UNL     1      25.510   0.463  52.456  1.00  0.00     0.171 C 
HETATM   19  C14 UNL     1      25.457  -0.209  53.635  1.00  0.00     0.091 C 
HETATM   20  C18 UNL     1      24.252  -0.525  54.455  1.00  0.00     0.049 C 
HETATM   21  C19 UNL     1      22.975  -0.750  54.058  1.00  0.00    -0.011 A 
HETATM   22  C20 UNL     1      21.740  -1.066  54.801  1.00  0.00     0.120 A 
HETATM   23  C21 UNL     1      22.253  -0.804  52.747  1.00  0.00     0.166 A 
HETATM   24  N3  UNL     1      21.160  -1.100  53.650  1.00  0.00    -0.289 NA
BRANCH  19  25
HETATM   25  O3  UNL     1      26.596  -0.705  54.244  1.00  0.00    -0.347 OA
BRANCH  25  26
HETATM   26  C15 UNL     1      27.555   0.092  54.900  1.00  0.00     0.201 C 
BRANCH  26  27
HETATM   27  C16 UNL     1      28.896   0.062  54.227  1.00  0.00     0.193 C 
BRANCH  27  28
HETATM   28  O4  UNL     1      29.104   1.067  53.320  1.00  0.00    -0.394 OA
HETATM   29  C17 UNL     1      28.545   2.282  53.618  1.00  0.00     0.201 C 
ENDBRANCH  27  28
ENDBRANCH  26  27
ENDBRANCH  25  26
ENDBRANCH  19  25
ENDBRANCH  13  15
ENDBRANCH   9  13
TORSDOF 8
ENDMDL
MODEL 9
REMARK VINA RESULT:      -6.3      3.632      4.130
REMARK  8 active torsions:
REMARK  status: ('A' for Active; 'I' for Inactive)
REMARK    1  A    between atoms: C6_7  and  C7_8 
REMARK    2  A    between atoms: C7_8  and  O1_9 
REMARK    3  A    between atoms: C10_12  and  N2_13 
REMARK    4  A    between atoms: N2_13  and  C11_14 
REMARK    5  A    between atoms: C14_18  and  O3_19 
REMARK    6  A    between atoms: O3_19  and  C15_20 
REMARK    7  A    between atoms: C15_20  and  C16_21 
REMARK    8  A    between atoms: C16_21  and  O4_22 
ROOT
HETATM    1  C1  UNL     1      26.622   3.182  49.891  1.00  0.00     0.018 C 
HETATM    2  C2  UNL     1      26.306   2.382  50.743  1.00  0.00    -0.077 C 
HETATM    3  C3  UNL     1      25.921   1.420  51.735  1.00  0.00     0.028 A 
HETATM    4  C4  UNL     1      26.814   0.485  51.995  1.00  0.00     0.040 A 
HETATM    5  C5  UNL     1      26.382  -0.471  53.005  1.00  0.00     0.113 A 
HETATM    6  N1  UNL     1      25.289  -0.515  53.644  1.00  0.00    -0.289 NA
HETATM    7  C6  UNL     1      24.232   0.439  53.455  1.00  0.00     0.167 A 
HETATM    8  C9  UNL     1      24.642   1.460  52.427  1.00  0.00     0.002 A 
HETATM    9  C10 UNL     1      23.780   2.420  52.174  1.00  0.00     0.094 C 
ENDROOT
BRANCH   7  10
HETATM   10  C7  UNL     1      22.961  -0.233  53.095  1.00  0.00     0.199 C 
BRANCH  10  11
HETATM   11  O1  UNL     1      22.070  -0.308  54.107  1.00  0.00    -0.394 OA
HETATM   12  C8  UNL     1      21.352  -1.459  54.290  1.00  0.00     0.201 C 
ENDBRANCH  10  11
ENDBRANCH   7  10
BRANCH   9  13
HETATM   13  N2  UNL     1      23.779   3.524  51.326  1.00  0.00    -0.389 N 
HETATM   14  H11 UNL     1      24.748   3.929  51.504  1.00  0.00     0.159 HD
BRANCH  13  15
HETATM   15  C11 UNL     1      22.889   4.172  50.383  1.00  0.00     0.134 C 
HETATM   16  C12 UNL     1      21.491   4.079  50.879  1.00  0.00     0.202 C 
HETATM   17  O2  UNL     1      20.507   4.431  49.914  1.00  0.00    -0.358 OA
HETATM   18  C13 UNL     1      19.947   5.728  49.720  1.00  0.00     0.171 C 
HETATM   19  C14 UNL     1      20.415   6.966  50.025  1.00  0.00     0.091 C 
HETATM   20  C18 UNL     1      21.707   7.320  50.680  1.00  0.00     0.049 C 
HETATM   21  C19 UNL     1      22.901   6.679  50.633  1.00  0.00    -0.011 A 
HETATM   22  C20 UNL     1      24.212   6.965  51.248  1.00  0.00     0.120 A 
HETATM   23  C21 UNL     1      23.436   5.456  49.954  1.00  0.00     0.166 A 
HETATM   24  N3  UNL     1      24.628   5.903  50.645  1.00  0.00    -0.289 NA
BRANCH  19  25
HETATM   25  O3  UNL     1      19.690   8.110  49.741  1.00  0.00    -0.347 OA
BRANCH  25  26
HETATM   26  C15 UNL     1      20.089   9.092  48.813  1.00  0.00     0.201 C 
BRANCH  26  27
HETATM   27  C16 UNL     1      19.992  10.486  49.362  1.00  0.00     0.193 C 
BRANCH  27  28
HETATM   28  O4  UNL     1      19.001  11.251  48.809  1.00  0.00    -0.394 OA
HETATM   29  C17 UNL     1      17.735  10.727  48.843  1.00  0.00     0.201 C 
ENDBRANCH  27  28
ENDBRANCH  26  27
ENDBRANCH  25  26
ENDBRANCH  19  25
ENDBRANCH  13  15
ENDBRANCH   9  13
TORSDOF 8
ENDMDL
