MODEL 1
REMARK VINA RESULT:      -8.3      0.000      0.000
REMARK  5 active torsions:
REMARK  status: ('A' for Active; 'I' for Inactive)
REMARK    1  A    between atoms: N1_1  and  C1_2 
REMARK    2  A    between atoms: C1_2  and  C2_3 
REMARK    3  A    between atoms: C4_5  and  O1_6 
REMARK    4  A    between atoms: C11_15  and  C12_16 
REMARK       I    between atoms: C12_16  and  N4_18 
REMARK    5  A    between atoms: N4_18  and  C13_19 
ROOT
HETATM    1  C2  UNL     1      29.435   6.945  47.842  1.00  0.00     0.024 C 
HETATM    2  C3  UNL     1      29.533   7.777  49.076  1.00  0.00     0.070 C 
HETATM    3  C4  UNL     1      30.161   9.077  48.738  1.00  0.00     0.042 C 
HETATM    4  C5  UNL     1      29.445  10.214  48.835  1.00  0.00     0.034 C 
HETATM    5  C6  UNL     1      28.043  10.173  49.274  1.00  0.00     0.329 C 
HETATM    6  N2  UNL     1      26.836  10.383  49.627  1.00  0.00    -0.400 NA
HETATM    7  C7  UNL     1      26.012   9.289  49.990  1.00  0.00     0.186 C 
HETATM    8  N3  UNL     1      25.583   8.144  49.674  1.00  0.00    -0.281 NA
HETATM    9  C8  UNL     1      26.016   7.521  48.436  1.00  0.00     0.189 C 
HETATM   10  C9  UNL     1      26.431   6.115  48.640  1.00  0.00    -0.035 A 
HETATM   11  C10 UNL     1      25.455   5.339  49.095  1.00  0.00     0.000 A 
HETATM   12  C11 UNL     1      25.930   3.948  49.276  1.00  0.00     0.124 A 
HETATM   13  C19 UNL     1      27.333   4.092  48.848  1.00  0.00    -0.001 A 
HETATM   14  C20 UNL     1      27.617   5.336  48.482  1.00  0.00    -0.053 A 
HETATM   15  C21 UNL     1      28.987   5.530  48.039  1.00  0.00     0.045 C 
ENDROOT
BRANCH  12  16
HETATM   16  C12 UNL     1      25.781   3.476  50.667  1.00  0.00     0.233 C 
HETATM   17  O2  UNL     1      25.001   3.854  51.581  1.00  0.00    -0.272 OA
HETATM   18  N4  UNL     1      26.700   2.425  50.938  1.00  0.00    -0.326 N 
HETATM   19  H16 UNL     1      27.416   1.975  50.329  1.00  0.00     0.169 HD
BRANCH  18  20
HETATM   20  C13 UNL     1      26.845   1.729  52.162  1.00  0.00     0.034 A 
HETATM   21  C14 UNL     1      27.797   2.000  53.093  1.00  0.00     0.029 A 
HETATM   22  C15 UNL     1      27.847   1.245  54.270  1.00  0.00     0.002 A 
HETATM   23  C16 UNL     1      26.948   0.220  54.517  1.00  0.00     0.000 A 
HETATM   24  C17 UNL     1      25.978  -0.064  53.582  1.00  0.00     0.002 A 
HETATM   25  C18 UNL     1      25.961   0.699  52.439  1.00  0.00     0.029 A 
ENDBRANCH  18  20
ENDBRANCH  12  16
BRANCH   1  26
HETATM   26  C1  UNL     1      30.882   6.755  47.331  1.00  0.00     0.272 C 
BRANCH  26  27
HETATM   27  N1  UNL     1      31.712   6.094  48.288  1.00  0.00     0.078 N 
HETATM   28  H1  UNL     1      31.429   5.152  48.575  1.00  0.00     0.312 HD
HETATM   29  H2  UNL     1      32.699   6.132  47.958  1.00  0.00     0.312 HD
ENDBRANCH  26  27
ENDBRANCH   1  26
BRANCH   3  30
HETATM   30  O1  UNL     1      31.428   9.414  48.309  1.00  0.00    -0.365 OA
HETATM   31  H8  UNL     1      31.886   8.827  47.629  1.00  0.00     0.217 HD
ENDBRANCH   3  30
TORSDOF 5
ENDMDL
MODEL 2
REMARK VINA RESULT:      -8.2      2.760      3.635
REMARK  5 active torsions:
REMARK  status: ('A' for Active; 'I' for Inactive)
REMARK    1  A    between atoms: N1_1  and  C1_2 
REMARK    2  A    between atoms: C1_2  and  C2_3 
REMARK    3  A    between atoms: C4_5  and  O1_6 
REMARK    4  A    between atoms: C11_15  and  C12_16 
REMARK       I    between atoms: C12_16  and  N4_18 
REMARK    5  A    between atoms: N4_18  and  C13_19 
ROOT
HETATM    1  C2  UNL     1      26.807   6.529  48.541  1.00  0.00     0.024 C 
HETATM    2  C3  UNL     1      26.320   7.481  49.582  1.00  0.00     0.070 C 
HETATM    3  C4  UNL     1      26.524   8.870  49.104  1.00  0.00     0.042 C 
HETATM    4  C5  UNL     1      25.459   9.654  48.846  1.00  0.00     0.034 C 
HETATM    5  C6  UNL     1      24.096   9.140  49.035  1.00  0.00     0.329 C 
HETATM    6  N2  UNL     1      22.843   8.919  49.124  1.00  0.00    -0.400 NA
HETATM    7  C7  UNL     1      22.384   7.648  49.550  1.00  0.00     0.186 C 
HETATM    8  N3  UNL     1      22.462   6.396  49.400  1.00  0.00    -0.281 NA
HETATM    9  C8  UNL     1      23.360   5.838  48.406  1.00  0.00     0.189 C 
HETATM   10  C9  UNL     1      24.173   4.729  48.956  1.00  0.00    -0.035 A 
HETATM   11  C10 UNL     1      23.446   3.704  49.381  1.00  0.00     0.000 A 
HETATM   12  C11 UNL     1      24.313   2.630  49.917  1.00  0.00     0.124 A 
HETATM   13  C19 UNL     1      25.639   3.240  49.718  1.00  0.00    -0.001 A 
HETATM   14  C20 UNL     1      25.556   4.444  49.165  1.00  0.00    -0.053 A 
HETATM   15  C21 UNL     1      26.839   5.086  48.937  1.00  0.00     0.045 C 
ENDROOT
BRANCH  12  16
HETATM   16  C12 UNL     1      24.013   2.310  51.327  1.00  0.00     0.233 C 
HETATM   17  O2  UNL     1      24.357   2.892  52.389  1.00  0.00    -0.272 OA
HETATM   18  N4  UNL     1      23.202   1.145  51.412  1.00  0.00    -0.326 N 
HETATM   19  H16 UNL     1      22.817   0.528  50.665  1.00  0.00     0.169 HD
BRANCH  18  20
HETATM   20  C13 UNL     1      22.717   0.542  52.597  1.00  0.00     0.034 A 
HETATM   21  C14 UNL     1      23.401  -0.378  53.327  1.00  0.00     0.029 A 
HETATM   22  C15 UNL     1      22.824  -0.909  54.486  1.00  0.00     0.002 A 
HETATM   23  C16 UNL     1      21.564  -0.523  54.915  1.00  0.00     0.000 A 
HETATM   24  C17 UNL     1      20.861   0.409  54.185  1.00  0.00     0.002 A 
HETATM   25  C18 UNL     1      21.461   0.908  53.054  1.00  0.00     0.029 A 
ENDBRANCH  18  20
ENDBRANCH  12  16
BRANCH   1  26
HETATM   26  C1  UNL     1      28.308   6.840  48.336  1.00  0.00     0.272 C 
BRANCH  26  27
HETATM   27  N1  UNL     1      29.149   5.815  48.868  1.00  0.00     0.078 N 
HETATM   28  H1  UNL     1      28.925   5.471  49.808  1.00  0.00     0.312 HD
HETATM   29  H2  UNL     1      29.223   5.047  48.169  1.00  0.00     0.312 HD
ENDBRANCH  26  27
ENDBRANCH   1  26
BRANCH   3  30
HETATM   30  O1  UNL     1      27.661   9.606  48.842  1.00  0.00    -0.365 OA
HETATM   31  H8  UNL     1      27.611  10.613  48.881  1.00  0.00     0.217 HD
ENDBRANCH   3  30
TORSDOF 5
ENDMDL
MODEL 3
REMARK VINA RESULT:      -8.0      5.554      8.198
REMARK  5 active torsions:
REMARK  status: ('A' for Active; 'I' for Inactive)
REMARK    1  A    between atoms: N1_1  and  C1_2 
REMARK    2  A    between atoms: C1_2  and  C2_3 
REMARK    3  A    between atoms: C4_5  and  O1_6 
REMARK    4  A    between atoms: C11_15  and  C12_16 
REMARK       I    between atoms: C12_16  and  N4_18 
REMARK    5  A    between atoms: N4_18  and  C13_19 
ROOT
HETATM    1  C2  UNL     1      20.486   1.668  51.621  1.00  0.00     0.024 C 
HETATM    2  C3  UNL     1      20.785   1.310  50.204  1.00  0.00     0.070 C 
HETATM    3  C4  UNL     1      19.575   1.538  49.379  1.00  0.00     0.042 C 
HETATM    4  C5  UNL     1      19.578   2.499  48.434  1.00  0.00     0.034 C 
HETATM    5  C6  UNL     1      20.775   3.323  48.218  1.00  0.00     0.329 C 
HETATM    6  N2  UNL     1      21.678   4.147  47.854  1.00  0.00    -0.400 NA
HETATM    7  C7  UNL     1      22.936   4.140  48.505  1.00  0.00     0.186 C 
HETATM    8  N3  UNL     1      23.550   4.156  49.610  1.00  0.00    -0.281 NA
HETATM    9  C8  UNL     1      22.806   4.198  50.855  1.00  0.00     0.189 C 
HETATM   10  C9  UNL     1      23.305   3.203  51.831  1.00  0.00    -0.035 A 
HETATM   11  C10 UNL     1      24.571   3.395  52.178  1.00  0.00     0.000 A 
HETATM   12  C11 UNL     1      25.010   2.373  53.154  1.00  0.00     0.124 A 
HETATM   13  C19 UNL     1      23.772   1.584  53.283  1.00  0.00    -0.001 A 
HETATM   14  C20 UNL     1      22.795   2.064  52.524  1.00  0.00    -0.053 A 
HETATM   15  C21 UNL     1      21.546   1.328  52.622  1.00  0.00     0.045 C 
ENDROOT
BRANCH  12  16
HETATM   16  C12 UNL     1      26.165   1.589  52.673  1.00  0.00     0.233 C 
HETATM   17  O2  UNL     1      26.875   1.725  51.642  1.00  0.00    -0.272 OA
HETATM   18  N4  UNL     1      26.458   0.528  53.574  1.00  0.00    -0.326 N 
HETATM   19  H16 UNL     1      25.998   0.248  54.467  1.00  0.00     0.169 HD
BRANCH  18  20
HETATM   20  C13 UNL     1      27.495  -0.426  53.441  1.00  0.00     0.034 A 
HETATM   21  C14 UNL     1      27.325  -1.682  52.951  1.00  0.00     0.029 A 
HETATM   22  C15 UNL     1      28.424  -2.545  52.865  1.00  0.00     0.002 A 
HETATM   23  C16 UNL     1      29.690  -2.153  53.269  1.00  0.00     0.000 A 
HETATM   24  C17 UNL     1      29.876  -0.883  53.766  1.00  0.00     0.002 A 
HETATM   25  C18 UNL     1      28.773  -0.066  53.835  1.00  0.00     0.029 A 
ENDBRANCH  18  20
ENDBRANCH  12  16
BRANCH   1  26
HETATM   26  C1  UNL     1      19.321   0.751  52.063  1.00  0.00     0.272 C 
BRANCH  26  27
HETATM   27  N1  UNL     1      19.698  -0.128  53.125  1.00  0.00     0.078 N 
HETATM   28  H1  UNL     1      20.651  -0.030  53.492  1.00  0.00     0.312 HD
HETATM   29  H2  UNL     1      18.975  -0.078  53.873  1.00  0.00     0.312 HD
ENDBRANCH  26  27
ENDBRANCH   1  26
BRANCH   3  30
HETATM   30  O1  UNL     1      18.336   0.932  49.357  1.00  0.00    -0.365 OA
HETATM   31  H8  UNL     1      17.531   1.454  49.669  1.00  0.00     0.217 HD
ENDBRANCH   3  30
TORSDOF 5
ENDMDL
MODEL 4
REMARK VINA RESULT:      -8.0      4.630      6.436
REMARK  5 active torsions:
REMARK  status: ('A' for Active; 'I' for Inactive)
REMARK    1  A    between atoms: N1_1  and  C1_2 
REMARK    2  A    between atoms: C1_2  and  C2_3 
REMARK    3  A    between atoms: C4_5  and  O1_6 
REMARK    4  A    between atoms: C11_15  and  C12_16 
REMARK       I    between atoms: C12_16  and  N4_18 
REMARK    5  A    between atoms: N4_18  and  C13_19 
ROOT
HETATM    1  C2  UNL     1      21.637   2.945  49.103  1.00  0.00     0.024 C 
HETATM    2  C3  UNL     1      22.670   3.696  48.333  1.00  0.00     0.070 C 
HETATM    3  C4  UNL     1      21.998   4.585  47.355  1.00  0.00     0.042 C 
HETATM    4  C5  UNL     1      22.089   5.923  47.490  1.00  0.00     0.034 C 
HETATM    5  C6  UNL     1      22.852   6.506  48.601  1.00  0.00     0.329 C 
HETATM    6  N2  UNL     1      23.448   7.229  49.467  1.00  0.00    -0.400 NA
HETATM    7  C7  UNL     1      24.160   6.612  50.524  1.00  0.00     0.186 C 
HETATM    8  N3  UNL     1      24.133   5.753  51.451  1.00  0.00    -0.281 NA
HETATM    9  C8  UNL     1      22.938   4.962  51.675  1.00  0.00     0.189 C 
HETATM   10  C9  UNL     1      23.248   3.523  51.828  1.00  0.00    -0.035 A 
HETATM   11  C10 UNL     1      24.036   3.261  52.863  1.00  0.00     0.000 A 
HETATM   12  C11 UNL     1      24.308   1.808  52.963  1.00  0.00     0.124 A 
HETATM   13  C19 UNL     1      23.538   1.318  51.805  1.00  0.00    -0.001 A 
HETATM   14  C20 UNL     1      22.930   2.303  51.157  1.00  0.00    -0.053 A 
HETATM   15  C21 UNL     1      22.148   1.871  50.012  1.00  0.00     0.045 C 
ENDROOT
BRANCH  12  16
HETATM   16  C12 UNL     1      25.748   1.496  52.893  1.00  0.00     0.233 C 
HETATM   17  O2  UNL     1      26.723   2.204  52.525  1.00  0.00    -0.272 OA
HETATM   18  N4  UNL     1      25.992   0.164  53.326  1.00  0.00    -0.326 N 
HETATM   19  H16 UNL     1      25.334  -0.572  53.663  1.00  0.00     0.169 HD
BRANCH  18  20
HETATM   20  C13 UNL     1      27.249  -0.482  53.397  1.00  0.00     0.034 A 
HETATM   21  C14 UNL     1      28.359   0.055  53.968  1.00  0.00     0.029 A 
HETATM   22  C15 UNL     1      29.552  -0.675  53.980  1.00  0.00     0.002 A 
HETATM   23  C16 UNL     1      29.637  -1.941  53.423  1.00  0.00     0.000 A 
HETATM   24  C17 UNL     1      28.520  -2.498  52.842  1.00  0.00     0.002 A 
HETATM   25  C18 UNL     1      27.367  -1.750  52.850  1.00  0.00     0.029 A 
ENDBRANCH  18  20
ENDBRANCH  12  16
BRANCH   1  26
HETATM   26  C1  UNL     1      20.828   2.132  48.066  1.00  0.00     0.272 C 
BRANCH  26  27
HETATM   27  N1  UNL     1      19.430   2.418  48.126  1.00  0.00     0.078 N 
HETATM   28  H1  UNL     1      18.843   1.754  48.642  1.00  0.00     0.312 HD
HETATM   29  H2  UNL     1      19.303   3.399  48.451  1.00  0.00     0.312 HD
ENDBRANCH  26  27
ENDBRANCH   1  26
BRANCH   3  30
HETATM   30  O1  UNL     1      21.232   4.327  46.237  1.00  0.00    -0.365 OA
HETATM   31  H8  UNL     1      20.473   4.952  46.009  1.00  0.00     0.217 HD
ENDBRANCH   3  30
TORSDOF 5
ENDMDL
MODEL 5
REMARK VINA RESULT:      -7.6      5.384      9.025
REMARK  5 active torsions:
REMARK  status: ('A' for Active; 'I' for Inactive)
REMARK    1  A    between atoms: N1_1  and  C1_2 
REMARK    2  A    between atoms: C1_2  and  C2_3 
REMARK    3  A    between atoms: C4_5  and  O1_6 
REMARK    4  A    between atoms: C11_15  and  C12_16 
REMARK       I    between atoms: C12_16  and  N4_18 
REMARK    5  A    between atoms: N4_18  and  C13_19 
ROOT
HETATM    1  C2  UNL     1      26.073   1.861  52.562  1.00  0.00     0.024 C 
HETATM    2  C3  UNL     1      25.626   0.450  52.378  1.00  0.00     0.070 C 
HETATM    3  C4  UNL     1      26.059  -0.355  53.546  1.00  0.00     0.042 C 
HETATM    4  C5  UNL     1      25.140  -0.878  54.380  1.00  0.00     0.034 C 
HETATM    5  C6  UNL     1      23.708  -0.655  54.139  1.00  0.00     0.329 C 
HETATM    6  N2  UNL     1      22.433  -0.599  54.132  1.00  0.00    -0.400 NA
HETATM    7  C7  UNL     1      21.769   0.129  53.115  1.00  0.00     0.186 C 
HETATM    8  N3  UNL     1      21.690   1.219  52.481  1.00  0.00    -0.281 NA
HETATM    9  C8  UNL     1      22.592   2.311  52.797  1.00  0.00     0.189 C 
HETATM   10  C9  UNL     1      23.192   2.903  51.580  1.00  0.00    -0.035 A 
HETATM   11  C10 UNL     1      22.296   3.422  50.750  1.00  0.00     0.000 A 
HETATM   12  C11 UNL     1      22.956   3.998  49.556  1.00  0.00     0.124 A 
HETATM   13  C19 UNL     1      24.366   3.703  49.868  1.00  0.00    -0.001 A 
HETATM   14  C20 UNL     1      24.498   3.076  51.030  1.00  0.00    -0.053 A 
HETATM   15  C21 UNL     1      25.872   2.771  51.391  1.00  0.00     0.045 C 
ENDROOT
BRANCH  12  16
HETATM   16  C12 UNL     1      22.486   3.384  48.299  1.00  0.00     0.233 C 
HETATM   17  O2  UNL     1      22.731   2.255  47.797  1.00  0.00    -0.272 OA
HETATM   18  N4  UNL     1      21.624   4.274  47.600  1.00  0.00    -0.326 N 
HETATM   19  H16 UNL     1      21.303   5.236  47.840  1.00  0.00     0.169 HD
BRANCH  18  20
HETATM   20  C13 UNL     1      20.985   4.028  46.362  1.00  0.00     0.034 A 
HETATM   21  C14 UNL     1      21.568   4.204  45.147  1.00  0.00     0.029 A 
HETATM   22  C15 UNL     1      20.840   3.930  43.985  1.00  0.00     0.002 A 
HETATM   23  C16 UNL     1      19.530   3.480  44.035  1.00  0.00     0.000 A 
HETATM   24  C17 UNL     1      18.928   3.297  45.259  1.00  0.00     0.002 A 
HETATM   25  C18 UNL     1      19.675   3.577  46.378  1.00  0.00     0.029 A 
ENDBRANCH  18  20
ENDBRANCH  12  16
BRANCH   1  26
HETATM   26  C1  UNL     1      27.615   1.816  52.674  1.00  0.00     0.272 C 
BRANCH  26  27
HETATM   27  N1  UNL     1      28.093   2.514  53.826  1.00  0.00     0.078 N 
HETATM   28  H1  UNL     1      27.989   2.043  54.730  1.00  0.00     0.312 HD
HETATM   29  H2  UNL     1      29.072   2.823  53.647  1.00  0.00     0.312 HD
ENDBRANCH  26  27
ENDBRANCH   1  26
BRANCH   3  30
HETATM   30  O1  UNL     1      27.305  -0.722  54.011  1.00  0.00    -0.365 OA
HETATM   31  H8  UNL     1      27.980  -0.003  54.221  1.00  0.00     0.217 HD
ENDBRANCH   3  30
TORSDOF 5
ENDMDL
MODEL 6
REMARK VINA RESULT:      -7.5      1.148      1.295
REMARK  5 active torsions:
REMARK  status: ('A' for Active; 'I' for Inactive)
REMARK    1  A    between atoms: N1_1  and  C1_2 
REMARK    2  A    between atoms: C1_2  and  C2_3 
REMARK    3  A    between atoms: C4_5  and  O1_6 
REMARK    4  A    between atoms: C11_15  and  C12_16 
REMARK       I    between atoms: C12_16  and  N4_18 
REMARK    5  A    between atoms: N4_18  and  C13_19 
ROOT
HETATM    1  C2  UNL     1      29.746   8.197  48.046  1.00  0.00     0.024 C 
HETATM    2  C3  UNL     1      29.340   9.098  49.164  1.00  0.00     0.070 C 
HETATM    3  C4  UNL     1      29.814  10.473  48.876  1.00  0.00     0.042 C 
HETATM    4  C5  UNL     1      28.922  11.457  48.650  1.00  0.00     0.034 C 
HETATM    5  C6  UNL     1      27.481  11.175  48.686  1.00  0.00     0.329 C 
HETATM    6  N2  UNL     1      26.205  11.170  48.667  1.00  0.00    -0.400 NA
HETATM    7  C7  UNL     1      25.505   9.961  48.902  1.00  0.00     0.186 C 
HETATM    8  N3  UNL     1      25.385   8.740  48.602  1.00  0.00    -0.281 NA
HETATM    9  C8  UNL     1      26.256   8.145  47.607  1.00  0.00     0.189 C 
HETATM   10  C9  UNL     1      26.821   6.856  48.065  1.00  0.00    -0.035 A 
HETATM   11  C10 UNL     1      25.899   5.935  48.312  1.00  0.00     0.000 A 
HETATM   12  C11 UNL     1      26.525   4.672  48.765  1.00  0.00     0.124 A 
HETATM   13  C19 UNL     1      27.947   5.056  48.728  1.00  0.00    -0.001 A 
HETATM   14  C20 UNL     1      28.115   6.309  48.325  1.00  0.00    -0.053 A 
HETATM   15  C21 UNL     1      29.502   6.736  48.261  1.00  0.00     0.045 C 
ENDROOT
BRANCH  12  16
HETATM   16  C12 UNL     1      26.058   4.255  50.102  1.00  0.00     0.233 C 
HETATM   17  O2  UNL     1      25.311   4.843  50.928  1.00  0.00    -0.272 OA
HETATM   18  N4  UNL     1      26.579   2.975  50.436  1.00  0.00    -0.326 N 
HETATM   19  H16 UNL     1      27.205   2.335  49.901  1.00  0.00     0.169 HD
BRANCH  18  20
HETATM   20  C13 UNL     1      26.346   2.258  51.634  1.00  0.00     0.034 A 
HETATM   21  C14 UNL     1      27.174   2.271  52.711  1.00  0.00     0.029 A 
HETATM   22  C15 UNL     1      26.843   1.522  53.846  1.00  0.00     0.002 A 
HETATM   23  C16 UNL     1      25.687   0.760  53.904  1.00  0.00     0.000 A 
HETATM   24  C17 UNL     1      24.840   0.739  52.820  1.00  0.00     0.002 A 
HETATM   25  C18 UNL     1      25.198   1.488  51.724  1.00  0.00     0.029 A 
ENDBRANCH  18  20
ENDBRANCH  12  16
BRANCH   1  26
HETATM   26  C1  UNL     1      31.290   8.258  47.978  1.00  0.00     0.272 C 
BRANCH  26  27
HETATM   27  N1  UNL     1      31.901   7.858  49.207  1.00  0.00     0.078 N 
HETATM   28  H1  UNL     1      31.382   8.054  50.068  1.00  0.00     0.312 HD
HETATM   29  H2  UNL     1      32.184   6.859  49.129  1.00  0.00     0.312 HD
ENDBRANCH  26  27
ENDBRANCH   1  26
BRANCH   3  30
HETATM   30  O1  UNL     1      31.076  11.022  48.782  1.00  0.00    -0.365 OA
HETATM   31  H8  UNL     1      31.525  11.364  49.617  1.00  0.00     0.217 HD
ENDBRANCH   3  30
TORSDOF 5
ENDMDL
MODEL 7
REMARK VINA RESULT:      -7.5      2.424      8.695
REMARK  5 active torsions:
REMARK  status: ('A' for Active; 'I' for Inactive)
REMARK    1  A    between atoms: N1_1  and  C1_2 
REMARK    2  A    between atoms: C1_2  and  C2_3 
REMARK    3  A    between atoms: C4_5  and  O1_6 
REMARK    4  A    between atoms: C11_15  and  C12_16 
REMARK       I    between atoms: C12_16  and  N4_18 
REMARK    5  A    between atoms: N4_18  and  C13_19 
ROOT
HETATM    1  C2  UNL     1      23.316   1.428  51.194  1.00  0.00     0.024 C 
HETATM    2  C3  UNL     1      23.630   1.824  52.598  1.00  0.00     0.070 C 
HETATM    3  C4  UNL     1      23.396   0.665  53.493  1.00  0.00     0.042 C 
HETATM    4  C5  UNL     1      24.434   0.091  54.133  1.00  0.00     0.034 C 
HETATM    5  C6  UNL     1      25.797   0.606  53.947  1.00  0.00     0.329 C 
HETATM    6  N2  UNL     1      27.044   0.874  53.944  1.00  0.00    -0.400 NA
HETATM    7  C7  UNL     1      27.529   1.941  53.149  1.00  0.00     0.186 C 
HETATM    8  N3  UNL     1      27.543   2.481  52.007  1.00  0.00    -0.281 NA
HETATM    9  C8  UNL     1      26.793   1.890  50.914  1.00  0.00     0.189 C 
HETATM   10  C9  UNL     1      25.993   2.899  50.182  1.00  0.00    -0.035 A 
HETATM   11  C10 UNL     1      26.730   3.850  49.623  1.00  0.00     0.000 A 
HETATM   12  C11 UNL     1      25.876   4.825  48.907  1.00  0.00     0.124 A 
HETATM   13  C19 UNL     1      24.545   4.251  49.172  1.00  0.00    -0.001 A 
HETATM   14  C20 UNL     1      24.615   3.146  49.903  1.00  0.00    -0.053 A 
HETATM   15  C21 UNL     1      23.328   2.533  50.184  1.00  0.00     0.045 C 
ENDROOT
BRANCH  12  16
HETATM   16  C12 UNL     1      26.041   6.201  49.415  1.00  0.00     0.233 C 
HETATM   17  O2  UNL     1      25.594   6.748  50.458  1.00  0.00    -0.272 OA
HETATM   18  N4  UNL     1      26.844   6.968  48.526  1.00  0.00    -0.326 N 
HETATM   19  H16 UNL     1      27.300   6.707  47.626  1.00  0.00     0.169 HD
BRANCH  18  20
HETATM   20  C13 UNL     1      27.215   8.325  48.685  1.00  0.00     0.034 A 
HETATM   21  C14 UNL     1      26.397   9.380  48.433  1.00  0.00     0.029 A 
HETATM   22  C15 UNL     1      26.869  10.682  48.625  1.00  0.00     0.002 A 
HETATM   23  C16 UNL     1      28.159  10.931  49.069  1.00  0.00     0.000 A 
HETATM   24  C17 UNL     1      28.997   9.871  49.328  1.00  0.00     0.002 A 
HETATM   25  C18 UNL     1      28.496   8.607  49.128  1.00  0.00     0.029 A 
ENDBRANCH  18  20
ENDBRANCH  12  16
BRANCH   1  26
HETATM   26  C1  UNL     1      21.831   1.000  51.185  1.00  0.00     0.272 C 
BRANCH  26  27
HETATM   27  N1  UNL     1      20.982   2.005  50.625  1.00  0.00     0.078 N 
HETATM   28  H1  UNL     1      21.402   2.924  50.453  1.00  0.00     0.312 HD
HETATM   29  H2  UNL     1      20.515   1.614  49.780  1.00  0.00     0.312 HD
ENDBRANCH  26  27
ENDBRANCH   1  26
BRANCH   3  30
HETATM   30  O1  UNL     1      22.252  -0.017  53.852  1.00  0.00    -0.365 OA
HETATM   31  H8  UNL     1      21.936   0.028  54.808  1.00  0.00     0.217 HD
ENDBRANCH   3  30
TORSDOF 5
ENDMDL
MODEL 8
REMARK VINA RESULT:      -7.4      7.337     10.421
REMARK  5 active torsions:
REMARK  status: ('A' for Active; 'I' for Inactive)
REMARK    1  A    between atoms: N1_1  and  C1_2 
REMARK    2  A    between atoms: C1_2  and  C2_3 
REMARK    3  A    between atoms: C4_5  and  O1_6 
REMARK    4  A    between atoms: C11_15  and  C12_16 
REMARK       I    between atoms: C12_16  and  N4_18 
REMARK    5  A    between atoms: N4_18  and  C13_19 
ROOT
HETATM    1  C2  UNL     1      22.854  -0.025  52.840  1.00  0.00     0.024 C 
HETATM    2  C3  UNL     1      23.311   1.388  52.980  1.00  0.00     0.070 C 
HETATM    3  C4  UNL     1      24.793   1.417  53.028  1.00  0.00     0.042 C 
HETATM    4  C5  UNL     1      25.486   1.997  52.029  1.00  0.00     0.034 C 
HETATM    5  C6  UNL     1      24.781   2.600  50.890  1.00  0.00     0.329 C 
HETATM    6  N2  UNL     1      24.396   3.179  49.820  1.00  0.00    -0.400 NA
HETATM    7  C7  UNL     1      23.013   3.271  49.533  1.00  0.00     0.186 C 
HETATM    8  N3  UNL     1      21.914   2.655  49.440  1.00  0.00    -0.281 NA
HETATM    9  C8  UNL     1      21.853   1.231  49.710  1.00  0.00     0.189 C 
HETATM   10  C9  UNL     1      20.725   0.885  50.605  1.00  0.00    -0.035 A 
HETATM   11  C10 UNL     1      19.538   1.192  50.099  1.00  0.00     0.000 A 
HETATM   12  C11 UNL     1      18.455   0.822  51.037  1.00  0.00     0.124 A 
HETATM   13  C19 UNL     1      19.248   0.263  52.146  1.00  0.00    -0.001 A 
HETATM   14  C20 UNL     1      20.551   0.299  51.895  1.00  0.00    -0.053 A 
HETATM   15  C21 UNL     1      21.379  -0.251  52.954  1.00  0.00     0.045 C 
ENDROOT
BRANCH  12  16
HETATM   16  C12 UNL     1      17.623   1.978  51.427  1.00  0.00     0.233 C 
HETATM   17  O2  UNL     1      17.952   3.109  51.874  1.00  0.00    -0.272 OA
HETATM   18  N4  UNL     1      16.244   1.687  51.239  1.00  0.00    -0.326 N 
HETATM   19  H16 UNL     1      15.774   0.826  50.887  1.00  0.00     0.169 HD
BRANCH  18  20
HETATM   20  C13 UNL     1      15.157   2.554  51.503  1.00  0.00     0.034 A 
HETATM   21  C14 UNL     1      14.612   3.403  50.594  1.00  0.00     0.029 A 
HETATM   22  C15 UNL     1      13.536   4.217  50.965  1.00  0.00     0.002 A 
HETATM   23  C16 UNL     1      13.006   4.183  52.245  1.00  0.00     0.000 A 
HETATM   24  C17 UNL     1      13.548   3.326  53.176  1.00  0.00     0.002 A 
HETATM   25  C18 UNL     1      14.603   2.543  52.773  1.00  0.00     0.029 A 
ENDBRANCH  18  20
ENDBRANCH  12  16
BRANCH   1  26
HETATM   26  C1  UNL     1      23.392  -0.780  54.077  1.00  0.00     0.272 C 
BRANCH  26  27
HETATM   27  N1  UNL     1      22.379  -0.996  55.061  1.00  0.00     0.078 N 
HETATM   28  H1  UNL     1      21.443  -0.637  54.850  1.00  0.00     0.312 HD
HETATM   29  H2  UNL     1      22.371  -2.006  55.317  1.00  0.00     0.312 HD
ENDBRANCH  26  27
ENDBRANCH   1  26
BRANCH   3  30
HETATM   30  O1  UNL     1      25.703   0.943  53.950  1.00  0.00    -0.365 OA
HETATM   31  H8  UNL     1      25.376   0.359  54.704  1.00  0.00     0.217 HD
ENDBRANCH   3  30
TORSDOF 5
ENDMDL
MODEL 9
REMARK VINA RESULT:      -7.2      8.362     11.141
REMARK  5 active torsions:
REMARK  status: ('A' for Active; 'I' for Inactive)
REMARK    1  A    between atoms: N1_1  and  C1_2 
REMARK    2  A    between atoms: C1_2  and  C2_3 
REMARK    3  A    between atoms: C4_5  and  O1_6 
REMARK    4  A    between atoms: C11_15  and  C12_16 
REMARK       I    between atoms: C12_16  and  N4_18 
REMARK    5  A    between atoms: N4_18  and  C13_19 
ROOT
HETATM    1  C2  UNL     1      21.709   0.424  52.372  1.00  0.00     0.024 C 
HETATM    2  C3  UNL     1      21.638   1.881  52.683  1.00  0.00     0.070 C 
HETATM    3  C4  UNL     1      22.972   2.491  52.468  1.00  0.00     0.042 C 
HETATM    4  C5  UNL     1      23.147   3.393  51.483  1.00  0.00     0.034 C 
HETATM    5  C6  UNL     1      22.022   3.776  50.619  1.00  0.00     0.329 C 
HETATM    6  N2  UNL     1      21.210   4.257  49.761  1.00  0.00    -0.400 NA
HETATM    7  C7  UNL     1      19.863   3.820  49.749  1.00  0.00     0.186 C 
HETATM    8  N3  UNL     1      19.077   2.831  49.745  1.00  0.00    -0.281 NA
HETATM    9  C8  UNL     1      19.607   1.481  49.757  1.00  0.00     0.189 C 
HETATM   10  C9  UNL     1      18.931   0.630  50.763  1.00  0.00    -0.035 A 
HETATM   11  C10 UNL     1      17.630   0.489  50.544  1.00  0.00     0.000 A 
HETATM   12  C11 UNL     1      17.013  -0.371  51.579  1.00  0.00     0.124 A 
HETATM   13  C19 UNL     1      18.194  -0.676  52.406  1.00  0.00    -0.001 A 
HETATM   14  C20 UNL     1      19.294  -0.101  51.934  1.00  0.00    -0.053 A 
HETATM   15  C21 UNL     1      20.491  -0.379  52.708  1.00  0.00     0.045 C 
ENDROOT
BRANCH  12  16
HETATM   16  C12 UNL     1      15.934   0.316  52.317  1.00  0.00     0.233 C 
HETATM   17  O2  UNL     1      15.304  -0.026  53.353  1.00  0.00    -0.272 OA
HETATM   18  N4  UNL     1      15.614   1.554  51.694  1.00  0.00    -0.326 N 
HETATM   19  H16 UNL     1      16.011   2.010  50.845  1.00  0.00     0.169 HD
BRANCH  18  20
HETATM   20  C13 UNL     1      14.634   2.482  52.120  1.00  0.00     0.034 A 
HETATM   21  C14 UNL     1      13.336   2.467  51.719  1.00  0.00     0.029 A 
HETATM   22  C15 UNL     1      12.451   3.436  52.205  1.00  0.00     0.002 A 
HETATM   23  C16 UNL     1      12.862   4.418  53.091  1.00  0.00     0.000 A 
HETATM   24  C17 UNL     1      14.174   4.444  53.507  1.00  0.00     0.002 A 
HETATM   25  C18 UNL     1      15.013   3.476  53.007  1.00  0.00     0.029 A 
ENDBRANCH  18  20
ENDBRANCH  12  16
BRANCH   1  26
HETATM   26  C1  UNL     1      22.763  -0.174  53.333  1.00  0.00     0.272 C 
BRANCH  26  27
HETATM   27  N1  UNL     1      22.170  -0.726  54.510  1.00  0.00     0.078 N 
HETATM   28  H1  UNL     1      22.435  -1.685  54.757  1.00  0.00     0.312 HD
HETATM   29  H2  UNL     1      22.306  -0.058  55.298  1.00  0.00     0.312 HD
ENDBRANCH  26  27
ENDBRANCH   1  26
BRANCH   3  30
HETATM   30  O1  UNL     1      24.183   2.328  53.108  1.00  0.00    -0.365 OA
HETATM   31  H8  UNL     1      25.034   2.508  52.598  1.00  0.00     0.217 HD
ENDBRANCH   3  30
TORSDOF 5
ENDMDL
