MODEL 1
REMARK VINA RESULT:      -8.2      0.000      0.000
REMARK  2 active torsions:
REMARK  status: ('A' for Active; 'I' for Inactive)
REMARK       I    between atoms: C1_2  and  N1_3 
REMARK    1  A    between atoms: C1_2  and  C8_10 
REMARK    2  A    between atoms: N1_3  and  C2_4 
ROOT
HETATM    1  C8  UNL     1      23.869   0.427  52.293  1.00  0.00     0.153 C 
HETATM    2  C9  UNL     1      23.707   1.929  52.226  1.00  0.00     0.005 C 
HETATM    3  S1  UNL     1      24.398   2.822  53.145  1.00  0.00    -0.088 SA
HETATM    4  C10 UNL     1      22.770   2.288  51.112  1.00  0.00     0.053 C 
HETATM    5  C11 UNL     1      21.455   1.634  51.398  1.00  0.00     0.065 C 
HETATM    6  C12 UNL     1      21.508   0.576  52.432  1.00  0.00     0.042 A 
HETATM    7  N2  UNL     1      20.263   0.267  52.887  1.00  0.00    -0.265 NA
HETATM    8  C13 UNL     1      20.084  -0.680  53.840  1.00  0.00     0.117 A 
HETATM    9  C14 UNL     1      21.203  -1.344  54.359  1.00  0.00     0.020 A 
HETATM   10  C15 UNL     1      22.460  -1.023  53.890  1.00  0.00     0.012 A 
HETATM   11  C16 UNL     1      22.635  -0.059  52.921  1.00  0.00    -0.015 A 
ENDROOT
BRANCH   1  12
HETATM   12  C1  UNL     1      25.077   0.181  53.120  1.00  0.00     0.235 C 
HETATM   13  O1  UNL     1      25.452   0.119  54.322  1.00  0.00    -0.272 OA
HETATM   14  N1  UNL     1      26.216  -0.072  52.320  1.00  0.00    -0.326 N 
HETATM   15  H1  UNL     1      26.366  -0.120  51.271  1.00  0.00     0.169 HD
BRANCH  14  16
HETATM   16  C2  UNL     1      27.516  -0.344  52.808  1.00  0.00     0.034 A 
HETATM   17  C3  UNL     1      27.915  -1.665  52.834  1.00  0.00     0.029 A 
HETATM   18  C4  UNL     1      29.188  -1.990  53.307  1.00  0.00     0.002 A 
HETATM   19  C5  UNL     1      30.022  -0.958  53.741  1.00  0.00     0.000 A 
HETATM   20  C6  UNL     1      29.620   0.368  53.713  1.00  0.00     0.002 A 
HETATM   21  C7  UNL     1      28.354   0.669  53.242  1.00  0.00     0.029 A 
ENDBRANCH  14  16
ENDBRANCH   1  12
TORSDOF 2
ENDMDL
MODEL 2
REMARK VINA RESULT:      -7.5      2.848      4.677
REMARK  2 active torsions:
REMARK  status: ('A' for Active; 'I' for Inactive)
REMARK       I    between atoms: C1_2  and  N1_3 
REMARK    1  A    between atoms: C1_2  and  C8_10 
REMARK    2  A    between atoms: N1_3  and  C2_4 
ROOT
HETATM    1  C8  UNL     1      24.297   0.960  53.505  1.00  0.00     0.153 C 
HETATM    2  C9  UNL     1      25.448  -0.020  53.524  1.00  0.00     0.005 C 
HETATM    3  S1  UNL     1      26.132  -0.429  52.306  1.00  0.00    -0.088 SA
HETATM    4  C10 UNL     1      25.724  -0.452  54.933  1.00  0.00     0.053 C 
HETATM    5  C11 UNL     1      24.480  -1.097  55.461  1.00  0.00     0.065 C 
HETATM    6  C12 UNL     1      23.265  -0.838  54.655  1.00  0.00     0.042 A 
HETATM    7  N2  UNL     1      22.266  -1.705  54.975  1.00  0.00    -0.265 NA
HETATM    8  C13 UNL     1      21.064  -1.642  54.354  1.00  0.00     0.117 A 
HETATM    9  C14 UNL     1      20.855  -0.668  53.369  1.00  0.00     0.020 A 
HETATM   10  C15 UNL     1      21.874   0.206  53.054  1.00  0.00     0.012 A 
HETATM   11  C16 UNL     1      23.095   0.137  53.689  1.00  0.00    -0.015 A 
ENDROOT
BRANCH   1  12
HETATM   12  C1  UNL     1      24.346   1.627  52.180  1.00  0.00     0.235 C 
HETATM   13  O1  UNL     1      23.876   1.537  51.014  1.00  0.00    -0.272 OA
HETATM   14  N1  UNL     1      25.206   2.750  52.192  1.00  0.00    -0.326 N 
HETATM   15  H1  UNL     1      25.804   3.195  52.947  1.00  0.00     0.169 HD
BRANCH  14  16
HETATM   16  C2  UNL     1      25.466   3.595  51.087  1.00  0.00     0.034 A 
HETATM   17  C3  UNL     1      26.583   3.310  50.326  1.00  0.00     0.029 A 
HETATM   18  C4  UNL     1      26.888   4.111  49.224  1.00  0.00     0.002 A 
HETATM   19  C5  UNL     1      26.045   5.183  48.926  1.00  0.00     0.000 A 
HETATM   20  C6  UNL     1      24.925   5.468  49.690  1.00  0.00     0.002 A 
HETATM   21  C7  UNL     1      24.641   4.662  50.778  1.00  0.00     0.029 A 
ENDBRANCH  14  16
ENDBRANCH   1  12
TORSDOF 2
ENDMDL
MODEL 3
REMARK VINA RESULT:      -7.5      3.450      6.363
REMARK  2 active torsions:
REMARK  status: ('A' for Active; 'I' for Inactive)
REMARK       I    between atoms: C1_2  and  N1_3 
REMARK    1  A    between atoms: C1_2  and  C8_10 
REMARK    2  A    between atoms: N1_3  and  C2_4 
ROOT
HETATM    1  C8  UNL     1      24.681   3.258  50.792  1.00  0.00     0.153 C 
HETATM    2  C9  UNL     1      26.136   2.847  50.816  1.00  0.00     0.005 C 
HETATM    3  S1  UNL     1      26.789   2.392  52.034  1.00  0.00    -0.088 SA
HETATM    4  C10 UNL     1      26.725   2.988  49.444  1.00  0.00     0.053 C 
HETATM    5  C11 UNL     1      26.595   4.423  49.041  1.00  0.00     0.065 C 
HETATM    6  C12 UNL     1      25.659   5.212  49.873  1.00  0.00     0.042 A 
HETATM    7  N2  UNL     1      25.838   6.548  49.687  1.00  0.00    -0.265 NA
HETATM    8  C13 UNL     1      25.082   7.453  50.355  1.00  0.00     0.117 A 
HETATM    9  C14 UNL     1      24.103   6.997  51.248  1.00  0.00     0.020 A 
HETATM   10  C15 UNL     1      23.930   5.640  51.428  1.00  0.00     0.012 A 
HETATM   11  C16 UNL     1      24.703   4.725  50.746  1.00  0.00    -0.015 A 
ENDROOT
BRANCH   1  12
HETATM   12  C1  UNL     1      24.083   2.726  52.042  1.00  0.00     0.235 C 
HETATM   13  O1  UNL     1      23.980   2.983  53.272  1.00  0.00    -0.272 OA
HETATM   14  N1  UNL     1      23.384   1.517  51.813  1.00  0.00    -0.326 N 
HETATM   15  H1  UNL     1      23.210   0.936  50.943  1.00  0.00     0.169 HD
BRANCH  14  16
HETATM   16  C2  UNL     1      22.705   0.764  52.800  1.00  0.00     0.034 A 
HETATM   17  C3  UNL     1      23.419  -0.236  53.429  1.00  0.00     0.029 A 
HETATM   18  C4  UNL     1      22.798  -1.012  54.411  1.00  0.00     0.002 A 
HETATM   19  C5  UNL     1      21.464  -0.746  54.727  1.00  0.00     0.000 A 
HETATM   20  C6  UNL     1      20.750   0.260  54.094  1.00  0.00     0.002 A 
HETATM   21  C7  UNL     1      21.383   1.015  53.124  1.00  0.00     0.029 A 
ENDBRANCH  14  16
ENDBRANCH   1  12
TORSDOF 2
ENDMDL
MODEL 4
REMARK VINA RESULT:      -7.4      3.548      4.666
REMARK  2 active torsions:
REMARK  status: ('A' for Active; 'I' for Inactive)
REMARK       I    between atoms: C1_2  and  N1_3 
REMARK    1  A    between atoms: C1_2  and  C8_10 
REMARK    2  A    between atoms: N1_3  and  C2_4 
ROOT
HETATM    1  C8  UNL     1      22.109   1.260  51.445  1.00  0.00     0.153 C 
HETATM    2  C9  UNL     1      20.851   2.070  51.663  1.00  0.00     0.005 C 
HETATM    3  S1  UNL     1      20.893   3.450  52.124  1.00  0.00    -0.088 SA
HETATM    4  C10 UNL     1      19.648   1.237  51.335  1.00  0.00     0.053 C 
HETATM    5  C11 UNL     1      19.663   0.043  52.238  1.00  0.00     0.065 C 
HETATM    6  C12 UNL     1      20.955  -0.192  52.922  1.00  0.00     0.042 A 
HETATM    7  N2  UNL     1      20.813  -1.056  53.964  1.00  0.00    -0.265 NA
HETATM    8  C13 UNL     1      21.875  -1.409  54.727  1.00  0.00     0.117 A 
HETATM    9  C14 UNL     1      23.135  -0.873  54.431  1.00  0.00     0.020 A 
HETATM   10  C15 UNL     1      23.268   0.002  53.373  1.00  0.00     0.012 A 
HETATM   11  C16 UNL     1      22.184   0.357  52.601  1.00  0.00    -0.015 A 
ENDROOT
BRANCH   1  12
HETATM   12  C1  UNL     1      23.225   2.237  51.400  1.00  0.00     0.235 C 
HETATM   13  O1  UNL     1      23.989   2.896  52.156  1.00  0.00    -0.272 OA
HETATM   14  N1  UNL     1      23.577   2.566  50.069  1.00  0.00    -0.326 N 
HETATM   15  H1  UNL     1      23.207   2.255  49.125  1.00  0.00     0.169 HD
BRANCH  14  16
HETATM   16  C2  UNL     1      24.601   3.468  49.692  1.00  0.00     0.034 A 
HETATM   17  C3  UNL     1      24.212   4.735  49.305  1.00  0.00     0.029 A 
HETATM   18  C4  UNL     1      25.181   5.665  48.922  1.00  0.00     0.002 A 
HETATM   19  C5  UNL     1      26.522   5.278  48.944  1.00  0.00     0.000 A 
HETATM   20  C6  UNL     1      26.910   4.006  49.333  1.00  0.00     0.002 A 
HETATM   21  C7  UNL     1      25.935   3.099  49.708  1.00  0.00     0.029 A 
ENDBRANCH  14  16
ENDBRANCH   1  12
TORSDOF 2
ENDMDL
MODEL 5
REMARK VINA RESULT:      -7.3      7.985      9.237
REMARK  2 active torsions:
REMARK  status: ('A' for Active; 'I' for Inactive)
REMARK       I    between atoms: C1_2  and  N1_3 
REMARK    1  A    between atoms: C1_2  and  C8_10 
REMARK    2  A    between atoms: N1_3  and  C2_4 
ROOT
HETATM    1  C8  UNL     1      29.199   6.557  47.559  1.00  0.00     0.153 C 
HETATM    2  C9  UNL     1      29.346   8.007  47.962  1.00  0.00     0.005 C 
HETATM    3  S1  UNL     1      30.233   8.423  49.037  1.00  0.00    -0.088 SA
HETATM    4  C10 UNL     1      28.467   8.864  47.100  1.00  0.00     0.053 C 
HETATM    5  C11 UNL     1      27.055   8.407  47.298  1.00  0.00     0.065 C 
HETATM    6  C12 UNL     1      26.923   7.088  47.957  1.00  0.00     0.042 A 
HETATM    7  N2  UNL     1      25.656   6.888  48.413  1.00  0.00    -0.265 NA
HETATM    8  C13 UNL     1      25.318   5.741  49.050  1.00  0.00     0.117 A 
HETATM    9  C14 UNL     1      26.293   4.752  49.238  1.00  0.00     0.020 A 
HETATM   10  C15 UNL     1      27.574   4.966  48.772  1.00  0.00     0.012 A 
HETATM   11  C16 UNL     1      27.912   6.135  48.125  1.00  0.00    -0.015 A 
ENDROOT
BRANCH   1  12
HETATM   12  C1  UNL     1      30.356   5.845  48.157  1.00  0.00     0.235 C 
HETATM   13  O1  UNL     1      30.798   5.441  49.266  1.00  0.00    -0.272 OA
HETATM   14  N1  UNL     1      31.310   5.483  47.177  1.00  0.00    -0.326 N 
HETATM   15  H1  UNL     1      31.354   5.619  46.126  1.00  0.00     0.169 HD
BRANCH  14  16
HETATM   16  C2  UNL     1      32.521   4.795  47.427  1.00  0.00     0.034 A 
HETATM   17  C3  UNL     1      32.518   3.428  47.240  1.00  0.00     0.029 A 
HETATM   18  C4  UNL     1      33.685   2.698  47.473  1.00  0.00     0.002 A 
HETATM   19  C5  UNL     1      34.828   3.383  47.892  1.00  0.00     0.000 A 
HETATM   20  C6  UNL     1      34.829   4.757  48.079  1.00  0.00     0.002 A 
HETATM   21  C7  UNL     1      33.661   5.460  47.843  1.00  0.00     0.029 A 
ENDBRANCH  14  16
ENDBRANCH   1  12
TORSDOF 2
ENDMDL
MODEL 6
REMARK VINA RESULT:      -7.1      3.542      6.334
REMARK  2 active torsions:
REMARK  status: ('A' for Active; 'I' for Inactive)
REMARK       I    between atoms: C1_2  and  N1_3 
REMARK    1  A    between atoms: C1_2  and  C8_10 
REMARK    2  A    between atoms: N1_3  and  C2_4 
ROOT
HETATM    1  C8  UNL     1      24.500   2.684  52.829  1.00  0.00     0.153 C 
HETATM    2  C9  UNL     1      25.902   2.226  52.495  1.00  0.00     0.005 C 
HETATM    3  S1  UNL     1      26.477   2.407  51.170  1.00  0.00    -0.088 SA
HETATM    4  C10 UNL     1      26.533   1.602  53.703  1.00  0.00     0.053 C 
HETATM    5  C11 UNL     1      25.686   0.436  54.105  1.00  0.00     0.065 C 
HETATM    6  C12 UNL     1      24.341   0.411  53.486  1.00  0.00     0.042 A 
HETATM    7  N2  UNL     1      23.762  -0.814  53.610  1.00  0.00    -0.265 NA
HETATM    8  C13 UNL     1      22.525  -1.054  53.110  1.00  0.00     0.117 A 
HETATM    9  C14 UNL     1      21.841  -0.020  52.458  1.00  0.00     0.020 A 
HETATM   10  C15 UNL     1      22.438   1.218  52.338  1.00  0.00     0.012 A 
HETATM   11  C16 UNL     1      23.695   1.456  52.848  1.00  0.00    -0.015 A 
ENDROOT
BRANCH   1  12
HETATM   12  C1  UNL     1      24.104   3.619  51.747  1.00  0.00     0.235 C 
HETATM   13  O1  UNL     1      23.829   3.643  50.517  1.00  0.00    -0.272 OA
HETATM   14  N1  UNL     1      23.988   4.947  52.221  1.00  0.00    -0.326 N 
HETATM   15  H1  UNL     1      24.125   5.389  53.176  1.00  0.00     0.169 HD
BRANCH  14  16
HETATM   16  C2  UNL     1      23.626   6.068  51.437  1.00  0.00     0.034 A 
HETATM   17  C3  UNL     1      22.280   6.264  51.202  1.00  0.00     0.029 A 
HETATM   18  C4  UNL     1      21.867   7.354  50.433  1.00  0.00     0.002 A 
HETATM   19  C5  UNL     1      22.838   8.217  49.923  1.00  0.00     0.000 A 
HETATM   20  C6  UNL     1      24.190   8.020  50.161  1.00  0.00     0.002 A 
HETATM   21  C7  UNL     1      24.578   6.933  50.924  1.00  0.00     0.029 A 
ENDBRANCH  14  16
ENDBRANCH   1  12
TORSDOF 2
ENDMDL
MODEL 7
REMARK VINA RESULT:      -7.1      4.633      6.513
REMARK  2 active torsions:
REMARK  status: ('A' for Active; 'I' for Inactive)
REMARK       I    between atoms: C1_2  and  N1_3 
REMARK    1  A    between atoms: C1_2  and  C8_10 
REMARK    2  A    between atoms: N1_3  and  C2_4 
ROOT
HETATM    1  C8  UNL     1      25.321   4.905  50.241  1.00  0.00     0.153 C 
HETATM    2  C9  UNL     1      23.979   4.498  49.676  1.00  0.00     0.005 C 
HETATM    3  S1  UNL     1      23.759   3.191  49.073  1.00  0.00    -0.088 SA
HETATM    4  C10 UNL     1      22.995   5.617  49.849  1.00  0.00     0.053 C 
HETATM    5  C11 UNL     1      23.530   6.807  49.116  1.00  0.00     0.065 C 
HETATM    6  C12 UNL     1      24.960   6.706  48.743  1.00  0.00     0.042 A 
HETATM    7  N2  UNL     1      25.292   7.634  47.804  1.00  0.00    -0.265 NA
HETATM    8  C13 UNL     1      26.555   7.715  47.321  1.00  0.00     0.117 A 
HETATM    9  C14 UNL     1      27.527   6.828  47.801  1.00  0.00     0.020 A 
HETATM   10  C15 UNL     1      27.179   5.892  48.753  1.00  0.00     0.012 A 
HETATM   11  C16 UNL     1      25.893   5.814  49.240  1.00  0.00    -0.015 A 
ENDROOT
BRANCH   1  12
HETATM   12  C1  UNL     1      26.099   3.651  50.396  1.00  0.00     0.235 C 
HETATM   13  O1  UNL     1      26.825   2.853  49.742  1.00  0.00    -0.272 OA
HETATM   14  N1  UNL     1      26.021   3.148  51.716  1.00  0.00    -0.326 N 
HETATM   15  H1  UNL     1      25.528   3.488  52.591  1.00  0.00     0.169 HD
BRANCH  14  16
HETATM   16  C2  UNL     1      26.653   1.970  52.183  1.00  0.00     0.034 A 
HETATM   17  C3  UNL     1      27.803   2.127  52.930  1.00  0.00     0.029 A 
HETATM   18  C4  UNL     1      28.468   1.000  53.415  1.00  0.00     0.002 A 
HETATM   19  C5  UNL     1      27.942  -0.261  53.126  1.00  0.00     0.000 A 
HETATM   20  C6  UNL     1      26.786  -0.417  52.376  1.00  0.00     0.002 A 
HETATM   21  C7  UNL     1      26.144   0.714  51.904  1.00  0.00     0.029 A 
ENDBRANCH  14  16
ENDBRANCH   1  12
TORSDOF 2
ENDMDL
MODEL 8
REMARK VINA RESULT:      -7.0      4.232      6.932
REMARK  2 active torsions:
REMARK  status: ('A' for Active; 'I' for Inactive)
REMARK       I    between atoms: C1_2  and  N1_3 
REMARK    1  A    between atoms: C1_2  and  C8_10 
REMARK    2  A    between atoms: N1_3  and  C2_4 
ROOT
HETATM    1  C8  UNL     1      24.381   4.955  50.999  1.00  0.00     0.153 C 
HETATM    2  C9  UNL     1      23.264   5.806  50.438  1.00  0.00     0.005 C 
HETATM    3  S1  UNL     1      22.159   5.230  49.686  1.00  0.00    -0.088 SA
HETATM    4  C10 UNL     1      23.500   7.246  50.783  1.00  0.00     0.053 C 
HETATM    5  C11 UNL     1      24.813   7.646  50.184  1.00  0.00     0.065 C 
HETATM    6  C12 UNL     1      25.660   6.512  49.750  1.00  0.00     0.042 A 
HETATM    7  N2  UNL     1      26.656   6.928  48.921  1.00  0.00    -0.265 NA
HETATM    8  C13 UNL     1      27.548   6.047  48.407  1.00  0.00     0.117 A 
HETATM    9  C14 UNL     1      27.436   4.691  48.738  1.00  0.00     0.020 A 
HETATM   10  C15 UNL     1      26.422   4.281  49.579  1.00  0.00     0.012 A 
HETATM   11  C16 UNL     1      25.518   5.181  50.099  1.00  0.00    -0.015 A 
ENDROOT
BRANCH   1  12
HETATM   12  C1  UNL     1      23.886   3.557  50.970  1.00  0.00     0.235 C 
HETATM   13  O1  UNL     1      23.644   2.613  50.169  1.00  0.00    -0.272 OA
HETATM   14  N1  UNL     1      23.564   3.089  52.266  1.00  0.00    -0.326 N 
HETATM   15  H1  UNL     1      23.609   3.535  53.227  1.00  0.00     0.169 HD
BRANCH  14  16
HETATM   16  C2  UNL     1      23.069   1.799  52.572  1.00  0.00     0.034 A 
HETATM   17  C3  UNL     1      23.989   0.850  52.971  1.00  0.00     0.029 A 
HETATM   18  C4  UNL     1      23.556  -0.439  53.284  1.00  0.00     0.002 A 
HETATM   19  C5  UNL     1      22.193  -0.728  53.183  1.00  0.00     0.000 A 
HETATM   20  C6  UNL     1      21.271   0.226  52.783  1.00  0.00     0.002 A 
HETATM   21  C7  UNL     1      21.721   1.497  52.476  1.00  0.00     0.029 A 
ENDBRANCH  14  16
ENDBRANCH   1  12
TORSDOF 2
ENDMDL
MODEL 9
REMARK VINA RESULT:      -6.8      3.552      5.438
REMARK  2 active torsions:
REMARK  status: ('A' for Active; 'I' for Inactive)
REMARK       I    between atoms: C1_2  and  N1_3 
REMARK    1  A    between atoms: C1_2  and  C8_10 
REMARK    2  A    between atoms: N1_3  and  C2_4 
ROOT
HETATM    1  C8  UNL     1      23.343   1.723  51.053  1.00  0.00     0.153 C 
HETATM    2  C9  UNL     1      22.439   2.467  52.009  1.00  0.00     0.005 C 
HETATM    3  S1  UNL     1      22.477   3.916  52.137  1.00  0.00    -0.088 SA
HETATM    4  C10 UNL     1      21.564   1.493  52.741  1.00  0.00     0.053 C 
HETATM    5  C11 UNL     1      22.459   0.555  53.491  1.00  0.00     0.065 C 
HETATM    6  C12 UNL     1      23.876   0.586  53.064  1.00  0.00     0.042 A 
HETATM    7  N2  UNL     1      24.682  -0.011  53.983  1.00  0.00    -0.265 NA
HETATM    8  C13 UNL     1      26.021  -0.092  53.788  1.00  0.00     0.117 A 
HETATM    9  C14 UNL     1      26.574   0.449  52.620  1.00  0.00     0.020 A 
HETATM   10  C15 UNL     1      25.747   1.052  51.695  1.00  0.00     0.012 A 
HETATM   11  C16 UNL     1      24.387   1.131  51.899  1.00  0.00    -0.015 A 
ENDROOT
BRANCH   1  12
HETATM   12  C1  UNL     1      23.869   2.740  50.109  1.00  0.00     0.235 C 
HETATM   13  O1  UNL     1      23.623   3.268  48.991  1.00  0.00    -0.272 OA
HETATM   14  N1  UNL     1      25.051   3.344  50.599  1.00  0.00    -0.326 N 
HETATM   15  H1  UNL     1      25.616   3.213  51.487  1.00  0.00     0.169 HD
BRANCH  14  16
HETATM   16  C2  UNL     1      25.793   4.350  49.934  1.00  0.00     0.034 A 
HETATM   17  C3  UNL     1      25.325   5.645  50.034  1.00  0.00     0.029 A 
HETATM   18  C4  UNL     1      26.017   6.678  49.397  1.00  0.00     0.002 A 
HETATM   19  C5  UNL     1      27.169   6.362  48.675  1.00  0.00     0.000 A 
HETATM   20  C6  UNL     1      27.637   5.061  48.576  1.00  0.00     0.002 A 
HETATM   21  C7  UNL     1      26.936   4.053  49.214  1.00  0.00     0.029 A 
ENDBRANCH  14  16
ENDBRANCH   1  12
TORSDOF 2
ENDMDL
