MODEL 1
REMARK VINA RESULT:      -8.6      0.000      0.000
REMARK  1 active torsions:
REMARK  status: ('A' for Active; 'I' for Inactive)
REMARK    1  A    between atoms: C4_5  and  C5_6 
ROOT
HETATM    1  C1  UNL     1      22.305   1.731  49.423  1.00  0.00     0.035 C 
HETATM    2  C2  UNL     1      22.076   2.832  50.405  1.00  0.00     0.112 C 
HETATM    3  N1  UNL     1      23.228   3.088  51.228  1.00  0.00    -0.299 NA
HETATM    4  C3  UNL     1      23.920   2.316  51.983  1.00  0.00     0.095 C 
HETATM    5  C4  UNL     1      24.004   0.883  52.452  1.00  0.00     0.081 C 
HETATM    6  C13 UNL     1      22.878   0.636  53.379  1.00  0.00     0.044 C 
HETATM    7  C14 UNL     1      21.629   0.450  52.548  1.00  0.00    -0.006 C 
HETATM    8  C15 UNL     1      20.820   1.149  51.734  1.00  0.00     0.014 C 
HETATM    9 CL1  UNL     1      19.452   0.241  51.063  1.00  0.00    -0.089 Cl
HETATM   10  C16 UNL     1      20.848   2.566  51.278  1.00  0.00     0.050 C 
HETATM   11  C17 UNL     1      20.797   3.564  52.387  1.00  0.00     0.018 C 
ENDROOT
BRANCH   5  12
HETATM   12  C5  UNL     1      25.362   0.713  53.011  1.00  0.00     0.041 C 
HETATM   13  C6  UNL     1      25.944   1.526  53.894  1.00  0.00     0.160 C 
HETATM   14  O1  UNL     1      27.194   1.478  54.488  1.00  0.00    -0.360 OA
HETATM   15  C7  UNL     1      28.055   0.339  54.649  1.00  0.00     0.189 C 
HETATM   16  C8  UNL     1      28.369  -0.288  53.316  1.00  0.00     0.082 A 
HETATM   17  C9  UNL     1      29.432  -1.299  53.519  1.00  0.00    -0.014 A 
HETATM   18  C12 UNL     1      27.218  -1.062  52.783  1.00  0.00     0.019 A 
HETATM   19  C10 UNL     1      28.933  -2.473  53.146  1.00  0.00    -0.001 A 
HETATM   20  C11 UNL     1      27.551  -2.346  52.684  1.00  0.00     0.025 A 
HETATM   21  N2  UNL     1      25.943  -0.480  52.438  1.00  0.00    -0.360 N 
HETATM   22  H14 UNL     1      25.442  -1.027  51.694  1.00  0.00     0.165 HD
ENDBRANCH   5  12
TORSDOF 1
ENDMDL
MODEL 2
REMARK VINA RESULT:      -8.5      3.515      6.855
REMARK  1 active torsions:
REMARK  status: ('A' for Active; 'I' for Inactive)
REMARK    1  A    between atoms: C4_5  and  C5_6 
ROOT
HETATM    1  C1  UNL     1      25.260  -0.517  54.789  1.00  0.00     0.035 C 
HETATM    2  C2  UNL     1      26.538   0.229  54.980  1.00  0.00     0.112 C 
HETATM    3  N1  UNL     1      26.419   1.624  54.651  1.00  0.00    -0.299 NA
HETATM    4  C3  UNL     1      26.026   2.214  53.582  1.00  0.00     0.095 C 
HETATM    5  C4  UNL     1      25.514   1.926  52.191  1.00  0.00     0.081 C 
HETATM    6  C13 UNL     1      26.639   1.404  51.386  1.00  0.00     0.044 C 
HETATM    7  C14 UNL     1      26.850  -0.042  51.771  1.00  0.00    -0.006 C 
HETATM    8  C15 UNL     1      27.247  -0.781  52.822  1.00  0.00     0.014 C 
HETATM    9 CL1  UNL     1      27.257  -2.534  52.555  1.00  0.00    -0.089 Cl
HETATM   10  C16 UNL     1      27.687  -0.407  54.194  1.00  0.00     0.050 C 
HETATM   11  C17 UNL     1      28.875   0.498  54.226  1.00  0.00     0.018 C 
ENDROOT
BRANCH   5  12
HETATM   12  C5  UNL     1      24.893   3.180  51.714  1.00  0.00     0.041 C 
HETATM   13  C6  UNL     1      23.871   3.809  52.297  1.00  0.00     0.160 C 
HETATM   14  O1  UNL     1      23.207   4.975  51.955  1.00  0.00    -0.360 OA
HETATM   15  C7  UNL     1      23.679   6.054  51.131  1.00  0.00     0.189 C 
HETATM   16  C8  UNL     1      24.063   5.555  49.763  1.00  0.00     0.082 A 
HETATM   17  C9  UNL     1      24.316   6.729  48.895  1.00  0.00    -0.014 A 
HETATM   18  C12 UNL     1      25.356   4.824  49.783  1.00  0.00     0.019 A 
HETATM   19  C10 UNL     1      25.580   6.653  48.491  1.00  0.00    -0.001 A 
HETATM   20  C11 UNL     1      26.247   5.470  49.035  1.00  0.00     0.025 A 
HETATM   21  N2  UNL     1      25.583   3.601  50.516  1.00  0.00    -0.360 N 
HETATM   22  H14 UNL     1      26.334   3.008  50.083  1.00  0.00     0.165 HD
ENDBRANCH   5  12
TORSDOF 1
ENDMDL
MODEL 3
REMARK VINA RESULT:      -8.1      1.819      2.147
REMARK  1 active torsions:
REMARK  status: ('A' for Active; 'I' for Inactive)
REMARK    1  A    between atoms: C4_5  and  C5_6 
ROOT
HETATM    1  C1  UNL     1      22.712   2.235  49.251  1.00  0.00     0.035 C 
HETATM    2  C2  UNL     1      23.509   3.497  49.240  1.00  0.00     0.112 C 
HETATM    3  N1  UNL     1      24.834   3.318  49.768  1.00  0.00    -0.299 NA
HETATM    4  C3  UNL     1      25.245   2.857  50.892  1.00  0.00     0.095 C 
HETATM    5  C4  UNL     1      24.737   2.289  52.195  1.00  0.00     0.081 C 
HETATM    6  C13 UNL     1      24.126   3.391  52.970  1.00  0.00     0.044 C 
HETATM    7  C14 UNL     1      22.761   3.666  52.383  1.00  0.00    -0.006 C 
HETATM    8  C15 UNL     1      22.200   4.134  51.255  1.00  0.00     0.014 C 
HETATM    9 CL1  UNL     1      20.427   4.187  51.255  1.00  0.00    -0.089 Cl
HETATM   10  C16 UNL     1      22.789   4.627  49.979  1.00  0.00     0.050 C 
HETATM   11  C17 UNL     1      23.716   5.785  50.144  1.00  0.00     0.018 C 
ENDROOT
BRANCH   5  12
HETATM   12  C5  UNL     1      25.889   1.607  52.823  1.00  0.00     0.041 C 
HETATM   13  C6  UNL     1      26.619   2.088  53.832  1.00  0.00     0.160 C 
HETATM   14  O1  UNL     1      27.708   1.555  54.500  1.00  0.00    -0.360 OA
HETATM   15  C7  UNL     1      28.106   0.178  54.588  1.00  0.00     0.189 C 
HETATM   16  C8  UNL     1      28.324  -0.406  53.217  1.00  0.00     0.082 A 
HETATM   17  C9  UNL     1      28.950  -1.740  53.375  1.00  0.00    -0.014 A 
HETATM   18  C12 UNL     1      27.040  -0.680  52.521  1.00  0.00     0.019 A 
HETATM   19  C10 UNL     1      28.121  -2.629  52.837  1.00  0.00    -0.001 A 
HETATM   20  C11 UNL     1      26.922  -1.986  52.298  1.00  0.00     0.025 A 
HETATM   21  N2  UNL     1      26.083   0.339  52.159  1.00  0.00    -0.360 N 
HETATM   22  H14 UNL     1      25.506   0.066  51.325  1.00  0.00     0.165 HD
ENDBRANCH   5  12
TORSDOF 1
ENDMDL
MODEL 4
REMARK VINA RESULT:      -8.1      1.323      2.116
REMARK  1 active torsions:
REMARK  status: ('A' for Active; 'I' for Inactive)
REMARK    1  A    between atoms: C4_5  and  C5_6 
ROOT
HETATM    1  C1  UNL     1      21.750   1.082  49.639  1.00  0.00     0.035 C 
HETATM    2  C2  UNL     1      21.721   2.280  50.530  1.00  0.00     0.112 C 
HETATM    3  N1  UNL     1      22.963   2.482  51.224  1.00  0.00    -0.299 NA
HETATM    4  C3  UNL     1      23.646   1.709  51.987  1.00  0.00     0.095 C 
HETATM    5  C4  UNL     1      23.635   0.319  52.578  1.00  0.00     0.081 C 
HETATM    6  C13 UNL     1      22.583   0.270  53.616  1.00  0.00     0.044 C 
HETATM    7  C14 UNL     1      21.249   0.145  52.914  1.00  0.00    -0.006 C 
HETATM    8  C15 UNL     1      20.438   0.854  52.111  1.00  0.00     0.014 C 
HETATM    9 CL1  UNL     1      18.933   0.040  51.645  1.00  0.00    -0.089 Cl
HETATM   10  C16 UNL     1      20.559   2.216  51.524  1.00  0.00     0.050 C 
HETATM   11  C17 UNL     1      20.708   3.304  52.536  1.00  0.00     0.018 C 
ENDROOT
BRANCH   5  12
HETATM   12  C5  UNL     1      25.017   0.057  53.034  1.00  0.00     0.041 C 
HETATM   13  C6  UNL     1      25.555  -1.150  53.221  1.00  0.00     0.160 C 
HETATM   14  O1  UNL     1      26.821  -1.526  53.640  1.00  0.00    -0.360 OA
HETATM   15  C7  UNL     1      28.033  -0.758  53.593  1.00  0.00     0.189 C 
HETATM   16  C8  UNL     1      27.877   0.536  54.348  1.00  0.00     0.082 A 
HETATM   17  C9  UNL     1      29.211   1.170  54.462  1.00  0.00    -0.014 A 
HETATM   18  C12 UNL     1      27.062   1.523  53.592  1.00  0.00     0.019 A 
HETATM   19  C10 UNL     1      29.140   2.349  53.852  1.00  0.00    -0.001 A 
HETATM   20  C11 UNL     1      27.806   2.588  53.302  1.00  0.00     0.025 A 
HETATM   21  N2  UNL     1      25.677   1.326  53.239  1.00  0.00    -0.360 N 
HETATM   22  H14 UNL     1      25.158   2.233  53.135  1.00  0.00     0.165 HD
ENDBRANCH   5  12
TORSDOF 1
ENDMDL
MODEL 5
REMARK VINA RESULT:      -8.0      1.471      2.326
REMARK  1 active torsions:
REMARK  status: ('A' for Active; 'I' for Inactive)
REMARK    1  A    between atoms: C4_5  and  C5_6 
ROOT
HETATM    1  C1  UNL     1      20.850   2.620  52.678  1.00  0.00     0.035 C 
HETATM    2  C2  UNL     1      20.968   1.533  51.662  1.00  0.00     0.112 C 
HETATM    3  N1  UNL     1      22.078   0.655  51.918  1.00  0.00    -0.299 NA
HETATM    4  C3  UNL     1      23.329   0.891  52.074  1.00  0.00     0.095 C 
HETATM    5  C4  UNL     1      24.326   2.025  52.095  1.00  0.00     0.081 C 
HETATM    6  C13 UNL     1      24.495   2.514  50.710  1.00  0.00     0.044 C 
HETATM    7  C14 UNL     1      23.298   3.373  50.375  1.00  0.00    -0.006 C 
HETATM    8  C15 UNL     1      21.972   3.262  50.185  1.00  0.00     0.014 C 
HETATM    9 CL1  UNL     1      21.133   4.776  49.793  1.00  0.00    -0.089 Cl
HETATM   10  C16 UNL     1      21.051   2.094  50.240  1.00  0.00     0.050 C 
HETATM   11  C17 UNL     1      21.402   0.997  49.290  1.00  0.00     0.018 C 
ENDROOT
BRANCH   5  12
HETATM   12  C5  UNL     1      25.538   1.494  52.754  1.00  0.00     0.041 C 
HETATM   13  C6  UNL     1      26.197   2.081  53.754  1.00  0.00     0.160 C 
HETATM   14  O1  UNL     1      27.330   1.692  54.450  1.00  0.00    -0.360 OA
HETATM   15  C7  UNL     1      27.876   0.371  54.584  1.00  0.00     0.189 C 
HETATM   16  C8  UNL     1      28.175  -0.225  53.233  1.00  0.00     0.082 A 
HETATM   17  C9  UNL     1      28.942  -1.476  53.438  1.00  0.00    -0.014 A 
HETATM   18  C12 UNL     1      26.938  -0.660  52.534  1.00  0.00     0.019 A 
HETATM   19  C10 UNL     1      28.224  -2.467  52.919  1.00  0.00    -0.001 A 
HETATM   20  C11 UNL     1      26.968  -1.978  52.350  1.00  0.00     0.025 A 
HETATM   21  N2  UNL     1      25.880   0.235  52.131  1.00  0.00    -0.360 N 
HETATM   22  H14 UNL     1      25.347  -0.123  51.300  1.00  0.00     0.165 HD
ENDBRANCH   5  12
TORSDOF 1
ENDMDL
MODEL 6
REMARK VINA RESULT:      -7.8      2.927      3.791
REMARK  1 active torsions:
REMARK  status: ('A' for Active; 'I' for Inactive)
REMARK    1  A    between atoms: C4_5  and  C5_6 
ROOT
HETATM    1  C1  UNL     1      23.234   4.642  48.495  1.00  0.00     0.035 C 
HETATM    2  C2  UNL     1      24.222   5.580  49.105  1.00  0.00     0.112 C 
HETATM    3  N1  UNL     1      25.234   4.899  49.866  1.00  0.00    -0.299 NA
HETATM    4  C3  UNL     1      25.149   4.069  50.841  1.00  0.00     0.095 C 
HETATM    5  C4  UNL     1      24.136   3.362  51.709  1.00  0.00     0.081 C 
HETATM    6  C13 UNL     1      23.533   4.360  52.619  1.00  0.00     0.044 C 
HETATM    7  C14 UNL     1      22.523   5.156  51.825  1.00  0.00    -0.006 C 
HETATM    8  C15 UNL     1      22.472   6.036  50.811  1.00  0.00     0.014 C 
HETATM    9 CL1  UNL     1      20.847   6.597  50.374  1.00  0.00    -0.089 Cl
HETATM   10  C16 UNL     1      23.536   6.644  49.965  1.00  0.00     0.050 C 
HETATM   11  C17 UNL     1      24.565   7.404  50.734  1.00  0.00     0.018 C 
ENDROOT
BRANCH   5  12
HETATM   12  C5  UNL     1      24.855   2.241  52.350  1.00  0.00     0.041 C 
HETATM   13  C6  UNL     1      24.429   0.978  52.409  1.00  0.00     0.160 C 
HETATM   14  O1  UNL     1      25.001  -0.150  52.973  1.00  0.00    -0.360 OA
HETATM   15  C7  UNL     1      26.384  -0.379  53.285  1.00  0.00     0.189 C 
HETATM   16  C8  UNL     1      26.904   0.680  54.221  1.00  0.00     0.082 A 
HETATM   17  C9  UNL     1      28.249   0.267  54.687  1.00  0.00    -0.014 A 
HETATM   18  C12 UNL     1      27.135   1.972  53.524  1.00  0.00     0.019 A 
HETATM   19  C10 UNL     1      29.105   1.207  54.298  1.00  0.00    -0.001 A 
HETATM   20  C11 UNL     1      28.429   2.280  53.570  1.00  0.00     0.025 A 
HETATM   21  N2  UNL     1      26.093   2.749  52.897  1.00  0.00    -0.360 N 
HETATM   22  H14 UNL     1      26.321   3.774  52.868  1.00  0.00     0.165 HD
ENDBRANCH   5  12
TORSDOF 1
ENDMDL
MODEL 7
REMARK VINA RESULT:      -7.7      3.606      4.610
REMARK  1 active torsions:
REMARK  status: ('A' for Active; 'I' for Inactive)
REMARK    1  A    between atoms: C4_5  and  C5_6 
ROOT
HETATM    1  C1  UNL     1      24.074   7.003  51.026  1.00  0.00     0.035 C 
HETATM    2  C2  UNL     1      23.224   6.169  50.125  1.00  0.00     0.112 C 
HETATM    3  N1  UNL     1      23.084   4.817  50.592  1.00  0.00    -0.299 NA
HETATM    4  C3  UNL     1      23.958   3.926  50.887  1.00  0.00     0.095 C 
HETATM    5  C4  UNL     1      25.451   3.705  50.944  1.00  0.00     0.081 C 
HETATM    6  C13 UNL     1      25.955   3.615  49.556  1.00  0.00     0.044 C 
HETATM    7  C14 UNL     1      26.032   5.020  49.002  1.00  0.00    -0.006 C 
HETATM    8  C15 UNL     1      25.222   6.034  48.653  1.00  0.00     0.014 C 
HETATM    9 CL1  UNL     1      26.043   7.481  48.035  1.00  0.00    -0.089 Cl
HETATM   10  C16 UNL     1      23.742   6.185  48.685  1.00  0.00     0.050 C 
HETATM   11  C17 UNL     1      23.009   5.163  47.880  1.00  0.00     0.018 C 
ENDROOT
BRANCH   5  12
HETATM   12  C5  UNL     1      25.658   2.513  51.794  1.00  0.00     0.041 C 
HETATM   13  C6  UNL     1      24.805   1.495  51.922  1.00  0.00     0.160 C 
HETATM   14  O1  UNL     1      24.880   0.336  52.676  1.00  0.00    -0.360 OA
HETATM   15  C7  UNL     1      26.054  -0.303  53.204  1.00  0.00     0.189 C 
HETATM   16  C8  UNL     1      26.824   0.640  54.089  1.00  0.00     0.082 A 
HETATM   17  C9  UNL     1      27.881  -0.133  54.782  1.00  0.00    -0.014 A 
HETATM   18  C12 UNL     1      27.567   1.658  53.301  1.00  0.00     0.019 A 
HETATM   19  C10 UNL     1      29.050   0.390  54.423  1.00  0.00    -0.001 A 
HETATM   20  C11 UNL     1      28.874   1.510  53.498  1.00  0.00     0.025 A 
HETATM   21  N2  UNL     1      26.936   2.643  52.455  1.00  0.00    -0.360 N 
HETATM   22  H14 UNL     1      27.517   3.512  52.353  1.00  0.00     0.165 HD
ENDBRANCH   5  12
TORSDOF 1
ENDMDL
MODEL 8
REMARK VINA RESULT:      -7.6      2.496      3.573
REMARK  1 active torsions:
REMARK  status: ('A' for Active; 'I' for Inactive)
REMARK    1  A    between atoms: C4_5  and  C5_6 
ROOT
HETATM    1  C1  UNL     1      20.332   3.943  51.404  1.00  0.00     0.035 C 
HETATM    2  C2  UNL     1      21.017   3.664  50.107  1.00  0.00     0.112 C 
HETATM    3  N1  UNL     1      21.971   2.593  50.204  1.00  0.00    -0.299 NA
HETATM    4  C3  UNL     1      22.979   2.421  50.979  1.00  0.00     0.095 C 
HETATM    5  C4  UNL     1      23.729   3.084  52.109  1.00  0.00     0.081 C 
HETATM    6  C13 UNL     1      24.462   4.243  51.556  1.00  0.00     0.044 C 
HETATM    7  C14 UNL     1      23.468   5.365  51.357  1.00  0.00    -0.006 C 
HETATM    8  C15 UNL     1      22.397   5.670  50.605  1.00  0.00     0.014 C 
HETATM    9 CL1  UNL     1      21.677   7.260  50.922  1.00  0.00    -0.089 Cl
HETATM   10  C16 UNL     1      21.682   4.919  49.537  1.00  0.00     0.050 C 
HETATM   11  C17 UNL     1      22.543   4.545  48.376  1.00  0.00     0.018 C 
ENDROOT
BRANCH   5  12
HETATM   12  C5  UNL     1      24.553   2.025  52.731  1.00  0.00     0.041 C 
HETATM   13  C6  UNL     1      24.175   0.760  52.920  1.00  0.00     0.160 C 
HETATM   14  O1  UNL     1      24.843  -0.315  53.483  1.00  0.00    -0.360 OA
HETATM   15  C7  UNL     1      26.259  -0.490  53.645  1.00  0.00     0.189 C 
HETATM   16  C8  UNL     1      26.851   0.640  54.445  1.00  0.00     0.082 A 
HETATM   17  C9  UNL     1      28.252   0.291  54.775  1.00  0.00    -0.014 A 
HETATM   18  C12 UNL     1      26.960   1.888  53.644  1.00  0.00     0.019 A 
HETATM   19  C10 UNL     1      29.028   1.222  54.230  1.00  0.00    -0.001 A 
HETATM   20  C11 UNL     1      28.240   2.228  53.519  1.00  0.00     0.025 A 
HETATM   21  N2  UNL     1      25.828   2.597  53.096  1.00  0.00    -0.360 N 
HETATM   22  H14 UNL     1      26.020   3.623  52.976  1.00  0.00     0.165 HD
ENDBRANCH   5  12
TORSDOF 1
ENDMDL
MODEL 9
REMARK VINA RESULT:      -7.3      4.115      5.244
REMARK  1 active torsions:
REMARK  status: ('A' for Active; 'I' for Inactive)
REMARK    1  A    between atoms: C4_5  and  C5_6 
ROOT
HETATM    1  C1  UNL     1      24.888   7.800  50.735  1.00  0.00     0.035 C 
HETATM    2  C2  UNL     1      23.893   7.307  49.736  1.00  0.00     0.112 C 
HETATM    3  N1  UNL     1      23.227   6.107  50.165  1.00  0.00    -0.299 NA
HETATM    4  C3  UNL     1      23.685   4.969  50.538  1.00  0.00     0.095 C 
HETATM    5  C4  UNL     1      24.983   4.227  50.750  1.00  0.00     0.081 C 
HETATM    6  C13 UNL     1      25.563   3.928  49.423  1.00  0.00     0.044 C 
HETATM    7  C14 UNL     1      26.198   5.196  48.901  1.00  0.00    -0.006 C 
HETATM    8  C15 UNL     1      25.850   6.426  48.483  1.00  0.00     0.014 C 
HETATM    9 CL1  UNL     1      27.197   7.464  47.978  1.00  0.00    -0.089 Cl
HETATM   10  C16 UNL     1      24.529   7.100  48.360  1.00  0.00     0.050 C 
HETATM   11  C17 UNL     1      23.565   6.392  47.466  1.00  0.00     0.018 C 
ENDROOT
BRANCH   5  12
HETATM   12  C5  UNL     1      24.656   3.062  51.599  1.00  0.00     0.041 C 
HETATM   13  C6  UNL     1      23.480   2.837  52.187  1.00  0.00     0.160 C 
HETATM   14  O1  UNL     1      23.052   1.798  52.997  1.00  0.00    -0.360 OA
HETATM   15  C7  UNL     1      23.597   0.473  53.098  1.00  0.00     0.189 C 
HETATM   16  C8  UNL     1      25.054   0.519  53.474  1.00  0.00     0.082 A 
HETATM   17  C9  UNL     1      25.496  -0.859  53.788  1.00  0.00    -0.014 A 
HETATM   18  C12 UNL     1      25.908   0.929  52.329  1.00  0.00     0.019 A 
HETATM   19  C10 UNL     1      26.465  -1.167  52.932  1.00  0.00    -0.001 A 
HETATM   20  C11 UNL     1      26.737  -0.062  52.012  1.00  0.00     0.025 A 
HETATM   21  N2  UNL     1      25.825   2.215  51.678  1.00  0.00    -0.360 N 
HETATM   22  H14 UNL     1      26.736   2.501  51.241  1.00  0.00     0.165 HD
ENDBRANCH   5  12
TORSDOF 1
ENDMDL
