MODEL 1
REMARK VINA RESULT:      -9.0      0.000      0.000
REMARK  4 active torsions:
REMARK  status: ('A' for Active; 'I' for Inactive)
REMARK    1  A    between atoms: C1_2  and  N1_3 
REMARK    2  A    between atoms: C1_2  and  C7_11 
REMARK    3  A    between atoms: N1_3  and  C2_4 
REMARK    4  A    between atoms: C2_4  and  C3_5 
ROOT
HETATM    1  C7  UNL     1      24.047   4.976  51.094  1.00  0.00     0.003 A 
HETATM    2  C8  UNL     1      24.666   4.486  49.965  1.00  0.00     0.017 A 
HETATM    3  C9  UNL     1      25.206   3.220  49.984  1.00  0.00     0.033 A 
HETATM    4  C10 UNL     1      25.150   2.418  51.098  1.00  0.00     0.069 A 
HETATM    5  C11 UNL     1      24.491   2.967  52.272  1.00  0.00     0.005 A 
HETATM    6  C12 UNL     1      23.953   4.235  52.242  1.00  0.00     0.029 A 
HETATM    7  C13 UNL     1      24.597   1.903  53.326  1.00  0.00    -0.006 A 
HETATM    8  C14 UNL     1      25.697   2.482  53.865  1.00  0.00     0.016 A 
HETATM    9  C15 UNL     1      26.043   1.233  54.322  1.00  0.00     0.030 A 
HETATM   10  C16 UNL     1      25.267   0.139  54.074  1.00  0.00     0.034 A 
HETATM   11  C17 UNL     1      24.074  -0.007  53.397  1.00  0.00     0.049 A 
HETATM   12  C18 UNL     1      23.570   1.157  52.865  1.00  0.00     0.024 A 
HETATM   13 BR1  UNL     1      21.985   1.459  51.876  1.00  0.00    -0.050 Br
HETATM   14  N3  UNL     1      25.867  -1.116  54.475  1.00  0.00    -0.351 N 
HETATM   15  C19 UNL     1      26.463  -1.244  53.131  1.00  0.00     0.208 C 
HETATM   16  N4  UNL     1      26.878  -0.764  51.947  1.00  0.00    -0.237 NA
HETATM   17  C20 UNL     1      26.699   0.666  51.739  1.00  0.00     0.234 C 
HETATM   18  N5  UNL     1      25.591   1.116  51.360  1.00  0.00    -0.241 NA
HETATM   19  H18 UNL     1      26.212  -1.983  54.938  1.00  0.00     0.166 HD
ENDROOT
BRANCH   1  20
HETATM   20  C1  UNL     1      23.453   6.291  51.175  1.00  0.00     0.106 C 
HETATM   21  S1  UNL     1      21.845   6.052  50.871  1.00  0.00    -0.060 SA
BRANCH  20  22
HETATM   22  N1  UNL     1      24.071   7.554  51.453  1.00  0.00    -0.378 N 
HETATM   23  H1  UNL     1      24.234   7.662  52.477  1.00  0.00     0.160 HD
BRANCH  22  24
HETATM   24  C2  UNL     1      24.303   8.339  50.249  1.00  0.00     0.156 C 
BRANCH  24  25
HETATM   25  C3  UNL     1      25.530   7.816  49.576  1.00  0.00     0.242 C 
HETATM   26  C4  UNL     1      25.864   8.549  48.296  1.00  0.00     0.063 C 
HETATM   27  C5  UNL     1      25.821  10.030  48.632  1.00  0.00     0.172 C 
HETATM   28  O1  UNL     1      26.431  10.263  49.862  1.00  0.00    -0.363 OA
HETATM   29  C6  UNL     1      27.299   9.256  50.236  1.00  0.00     0.438 C 
HETATM   30  N2  UNL     1      26.653   7.981  50.481  1.00  0.00     0.112 N 
HETATM   31  H11 UNL     1      26.273   7.940  51.453  1.00  0.00     0.319 HD
ENDBRANCH  24  25
ENDBRANCH  22  24
ENDBRANCH  20  22
ENDBRANCH   1  20
TORSDOF 4
ENDMDL
MODEL 2
REMARK VINA RESULT:      -8.8      4.247      6.679
REMARK  4 active torsions:
REMARK  status: ('A' for Active; 'I' for Inactive)
REMARK    1  A    between atoms: C1_2  and  N1_3 
REMARK    2  A    between atoms: C1_2  and  C7_11 
REMARK    3  A    between atoms: N1_3  and  C2_4 
REMARK    4  A    between atoms: C2_4  and  C3_5 
ROOT
HETATM    1  C7  UNL     1      24.379   3.369  51.272  1.00  0.00     0.003 A 
HETATM    2  C8  UNL     1      23.798   4.363  52.028  1.00  0.00     0.017 A 
HETATM    3  C9  UNL     1      22.459   4.284  52.337  1.00  0.00     0.033 A 
HETATM    4  C10 UNL     1      21.672   3.240  51.916  1.00  0.00     0.069 A 
HETATM    5  C11 UNL     1      22.317   2.209  51.118  1.00  0.00     0.005 A 
HETATM    6  C12 UNL     1      23.658   2.298  50.816  1.00  0.00     0.029 A 
HETATM    7  C13 UNL     1      21.234   1.224  50.783  1.00  0.00    -0.006 A 
HETATM    8  C14 UNL     1      21.018   1.802  49.578  1.00  0.00     0.016 A 
HETATM    9  C15 UNL     1      19.737   1.310  49.651  1.00  0.00     0.030 A 
HETATM   10  C16 UNL     1      19.310   0.582  50.723  1.00  0.00     0.034 A 
HETATM   11  C17 UNL     1      19.952   0.180  51.874  1.00  0.00     0.049 A 
HETATM   12  C18 UNL     1      21.262   0.587  51.974  1.00  0.00     0.024 A 
HETATM   13 BR1  UNL     1      22.535   0.279  53.340  1.00  0.00    -0.050 Br
HETATM   14  N3  UNL     1      17.891   0.295  50.715  1.00  0.00    -0.351 N 
HETATM   15  C19 UNL     1      17.650   1.538  51.473  1.00  0.00     0.208 C 
HETATM   16  N4  UNL     1      17.984   2.760  51.919  1.00  0.00    -0.237 NA
HETATM   17  C20 UNL     1      19.284   3.262  51.497  1.00  0.00     0.234 C 
HETATM   18  N5  UNL     1      20.323   2.921  52.110  1.00  0.00    -0.241 NA
HETATM   19  H18 UNL     1      16.923  -0.073  50.607  1.00  0.00     0.166 HD
ENDROOT
BRANCH   1  20
HETATM   20  C1  UNL     1      25.774   3.363  50.893  1.00  0.00     0.106 C 
HETATM   21  S1  UNL     1      25.809   4.039  49.385  1.00  0.00    -0.060 SA
BRANCH  20  22
HETATM   22  N1  UNL     1      26.914   2.890  51.623  1.00  0.00    -0.378 N 
HETATM   23  H1  UNL     1      27.694   3.579  51.565  1.00  0.00     0.160 HD
BRANCH  22  24
HETATM   24  C2  UNL     1      26.682   1.593  52.242  1.00  0.00     0.156 C 
BRANCH  24  25
HETATM   25  C3  UNL     1      26.786   1.753  53.723  1.00  0.00     0.242 C 
HETATM   26  C4  UNL     1      26.972   0.441  54.451  1.00  0.00     0.063 C 
HETATM   27  C5  UNL     1      28.101  -0.284  53.739  1.00  0.00     0.172 C 
HETATM   28  O1  UNL     1      29.128   0.607  53.434  1.00  0.00    -0.363 OA
HETATM   29  C6  UNL     1      29.109   1.744  54.217  1.00  0.00     0.438 C 
HETATM   30  N2  UNL     1      27.943   2.582  54.013  1.00  0.00     0.112 N 
HETATM   31  H11 UNL     1      28.081   3.213  53.192  1.00  0.00     0.319 HD
ENDBRANCH  24  25
ENDBRANCH  22  24
ENDBRANCH  20  22
ENDBRANCH   1  20
TORSDOF 4
ENDMDL
MODEL 3
REMARK VINA RESULT:      -8.7      3.030      7.376
REMARK  4 active torsions:
REMARK  status: ('A' for Active; 'I' for Inactive)
REMARK    1  A    between atoms: C1_2  and  N1_3 
REMARK    2  A    between atoms: C1_2  and  C7_11 
REMARK    3  A    between atoms: N1_3  and  C2_4 
REMARK    4  A    between atoms: C2_4  and  C3_5 
ROOT
HETATM    1  C7  UNL     1      24.439   2.330  52.059  1.00  0.00     0.003 A 
HETATM    2  C8  UNL     1      23.865   3.169  52.990  1.00  0.00     0.017 A 
HETATM    3  C9  UNL     1      23.574   4.468  52.642  1.00  0.00     0.033 A 
HETATM    4  C10 UNL     1      23.837   4.967  51.390  1.00  0.00     0.069 A 
HETATM    5  C11 UNL     1      24.444   4.056  50.433  1.00  0.00     0.005 A 
HETATM    6  C12 UNL     1      24.730   2.757  50.790  1.00  0.00     0.029 A 
HETATM    7  C13 UNL     1      24.637   4.860  49.180  1.00  0.00    -0.006 A 
HETATM    8  C14 UNL     1      25.925   5.135  49.499  1.00  0.00     0.016 A 
HETATM    9  C15 UNL     1      25.798   6.269  48.734  1.00  0.00     0.030 A 
HETATM   10  C16 UNL     1      24.632   6.578  48.098  1.00  0.00     0.034 A 
HETATM   11  C17 UNL     1      23.418   5.926  48.039  1.00  0.00     0.049 A 
HETATM   12  C18 UNL     1      23.359   4.754  48.756  1.00  0.00     0.024 A 
HETATM   13 BR1  UNL     1      21.937   3.525  48.971  1.00  0.00    -0.050 Br
HETATM   14  N3  UNL     1      24.621   7.888  47.484  1.00  0.00    -0.351 N 
HETATM   15  C19 UNL     1      24.079   8.453  48.735  1.00  0.00     0.208 C 
HETATM   16  N4  UNL     1      23.829   8.437  50.054  1.00  0.00    -0.237 NA
HETATM   17  C20 UNL     1      24.301   7.267  50.780  1.00  0.00     0.234 C 
HETATM   18  N5  UNL     1      23.620   6.215  50.794  1.00  0.00    -0.241 NA
HETATM   19  H18 UNL     1      24.687   8.738  46.885  1.00  0.00     0.166 HD
ENDROOT
BRANCH   1  20
HETATM   20  C1  UNL     1      24.784   0.953  52.327  1.00  0.00     0.106 C 
HETATM   21  S1  UNL     1      23.468   0.328  53.108  1.00  0.00    -0.060 SA
BRANCH  20  22
HETATM   22  N1  UNL     1      25.984   0.236  52.009  1.00  0.00    -0.378 N 
HETATM   23  H1  UNL     1      25.754  -0.684  51.574  1.00  0.00     0.160 HD
BRANCH  22  24
HETATM   24  C2  UNL     1      27.187   0.971  52.373  1.00  0.00     0.156 C 
BRANCH  24  25
HETATM   25  C3  UNL     1      27.086   1.354  53.813  1.00  0.00     0.242 C 
HETATM   26  C4  UNL     1      27.506   0.247  54.753  1.00  0.00     0.063 C 
HETATM   27  C5  UNL     1      28.850  -0.251  54.248  1.00  0.00     0.172 C 
HETATM   28  O1  UNL     1      29.654   0.825  53.879  1.00  0.00    -0.363 OA
HETATM   29  C6  UNL     1      29.271   2.014  54.466  1.00  0.00     0.438 C 
HETATM   30  N2  UNL     1      27.965   2.485  54.048  1.00  0.00     0.112 N 
HETATM   31  H11 UNL     1      28.033   3.013  53.149  1.00  0.00     0.319 HD
ENDBRANCH  24  25
ENDBRANCH  22  24
ENDBRANCH  20  22
ENDBRANCH   1  20
TORSDOF 4
ENDMDL
MODEL 4
REMARK VINA RESULT:      -8.6      3.460      7.306
REMARK  4 active torsions:
REMARK  status: ('A' for Active; 'I' for Inactive)
REMARK    1  A    between atoms: C1_2  and  N1_3 
REMARK    2  A    between atoms: C1_2  and  C7_11 
REMARK    3  A    between atoms: N1_3  and  C2_4 
REMARK    4  A    between atoms: C2_4  and  C3_5 
ROOT
HETATM    1  C7  UNL     1      22.228   1.014  52.743  1.00  0.00     0.003 A 
HETATM    2  C8  UNL     1      21.062   1.670  53.073  1.00  0.00     0.017 A 
HETATM    3  C9  UNL     1      20.699   2.798  52.373  1.00  0.00     0.033 A 
HETATM    4  C10 UNL     1      21.463   3.300  51.347  1.00  0.00     0.069 A 
HETATM    5  C11 UNL     1      22.687   2.584  51.027  1.00  0.00     0.005 A 
HETATM    6  C12 UNL     1      23.040   1.455  51.733  1.00  0.00     0.029 A 
HETATM    7  C13 UNL     1      23.321   3.354  49.905  1.00  0.00    -0.006 A 
HETATM    8  C14 UNL     1      24.124   4.029  50.761  1.00  0.00     0.016 A 
HETATM    9  C15 UNL     1      24.159   5.034  49.824  1.00  0.00     0.030 A 
HETATM   10  C16 UNL     1      23.482   4.936  48.644  1.00  0.00     0.034 A 
HETATM   11  C17 UNL     1      22.689   3.937  48.121  1.00  0.00     0.049 A 
HETATM   12  C18 UNL     1      22.540   2.837  48.932  1.00  0.00     0.024 A 
HETATM   13 BR1  UNL     1      21.570   1.236  48.651  1.00  0.00    -0.050 Br
HETATM   14  N3  UNL     1      23.486   6.151  47.856  1.00  0.00    -0.351 N 
HETATM   15  C19 UNL     1      22.240   6.572  48.527  1.00  0.00     0.208 C 
HETATM   16  N4  UNL     1      21.335   6.535  49.518  1.00  0.00    -0.237 NA
HETATM   17  C20 UNL     1      21.610   5.602  50.601  1.00  0.00     0.234 C 
HETATM   18  N5  UNL     1      21.306   4.391  50.485  1.00  0.00    -0.241 NA
HETATM   19  H18 UNL     1      23.655   6.952  47.213  1.00  0.00     0.166 HD
ENDROOT
BRANCH   1  20
HETATM   20  C1  UNL     1      22.695  -0.175  53.419  1.00  0.00     0.106 C 
HETATM   21  S1  UNL     1      21.530  -0.514  54.541  1.00  0.00    -0.060 SA
BRANCH  20  22
HETATM   22  N1  UNL     1      23.893  -0.933  53.204  1.00  0.00    -0.378 N 
HETATM   23  H1  UNL     1      23.735  -1.668  52.481  1.00  0.00     0.160 HD
BRANCH  22  24
HETATM   24  C2  UNL     1      24.996  -0.484  54.041  1.00  0.00     0.156 C 
BRANCH  24  25
HETATM   25  C3  UNL     1      26.263  -0.618  53.261  1.00  0.00     0.242 C 
HETATM   26  C4  UNL     1      26.579   0.603  52.427  1.00  0.00     0.063 C 
HETATM   27  C5  UNL     1      26.445   1.798  53.356  1.00  0.00     0.172 C 
HETATM   28  O1  UNL     1      27.019   1.512  54.593  1.00  0.00    -0.363 OA
HETATM   29  C6  UNL     1      27.935   0.481  54.541  1.00  0.00     0.438 C 
HETATM   30  N2  UNL     1      27.358  -0.804  54.197  1.00  0.00     0.112 N 
HETATM   31  H11 UNL     1      26.962  -1.270  55.043  1.00  0.00     0.319 HD
ENDBRANCH  24  25
ENDBRANCH  22  24
ENDBRANCH  20  22
ENDBRANCH   1  20
TORSDOF 4
ENDMDL
MODEL 5
REMARK VINA RESULT:      -8.5      3.040      7.202
REMARK  4 active torsions:
REMARK  status: ('A' for Active; 'I' for Inactive)
REMARK    1  A    between atoms: C1_2  and  N1_3 
REMARK    2  A    between atoms: C1_2  and  C7_11 
REMARK    3  A    between atoms: N1_3  and  C2_4 
REMARK    4  A    between atoms: C2_4  and  C3_5 
ROOT
HETATM    1  C7  UNL     1      23.046   1.515  51.557  1.00  0.00     0.003 A 
HETATM    2  C8  UNL     1      22.359   1.354  50.374  1.00  0.00     0.017 A 
HETATM    3  C9  UNL     1      22.371   2.366  49.441  1.00  0.00     0.033 A 
HETATM    4  C10 UNL     1      23.049   3.543  49.646  1.00  0.00     0.069 A 
HETATM    5  C11 UNL     1      23.762   3.680  50.906  1.00  0.00     0.005 A 
HETATM    6  C12 UNL     1      23.744   2.661  51.833  1.00  0.00     0.029 A 
HETATM    7  C13 UNL     1      24.380   5.048  50.871  1.00  0.00    -0.006 A 
HETATM    8  C14 UNL     1      23.352   5.581  51.574  1.00  0.00     0.016 A 
HETATM    9  C15 UNL     1      23.655   6.778  50.972  1.00  0.00     0.030 A 
HETATM   10  C16 UNL     1      24.679   6.892  50.078  1.00  0.00     0.034 A 
HETATM   11  C17 UNL     1      25.584   5.971  49.597  1.00  0.00     0.049 A 
HETATM   12  C18 UNL     1      25.430   4.699  50.097  1.00  0.00     0.024 A 
HETATM   13 BR1  UNL     1      26.419   3.123  49.749  1.00  0.00    -0.050 Br
HETATM   14  N3  UNL     1      24.746   8.177  49.414  1.00  0.00    -0.351 N 
HETATM   15  C19 UNL     1      23.879   7.651  48.342  1.00  0.00     0.208 C 
HETATM   16  N4  UNL     1      22.987   6.787  47.829  1.00  0.00    -0.237 NA
HETATM   17  C20 UNL     1      22.541   5.725  48.720  1.00  0.00     0.234 C 
HETATM   18  N5  UNL     1      23.232   4.689  48.864  1.00  0.00    -0.241 NA
HETATM   19  H18 UNL     1      24.907   9.153  49.090  1.00  0.00     0.166 HD
ENDROOT
BRANCH   1  20
HETATM   20  C1  UNL     1      23.092   0.515  52.599  1.00  0.00     0.106 C 
HETATM   21  S1  UNL     1      21.721   0.763  53.489  1.00  0.00    -0.060 SA
BRANCH  20  22
HETATM   22  N1  UNL     1      24.081  -0.493  52.851  1.00  0.00    -0.378 N 
HETATM   23  H1  UNL     1      23.854  -1.365  52.326  1.00  0.00     0.160 HD
BRANCH  22  24
HETATM   24  C2  UNL     1      25.122  -0.038  53.761  1.00  0.00     0.156 C 
BRANCH  24  25
HETATM   25  C3  UNL     1      26.447  -0.424  53.189  1.00  0.00     0.242 C 
HETATM   26  C4  UNL     1      27.121   0.703  52.439  1.00  0.00     0.063 C 
HETATM   27  C5  UNL     1      27.074   1.912  53.358  1.00  0.00     0.172 C 
HETATM   28  O1  UNL     1      27.378   1.535  54.665  1.00  0.00    -0.363 OA
HETATM   29  C6  UNL     1      28.074   0.346  54.738  1.00  0.00     0.438 C 
HETATM   30  N2  UNL     1      27.323  -0.808  54.282  1.00  0.00     0.112 N 
HETATM   31  H11 UNL     1      26.715  -1.178  55.046  1.00  0.00     0.319 HD
ENDBRANCH  24  25
ENDBRANCH  22  24
ENDBRANCH  20  22
ENDBRANCH   1  20
TORSDOF 4
ENDMDL
MODEL 6
REMARK VINA RESULT:      -8.2      3.553      4.690
REMARK  4 active torsions:
REMARK  status: ('A' for Active; 'I' for Inactive)
REMARK    1  A    between atoms: C1_2  and  N1_3 
REMARK    2  A    between atoms: C1_2  and  C7_11 
REMARK    3  A    between atoms: N1_3  and  C2_4 
REMARK    4  A    between atoms: C2_4  and  C3_5 
ROOT
HETATM    1  C7  UNL     1      25.462   5.489  49.811  1.00  0.00     0.003 A 
HETATM    2  C8  UNL     1      24.818   6.323  50.699  1.00  0.00     0.017 A 
HETATM    3  C9  UNL     1      23.772   5.835  51.449  1.00  0.00     0.033 A 
HETATM    4  C10 UNL     1      23.341   4.535  51.345  1.00  0.00     0.069 A 
HETATM    5  C11 UNL     1      24.041   3.684  50.397  1.00  0.00     0.005 A 
HETATM    6  C12 UNL     1      25.088   4.182  49.652  1.00  0.00     0.029 A 
HETATM    7  C13 UNL     1      23.356   2.350  50.474  1.00  0.00    -0.006 A 
HETATM    8  C14 UNL     1      22.578   2.636  49.403  1.00  0.00     0.016 A 
HETATM    9  C15 UNL     1      21.663   1.752  49.920  1.00  0.00     0.030 A 
HETATM   10  C16 UNL     1      21.892   1.086  51.089  1.00  0.00     0.034 A 
HETATM   11  C17 UNL     1      22.962   1.100  51.959  1.00  0.00     0.049 A 
HETATM   12  C18 UNL     1      23.987   1.941  51.596  1.00  0.00     0.024 A 
HETATM   13 BR1  UNL     1      25.639   2.291  52.450  1.00  0.00    -0.050 Br
HETATM   14  N3  UNL     1      20.756   0.331  51.573  1.00  0.00    -0.351 N 
HETATM   15  C19 UNL     1      20.318   1.513  52.341  1.00  0.00     0.208 C 
HETATM   16  N4  UNL     1      20.294   2.827  52.621  1.00  0.00    -0.237 NA
HETATM   17  C20 UNL     1      21.113   3.676  51.768  1.00  0.00     0.234 C 
HETATM   18  N5  UNL     1      22.339   3.806  51.996  1.00  0.00    -0.241 NA
HETATM   19  H18 UNL     1      20.012  -0.357  51.811  1.00  0.00     0.166 HD
ENDROOT
BRANCH   1  20
HETATM   20  C1  UNL     1      26.567   5.907  48.978  1.00  0.00     0.106 C 
HETATM   21  S1  UNL     1      25.963   7.140  48.057  1.00  0.00    -0.060 SA
BRANCH  20  22
HETATM   22  N1  UNL     1      27.907   5.401  48.922  1.00  0.00    -0.378 N 
HETATM   23  H1  UNL     1      27.997   4.543  49.507  1.00  0.00     0.160 HD
BRANCH  22  24
HETATM   24  C2  UNL     1      28.774   6.210  48.077  1.00  0.00     0.156 C 
BRANCH  24  25
HETATM   25  C3  UNL     1      30.175   5.712  48.229  1.00  0.00     0.242 C 
HETATM   26  C4  UNL     1      31.100   6.203  47.138  1.00  0.00     0.063 C 
HETATM   27  C5  UNL     1      30.891   7.705  47.047  1.00  0.00     0.172 C 
HETATM   28  O1  UNL     1      30.805   8.257  48.324  1.00  0.00    -0.363 OA
HETATM   29  C6  UNL     1      31.374   7.461  49.298  1.00  0.00     0.438 C 
HETATM   30  N2  UNL     1      30.696   6.194  49.496  1.00  0.00     0.112 N 
HETATM   31  H11 UNL     1      29.881   6.308  50.139  1.00  0.00     0.319 HD
ENDBRANCH  24  25
ENDBRANCH  22  24
ENDBRANCH  20  22
ENDBRANCH   1  20
TORSDOF 4
ENDMDL
MODEL 7
REMARK VINA RESULT:      -8.2      3.496      4.800
REMARK  4 active torsions:
REMARK  status: ('A' for Active; 'I' for Inactive)
REMARK    1  A    between atoms: C1_2  and  N1_3 
REMARK    2  A    between atoms: C1_2  and  C7_11 
REMARK    3  A    between atoms: N1_3  and  C2_4 
REMARK    4  A    between atoms: C2_4  and  C3_5 
ROOT
HETATM    1  C7  UNL     1      26.436   6.001  49.141  1.00  0.00     0.003 A 
HETATM    2  C8  UNL     1      26.943   4.728  48.996  1.00  0.00     0.017 A 
HETATM    3  C9  UNL     1      26.196   3.650  49.412  1.00  0.00     0.033 A 
HETATM    4  C10 UNL     1      24.951   3.796  49.974  1.00  0.00     0.069 A 
HETATM    5  C11 UNL     1      24.448   5.153  50.114  1.00  0.00     0.005 A 
HETATM    6  C12 UNL     1      25.203   6.225  49.693  1.00  0.00     0.029 A 
HETATM    7  C13 UNL     1      23.102   5.017  50.767  1.00  0.00    -0.006 A 
HETATM    8  C14 UNL     1      23.623   5.250  51.996  1.00  0.00     0.016 A 
HETATM    9  C15 UNL     1      22.570   4.528  52.502  1.00  0.00     0.030 A 
HETATM   10  C16 UNL     1      21.621   3.980  51.689  1.00  0.00     0.034 A 
HETATM   11  C17 UNL     1      21.463   3.998  50.320  1.00  0.00     0.049 A 
HETATM   12  C18 UNL     1      22.440   4.686  49.638  1.00  0.00     0.024 A 
HETATM   13 BR1  UNL     1      22.647   4.992  47.782  1.00  0.00    -0.050 Br
HETATM   14  N3  UNL     1      20.686   3.111  52.372  1.00  0.00    -0.351 N 
HETATM   15  C19 UNL     1      21.574   1.965  52.097  1.00  0.00     0.208 C 
HETATM   16  N4  UNL     1      22.752   1.403  51.781  1.00  0.00    -0.237 NA
HETATM   17  C20 UNL     1      23.859   2.321  51.559  1.00  0.00     0.234 C 
HETATM   18  N5  UNL     1      24.003   2.882  50.446  1.00  0.00    -0.241 NA
HETATM   19  H18 UNL     1      19.910   2.651  52.892  1.00  0.00     0.166 HD
ENDROOT
BRANCH   1  20
HETATM   20  C1  UNL     1      27.143   7.195  48.738  1.00  0.00     0.106 C 
HETATM   21  S1  UNL     1      26.297   7.774  47.442  1.00  0.00    -0.060 SA
BRANCH  20  22
HETATM   22  N1  UNL     1      28.320   7.791  49.301  1.00  0.00    -0.378 N 
HETATM   23  H1  UNL     1      28.173   8.004  50.311  1.00  0.00     0.160 HD
BRANCH  22  24
HETATM   24  C2  UNL     1      29.391   7.939  48.326  1.00  0.00     0.156 C 
BRANCH  24  25
HETATM   25  C3  UNL     1      30.005   6.597  48.095  1.00  0.00     0.242 C 
HETATM   26  C4  UNL     1      31.183   6.637  47.147  1.00  0.00     0.063 C 
HETATM   27  C5  UNL     1      32.089   7.752  47.644  1.00  0.00     0.172 C 
HETATM   28  O1  UNL     1      32.189   7.708  49.033  1.00  0.00    -0.363 OA
HETATM   29  C6  UNL     1      31.869   6.473  49.560  1.00  0.00     0.438 C 
HETATM   30  N2  UNL     1      30.485   6.088  49.368  1.00  0.00     0.112 N 
HETATM   31  H11 UNL     1      29.879   6.503  50.111  1.00  0.00     0.319 HD
ENDBRANCH  24  25
ENDBRANCH  22  24
ENDBRANCH  20  22
ENDBRANCH   1  20
TORSDOF 4
ENDMDL
MODEL 8
REMARK VINA RESULT:      -7.9      2.908      7.798
REMARK  4 active torsions:
REMARK  status: ('A' for Active; 'I' for Inactive)
REMARK    1  A    between atoms: C1_2  and  N1_3 
REMARK    2  A    between atoms: C1_2  and  C7_11 
REMARK    3  A    between atoms: N1_3  and  C2_4 
REMARK    4  A    between atoms: C2_4  and  C3_5 
ROOT
HETATM    1  C7  UNL     1      23.973   4.526  50.506  1.00  0.00     0.003 A 
HETATM    2  C8  UNL     1      23.756   5.482  51.473  1.00  0.00     0.017 A 
HETATM    3  C9  UNL     1      24.307   6.734  51.324  1.00  0.00     0.033 A 
HETATM    4  C10 UNL     1      25.074   7.071  50.235  1.00  0.00     0.069 A 
HETATM    5  C11 UNL     1      25.284   6.037  49.234  1.00  0.00     0.005 A 
HETATM    6  C12 UNL     1      24.727   4.787  49.393  1.00  0.00     0.029 A 
HETATM    7  C13 UNL     1      26.161   6.663  48.189  1.00  0.00    -0.006 A 
HETATM    8  C14 UNL     1      27.279   6.135  48.743  1.00  0.00     0.016 A 
HETATM    9  C15 UNL     1      27.967   7.183  48.183  1.00  0.00     0.030 A 
HETATM   10  C16 UNL     1      27.337   8.141  47.443  1.00  0.00     0.034 A 
HETATM   11  C17 UNL     1      26.015   8.302  47.086  1.00  0.00     0.049 A 
HETATM   12  C18 UNL     1      25.167   7.331  47.564  1.00  0.00     0.024 A 
HETATM   13 BR1  UNL     1      23.300   7.122  47.338  1.00  0.00    -0.050 Br
HETATM   14  N3  UNL     1      28.181   9.258  47.078  1.00  0.00    -0.351 N 
HETATM   15  C19 UNL     1      27.768   9.953  48.313  1.00  0.00     0.208 C 
HETATM   16  N4  UNL     1      27.260  10.001  49.555  1.00  0.00    -0.237 NA
HETATM   17  C20 UNL     1      26.839   8.728  50.123  1.00  0.00     0.234 C 
HETATM   18  N5  UNL     1      25.713   8.253  49.845  1.00  0.00    -0.241 NA
HETATM   19  H18 UNL     1      28.832   9.954  46.657  1.00  0.00     0.166 HD
ENDROOT
BRANCH   1  20
HETATM   20  C1  UNL     1      23.441   3.184  50.572  1.00  0.00     0.106 C 
HETATM   21  S1  UNL     1      23.063   2.797  49.010  1.00  0.00    -0.060 SA
BRANCH  20  22
HETATM   22  N1  UNL     1      23.259   2.331  51.711  1.00  0.00    -0.378 N 
HETATM   23  H1  UNL     1      22.302   1.917  51.707  1.00  0.00     0.160 HD
BRANCH  22  24
HETATM   24  C2  UNL     1      24.442   2.272  52.558  1.00  0.00     0.156 C 
BRANCH  24  25
HETATM   25  C3  UNL     1      25.131   0.969  52.312  1.00  0.00     0.242 C 
HETATM   26  C4  UNL     1      26.550   1.132  51.816  1.00  0.00     0.063 C 
HETATM   27  C5  UNL     1      27.219   2.118  52.759  1.00  0.00     0.172 C 
HETATM   28  O1  UNL     1      26.867   1.837  54.077  1.00  0.00    -0.363 OA
HETATM   29  C6  UNL     1      26.426   0.542  54.256  1.00  0.00     0.438 C 
HETATM   30  N2  UNL     1      25.187   0.238  53.566  1.00  0.00     0.112 N 
HETATM   31  H11 UNL     1      24.364   0.540  54.134  1.00  0.00     0.319 HD
ENDBRANCH  24  25
ENDBRANCH  22  24
ENDBRANCH  20  22
ENDBRANCH   1  20
TORSDOF 4
ENDMDL
MODEL 9
REMARK VINA RESULT:      -7.7      4.709      5.809
REMARK  4 active torsions:
REMARK  status: ('A' for Active; 'I' for Inactive)
REMARK    1  A    between atoms: C1_2  and  N1_3 
REMARK    2  A    between atoms: C1_2  and  C7_11 
REMARK    3  A    between atoms: N1_3  and  C2_4 
REMARK    4  A    between atoms: C2_4  and  C3_5 
ROOT
HETATM    1  C7  UNL     1      22.112   1.445  50.267  1.00  0.00     0.003 A 
HETATM    2  C8  UNL     1      21.482   0.590  51.145  1.00  0.00     0.017 A 
HETATM    3  C9  UNL     1      22.144   0.175  52.278  1.00  0.00     0.033 A 
HETATM    4  C10 UNL     1      23.421   0.586  52.571  1.00  0.00     0.069 A 
HETATM    5  C11 UNL     1      24.056   1.487  51.623  1.00  0.00     0.005 A 
HETATM    6  C12 UNL     1      23.385   1.897  50.492  1.00  0.00     0.029 A 
HETATM    7  C13 UNL     1      25.428   1.748  52.174  1.00  0.00    -0.006 A 
HETATM    8  C14 UNL     1      25.976   0.788  51.390  1.00  0.00     0.016 A 
HETATM    9  C15 UNL     1      26.961   0.674  52.341  1.00  0.00     0.030 A 
HETATM   10  C16 UNL     1      26.961   1.440  53.470  1.00  0.00     0.034 A 
HETATM   11  C17 UNL     1      26.097   2.419  53.914  1.00  0.00     0.049 A 
HETATM   12  C18 UNL     1      25.035   2.671  53.078  1.00  0.00     0.024 A 
HETATM   13 BR1  UNL     1      23.615   3.909  53.250  1.00  0.00    -0.050 Br
HETATM   14  N3  UNL     1      27.970   1.068  54.438  1.00  0.00    -0.351 N 
HETATM   15  C19 UNL     1      27.003   0.149  55.070  1.00  0.00     0.208 C 
HETATM   16  N4  UNL     1      25.889  -0.600  55.088  1.00  0.00    -0.237 NA
HETATM   17  C20 UNL     1      25.095  -0.595  53.867  1.00  0.00     0.234 C 
HETATM   18  N5  UNL     1      24.283   0.334  53.645  1.00  0.00    -0.241 NA
HETATM   19  H18 UNL     1      28.811   0.927  55.036  1.00  0.00     0.166 HD
ENDROOT
BRANCH   1  20
HETATM   20  C1  UNL     1      21.504   1.934  49.051  1.00  0.00     0.106 C 
HETATM   21  S1  UNL     1      22.663   2.878  48.345  1.00  0.00    -0.060 SA
BRANCH  20  22
HETATM   22  N1  UNL     1      20.193   1.688  48.524  1.00  0.00    -0.378 N 
HETATM   23  H1  UNL     1      20.256   1.290  47.563  1.00  0.00     0.160 HD
BRANCH  22  24
HETATM   24  C2  UNL     1      19.138   2.055  49.459  1.00  0.00     0.156 C 
BRANCH  24  25
HETATM   25  C3  UNL     1      19.237   3.521  49.726  1.00  0.00     0.242 C 
HETATM   26  C4  UNL     1      18.282   4.343  48.890  1.00  0.00     0.063 C 
HETATM   27  C5  UNL     1      16.919   3.689  49.036  1.00  0.00     0.172 C 
HETATM   28  O1  UNL     1      16.699   3.324  50.363  1.00  0.00    -0.363 OA
HETATM   29  C6  UNL     1      17.489   4.022  51.255  1.00  0.00     0.438 C 
HETATM   30  N2  UNL     1      18.908   3.754  51.122  1.00  0.00     0.112 N 
HETATM   31  H11 UNL     1      19.171   2.890  51.647  1.00  0.00     0.319 HD
ENDBRANCH  24  25
ENDBRANCH  22  24
ENDBRANCH  20  22
ENDBRANCH   1  20
TORSDOF 4
ENDMDL
