MODEL 1
REMARK VINA RESULT:      -7.8      0.000      0.000
REMARK  5 active torsions:
REMARK  status: ('A' for Active; 'I' for Inactive)
REMARK    1  A    between atoms: N1_1  and  C1_2 
REMARK    2  A    between atoms: C1_2  and  C10_13 
REMARK    3  A    between atoms: C2_3  and  O1_4 
REMARK    4  A    between atoms: O1_4  and  C3_5 
REMARK       I    between atoms: C10_13  and  N2_15 
REMARK    5  A    between atoms: N2_15  and  C11_16 
ROOT
HETATM    1  C1  UNL     1      22.827   1.804  52.270  1.00  0.00     0.117 C 
HETATM    2  C2  UNL     1      23.318   0.641  52.711  1.00  0.00     0.175 C 
ENDROOT
BRANCH   1   3
HETATM    3  N1  UNL     1      21.402   2.026  52.279  1.00  0.00    -0.393 N 
HETATM    4  H1  UNL     1      21.230   2.418  53.241  1.00  0.00     0.156 HD
HETATM    5  H2  UNL     1      21.115   1.706  51.320  1.00  0.00     0.156 HD
ENDBRANCH   1   3
BRANCH   1   6
HETATM    6  C10 UNL     1      23.781   2.802  51.793  1.00  0.00     0.274 C 
HETATM    7  O3  UNL     1      24.179   3.551  52.724  1.00  0.00    -0.266 OA
HETATM    8  N2  UNL     1      24.132   2.809  50.401  1.00  0.00    -0.322 N 
HETATM    9  H13 UNL     1      23.684   2.095  49.793  1.00  0.00     0.169 HD
BRANCH   8  10
HETATM   10  C11 UNL     1      25.045   3.728  49.819  1.00  0.00     0.035 A 
HETATM   11  C12 UNL     1      26.359   3.338  49.640  1.00  0.00     0.029 A 
HETATM   12  C13 UNL     1      27.208   4.261  49.072  1.00  0.00     0.002 A 
HETATM   13  C14 UNL     1      26.824   5.512  48.687  1.00  0.00     0.000 A 
HETATM   14  C15 UNL     1      25.503   5.914  48.864  1.00  0.00     0.002 A 
HETATM   15  C16 UNL     1      24.649   4.997  49.430  1.00  0.00     0.029 A 
ENDBRANCH   8  10
ENDBRANCH   1   6
BRANCH   2  16
HETATM   16  O1  UNL     1      24.498  -0.068  52.919  1.00  0.00    -0.332 OA
BRANCH  16  17
HETATM   17  C3  UNL     1      25.506   0.344  53.770  1.00  0.00     0.150 C 
HETATM   18  C4  UNL     1      26.672  -0.276  53.670  1.00  0.00    -0.013 C 
HETATM   19  C5  UNL     1      27.805   0.108  54.550  1.00  0.00     0.007 C 
HETATM   20  C9  UNL     1      26.808  -1.377  52.643  1.00  0.00     0.208 C 
HETATM   21  C6  UNL     1      29.093  -0.196  54.449  1.00  0.00    -0.024 C 
HETATM   22  C7  UNL     1      29.633  -1.038  53.343  1.00  0.00     0.053 C 
HETATM   23  C8  UNL     1      28.908  -2.311  53.180  1.00  0.00     0.171 C 
HETATM   24  O2  UNL     1      27.586  -2.377  53.092  1.00  0.00    -0.386 OA
ENDBRANCH  16  17
ENDBRANCH   2  16
TORSDOF 5
ENDMDL
MODEL 2
REMARK VINA RESULT:      -7.6      2.376      5.656
REMARK  5 active torsions:
REMARK  status: ('A' for Active; 'I' for Inactive)
REMARK    1  A    between atoms: N1_1  and  C1_2 
REMARK    2  A    between atoms: C1_2  and  C10_13 
REMARK    3  A    between atoms: C2_3  and  O1_4 
REMARK    4  A    between atoms: O1_4  and  C3_5 
REMARK       I    between atoms: C10_13  and  N2_15 
REMARK    5  A    between atoms: N2_15  and  C11_16 
ROOT
HETATM    1  C1  UNL     1      24.943   3.761  50.827  1.00  0.00     0.117 C 
HETATM    2  C2  UNL     1      23.809   3.124  50.514  1.00  0.00     0.175 C 
ENDROOT
BRANCH   1   3
HETATM    3  N1  UNL     1      24.985   5.202  50.793  1.00  0.00    -0.393 N 
HETATM    4  H1  UNL     1      24.984   5.463  51.813  1.00  0.00     0.156 HD
HETATM    5  H2  UNL     1      24.998   5.406  49.762  1.00  0.00     0.156 HD
ENDBRANCH   1   3
BRANCH   1   6
HETATM    6  C10 UNL     1      26.097   2.943  51.191  1.00  0.00     0.274 C 
HETATM    7  O3  UNL     1      26.865   2.755  50.211  1.00  0.00    -0.266 OA
HETATM    8  N2  UNL     1      26.211   2.478  52.545  1.00  0.00    -0.322 N 
HETATM    9  H13 UNL     1      25.457   2.749  53.207  1.00  0.00     0.169 HD
BRANCH   8  10
HETATM   10  C11 UNL     1      27.283   1.678  53.020  1.00  0.00     0.035 A 
HETATM   11  C12 UNL     1      28.335   2.292  53.673  1.00  0.00     0.029 A 
HETATM   12  C13 UNL     1      29.352   1.477  54.116  1.00  0.00     0.002 A 
HETATM   13  C14 UNL     1      29.372   0.124  53.945  1.00  0.00     0.000 A 
HETATM   14  C15 UNL     1      28.317  -0.505  53.287  1.00  0.00     0.002 A 
HETATM   15  C16 UNL     1      27.297   0.304  52.842  1.00  0.00     0.029 A 
ENDBRANCH   8  10
ENDBRANCH   1   6
BRANCH   2  16
HETATM   16  O1  UNL     1      23.233   1.863  50.386  1.00  0.00    -0.332 OA
BRANCH  16  17
HETATM   17  C3  UNL     1      21.981   1.534  50.870  1.00  0.00     0.150 C 
HETATM   18  C4  UNL     1      21.932   0.823  51.986  1.00  0.00    -0.013 C 
HETATM   19  C5  UNL     1      20.624   0.429  52.569  1.00  0.00     0.007 C 
HETATM   20  C9  UNL     1      23.238   0.431  52.638  1.00  0.00     0.208 C 
HETATM   21  C6  UNL     1      20.348  -0.047  53.776  1.00  0.00    -0.024 C 
HETATM   22  C7  UNL     1      21.400  -0.274  54.808  1.00  0.00     0.053 C 
HETATM   23  C8  UNL     1      22.532  -1.077  54.312  1.00  0.00     0.171 C 
HETATM   24  O2  UNL     1      23.168  -0.797  53.182  1.00  0.00    -0.386 OA
ENDBRANCH  16  17
ENDBRANCH   2  16
TORSDOF 5
ENDMDL
MODEL 3
REMARK VINA RESULT:      -7.6      1.603      2.088
REMARK  5 active torsions:
REMARK  status: ('A' for Active; 'I' for Inactive)
REMARK    1  A    between atoms: N1_1  and  C1_2 
REMARK    2  A    between atoms: C1_2  and  C10_13 
REMARK    3  A    between atoms: C2_3  and  O1_4 
REMARK    4  A    between atoms: O1_4  and  C3_5 
REMARK       I    between atoms: C10_13  and  N2_15 
REMARK    5  A    between atoms: N2_15  and  C11_16 
ROOT
HETATM    1  C1  UNL     1      22.210   1.034  51.478  1.00  0.00     0.117 C 
HETATM    2  C2  UNL     1      22.796   0.598  52.599  1.00  0.00     0.175 C 
ENDROOT
BRANCH   1   3
HETATM    3  N1  UNL     1      20.851   0.652  51.189  1.00  0.00    -0.393 N 
HETATM    4  H1  UNL     1      20.354   1.578  51.119  1.00  0.00     0.156 HD
HETATM    5  H2  UNL     1      20.908  -0.397  51.165  1.00  0.00     0.156 HD
ENDBRANCH   1   3
BRANCH   1   6
HETATM    6  C10 UNL     1      22.998   1.889  50.594  1.00  0.00     0.274 C 
HETATM    7  O3  UNL     1      22.597   1.827  49.402  1.00  0.00    -0.266 OA
HETATM    8  N2  UNL     1      24.074   2.655  51.157  1.00  0.00    -0.322 N 
HETATM    9  H13 UNL     1      24.243   2.562  52.179  1.00  0.00     0.169 HD
BRANCH   8  10
HETATM   10  C11 UNL     1      24.911   3.520  50.403  1.00  0.00     0.035 A 
HETATM   11  C12 UNL     1      26.171   3.082  50.045  1.00  0.00     0.029 A 
HETATM   12  C13 UNL     1      26.948   3.953  49.315  1.00  0.00     0.002 A 
HETATM   13  C14 UNL     1      26.542   5.200  48.937  1.00  0.00     0.000 A 
HETATM   14  C15 UNL     1      25.274   5.651  49.294  1.00  0.00     0.002 A 
HETATM   15  C16 UNL     1      24.493   4.785  50.023  1.00  0.00     0.029 A 
ENDBRANCH   8  10
ENDBRANCH   1   6
BRANCH   2  16
HETATM   16  O1  UNL     1      23.979   0.641  53.332  1.00  0.00    -0.332 OA
BRANCH  16  17
HETATM   17  C3  UNL     1      25.053  -0.200  53.113  1.00  0.00     0.150 C 
HETATM   18  C4  UNL     1      26.263   0.298  53.322  1.00  0.00    -0.013 C 
HETATM   19  C5  UNL     1      27.468  -0.542  53.108  1.00  0.00     0.007 C 
HETATM   20  C9  UNL     1      26.372   1.735  53.780  1.00  0.00     0.208 C 
HETATM   21  C6  UNL     1      28.721  -0.332  53.491  1.00  0.00    -0.024 C 
HETATM   22  C7  UNL     1      29.134   0.880  54.255  1.00  0.00     0.053 C 
HETATM   23  C8  UNL     1      28.693   2.138  53.625  1.00  0.00     0.171 C 
HETATM   24  O2  UNL     1      27.441   2.344  53.238  1.00  0.00    -0.386 OA
ENDBRANCH  16  17
ENDBRANCH   2  16
TORSDOF 5
ENDMDL
MODEL 4
REMARK VINA RESULT:      -7.5      1.697      6.143
REMARK  5 active torsions:
REMARK  status: ('A' for Active; 'I' for Inactive)
REMARK    1  A    between atoms: N1_1  and  C1_2 
REMARK    2  A    between atoms: C1_2  and  C10_13 
REMARK    3  A    between atoms: C2_3  and  O1_4 
REMARK    4  A    between atoms: O1_4  and  C3_5 
REMARK       I    between atoms: C10_13  and  N2_15 
REMARK    5  A    between atoms: N2_15  and  C11_16 
ROOT
HETATM    1  C1  UNL     1      23.447   0.367  53.082  1.00  0.00     0.117 C 
HETATM    2  C2  UNL     1      23.379   1.301  52.127  1.00  0.00     0.175 C 
ENDROOT
BRANCH   1   3
HETATM    3  N1  UNL     1      22.232  -0.161  53.651  1.00  0.00    -0.393 N 
HETATM    4  H1  UNL     1      22.397  -1.202  53.637  1.00  0.00     0.156 HD
HETATM    5  H2  UNL     1      21.675   0.707  53.849  1.00  0.00     0.156 HD
ENDBRANCH   1   3
BRANCH   1   6
HETATM    6  C10 UNL     1      24.775  -0.071  53.504  1.00  0.00     0.274 C 
HETATM    7  O3  UNL     1      24.733  -0.723  54.580  1.00  0.00    -0.266 OA
HETATM    8  N2  UNL     1      25.905   0.274  52.687  1.00  0.00    -0.322 N 
HETATM    9  H13 UNL     1      25.720   0.827  51.826  1.00  0.00     0.169 HD
BRANCH   8  10
HETATM   10  C11 UNL     1      27.243  -0.092  52.990  1.00  0.00     0.035 A 
HETATM   11  C12 UNL     1      27.605  -1.422  52.906  1.00  0.00     0.029 A 
HETATM   12  C13 UNL     1      28.912  -1.731  53.208  1.00  0.00     0.002 A 
HETATM   13  C14 UNL     1      29.845  -0.808  53.580  1.00  0.00     0.000 A 
HETATM   14  C15 UNL     1      29.490   0.536  53.669  1.00  0.00     0.002 A 
HETATM   15  C16 UNL     1      28.186   0.851  53.367  1.00  0.00     0.029 A 
ENDBRANCH   8  10
ENDBRANCH   1   6
BRANCH   2  16
HETATM   16  O1  UNL     1      24.150   2.101  51.288  1.00  0.00    -0.332 OA
BRANCH  16  17
HETATM   17  C3  UNL     1      24.146   3.483  51.322  1.00  0.00     0.150 C 
HETATM   18  C4  UNL     1      25.014   4.108  50.541  1.00  0.00    -0.013 C 
HETATM   19  C5  UNL     1      25.072   5.592  50.522  1.00  0.00     0.007 C 
HETATM   20  C9  UNL     1      25.932   3.270  49.682  1.00  0.00     0.208 C 
HETATM   21  C6  UNL     1      25.668   6.401  49.655  1.00  0.00    -0.024 C 
HETATM   22  C7  UNL     1      26.428   5.894  48.477  1.00  0.00     0.053 C 
HETATM   23  C8  UNL     1      27.436   4.879  48.833  1.00  0.00     0.171 C 
HETATM   24  O2  UNL     1      27.154   3.822  49.582  1.00  0.00    -0.386 OA
ENDBRANCH  16  17
ENDBRANCH   2  16
TORSDOF 5
ENDMDL
MODEL 5
REMARK VINA RESULT:      -7.5      2.505      5.396
REMARK  5 active torsions:
REMARK  status: ('A' for Active; 'I' for Inactive)
REMARK    1  A    between atoms: N1_1  and  C1_2 
REMARK    2  A    between atoms: C1_2  and  C10_13 
REMARK    3  A    between atoms: C2_3  and  O1_4 
REMARK    4  A    between atoms: O1_4  and  C3_5 
REMARK       I    between atoms: C10_13  and  N2_15 
REMARK    5  A    between atoms: N2_15  and  C11_16 
ROOT
HETATM    1  C1  UNL     1      21.821   3.968  51.171  1.00  0.00     0.117 C 
HETATM    2  C2  UNL     1      23.134   4.222  51.142  1.00  0.00     0.175 C 
ENDROOT
BRANCH   1   3
HETATM    3  N1  UNL     1      20.927   4.739  50.343  1.00  0.00    -0.393 N 
HETATM    4  H1  UNL     1      20.472   4.006  49.739  1.00  0.00     0.156 HD
HETATM    5  H2  UNL     1      21.093   5.721  50.679  1.00  0.00     0.156 HD
ENDBRANCH   1   3
BRANCH   1   6
HETATM    6  C10 UNL     1      21.360   2.904  52.058  1.00  0.00     0.274 C 
HETATM    7  O3  UNL     1      20.396   3.279  52.777  1.00  0.00    -0.266 OA
HETATM    8  N2  UNL     1      22.022   1.631  52.008  1.00  0.00    -0.322 N 
HETATM    9  H13 UNL     1      22.807   1.528  51.335  1.00  0.00     0.169 HD
BRANCH   8  10
HETATM   10  C11 UNL     1      21.667   0.521  52.819  1.00  0.00     0.035 A 
HETATM   11  C12 UNL     1      22.644  -0.083  53.587  1.00  0.00     0.029 A 
HETATM   12  C13 UNL     1      22.255  -1.156  54.357  1.00  0.00     0.002 A 
HETATM   13  C14 UNL     1      20.980  -1.640  54.398  1.00  0.00     0.000 A 
HETATM   14  C15 UNL     1      19.988  -1.039  53.627  1.00  0.00     0.002 A 
HETATM   15  C16 UNL     1      20.370   0.033  52.855  1.00  0.00     0.029 A 
ENDBRANCH   8  10
ENDBRANCH   1   6
BRANCH   2  16
HETATM   16  O1  UNL     1      24.360   3.834  51.675  1.00  0.00    -0.332 OA
BRANCH  16  17
HETATM   17  C3  UNL     1      25.110   2.776  51.197  1.00  0.00     0.150 C 
HETATM   18  C4  UNL     1      25.621   1.944  52.092  1.00  0.00    -0.013 C 
HETATM   19  C5  UNL     1      26.438   0.784  51.658  1.00  0.00     0.007 C 
HETATM   20  C9  UNL     1      25.347   2.215  53.554  1.00  0.00     0.208 C 
HETATM   21  C6  UNL     1      26.820  -0.285  52.347  1.00  0.00    -0.024 C 
HETATM   22  C7  UNL     1      26.451  -0.490  53.777  1.00  0.00     0.053 C 
HETATM   23  C8  UNL     1      26.772   0.670  54.628  1.00  0.00     0.171 C 
HETATM   24  O2  UNL     1      26.408   1.908  54.319  1.00  0.00    -0.386 OA
ENDBRANCH  16  17
ENDBRANCH   2  16
TORSDOF 5
ENDMDL
MODEL 6
REMARK VINA RESULT:      -7.4      2.496      3.409
REMARK  5 active torsions:
REMARK  status: ('A' for Active; 'I' for Inactive)
REMARK    1  A    between atoms: N1_1  and  C1_2 
REMARK    2  A    between atoms: C1_2  and  C10_13 
REMARK    3  A    between atoms: C2_3  and  O1_4 
REMARK    4  A    between atoms: O1_4  and  C3_5 
REMARK       I    between atoms: C10_13  and  N2_15 
REMARK    5  A    between atoms: N2_15  and  C11_16 
ROOT
HETATM    1  C1  UNL     1      21.455  -0.302  53.708  1.00  0.00     0.117 C 
HETATM    2  C2  UNL     1      22.660  -0.491  54.255  1.00  0.00     0.175 C 
ENDROOT
BRANCH   1   3
HETATM    3  N1  UNL     1      20.313  -1.008  54.236  1.00  0.00    -0.393 N 
HETATM    4  H1  UNL     1      19.553  -0.279  54.214  1.00  0.00     0.156 HD
HETATM    5  H2  UNL     1      20.704  -1.964  54.429  1.00  0.00     0.156 HD
ENDBRANCH   1   3
BRANCH   1   6
HETATM    6  C10 UNL     1      21.361   0.626  52.584  1.00  0.00     0.274 C 
HETATM    7  O3  UNL     1      20.413   1.442  52.728  1.00  0.00    -0.266 OA
HETATM    8  N2  UNL     1      22.307   0.505  51.511  1.00  0.00    -0.322 N 
HETATM    9  H13 UNL     1      23.021  -0.248  51.587  1.00  0.00     0.169 HD
BRANCH   8  10
HETATM   10  C11 UNL     1      22.320   1.345  50.366  1.00  0.00     0.035 A 
HETATM   11  C12 UNL     1      21.521   1.013  49.288  1.00  0.00     0.029 A 
HETATM   12  C13 UNL     1      21.565   1.856  48.200  1.00  0.00     0.002 A 
HETATM   13  C14 UNL     1      22.341   2.976  48.136  1.00  0.00     0.000 A 
HETATM   14  C15 UNL     1      23.150   3.318  49.217  1.00  0.00     0.002 A 
HETATM   15  C16 UNL     1      23.110   2.480  50.308  1.00  0.00     0.029 A 
ENDBRANCH   8  10
ENDBRANCH   1   6
BRANCH   2  16
HETATM   16  O1  UNL     1      23.998  -0.115  54.170  1.00  0.00    -0.332 OA
BRANCH  16  17
HETATM   17  C3  UNL     1      24.951  -0.811  53.450  1.00  0.00     0.150 C 
HETATM   18  C4  UNL     1      26.219  -0.490  53.658  1.00  0.00    -0.013 C 
HETATM   19  C5  UNL     1      27.301  -1.190  52.922  1.00  0.00     0.007 C 
HETATM   20  C9  UNL     1      26.522   0.603  54.658  1.00  0.00     0.208 C 
HETATM   21  C6  UNL     1      28.608  -1.206  53.156  1.00  0.00    -0.024 C 
HETATM   22  C7  UNL     1      29.228  -0.458  54.287  1.00  0.00     0.053 C 
HETATM   23  C8  UNL     1      28.831   0.962  54.327  1.00  0.00     0.171 C 
HETATM   24  O2  UNL     1      27.566   1.354  54.266  1.00  0.00    -0.386 OA
ENDBRANCH  16  17
ENDBRANCH   2  16
TORSDOF 5
ENDMDL
MODEL 7
REMARK VINA RESULT:      -7.4      2.155      6.551
REMARK  5 active torsions:
REMARK  status: ('A' for Active; 'I' for Inactive)
REMARK    1  A    between atoms: N1_1  and  C1_2 
REMARK    2  A    between atoms: C1_2  and  C10_13 
REMARK    3  A    between atoms: C2_3  and  O1_4 
REMARK    4  A    between atoms: O1_4  and  C3_5 
REMARK       I    between atoms: C10_13  and  N2_15 
REMARK    5  A    between atoms: N2_15  and  C11_16 
ROOT
HETATM    1  C1  UNL     1      23.269  -0.715  54.284  1.00  0.00     0.117 C 
HETATM    2  C2  UNL     1      22.858   0.287  53.500  1.00  0.00     0.175 C 
ENDROOT
BRANCH   1   3
HETATM    3  N1  UNL     1      22.300  -1.608  54.869  1.00  0.00    -0.393 N 
HETATM    4  H1  UNL     1      21.599  -0.949  55.298  1.00  0.00     0.156 HD
HETATM    5  H2  UNL     1      22.686  -2.555  54.628  1.00  0.00     0.156 HD
ENDBRANCH   1   3
BRANCH   1   6
HETATM    6  C10 UNL     1      24.706  -0.850  54.508  1.00  0.00     0.274 C 
HETATM    7  O3  UNL     1      24.960  -1.356  55.633  1.00  0.00    -0.266 OA
HETATM    8  N2  UNL     1      25.607  -0.415  53.477  1.00  0.00    -0.322 N 
HETATM    9  H13 UNL     1      25.187  -0.020  52.613  1.00  0.00     0.169 HD
BRANCH   8  10
HETATM   10  C11 UNL     1      27.022  -0.493  53.577  1.00  0.00     0.035 A 
HETATM   11  C12 UNL     1      27.671  -1.568  53.001  1.00  0.00     0.029 A 
HETATM   12  C13 UNL     1      29.042  -1.603  53.121  1.00  0.00     0.002 A 
HETATM   13  C14 UNL     1      29.773  -0.649  53.768  1.00  0.00     0.000 A 
HETATM   14  C15 UNL     1      29.128   0.437  54.352  1.00  0.00     0.002 A 
HETATM   15  C16 UNL     1      27.758   0.478  54.235  1.00  0.00     0.029 A 
ENDBRANCH   8  10
ENDBRANCH   1   6
BRANCH   2  16
HETATM   16  O1  UNL     1      23.301   1.362  52.734  1.00  0.00    -0.332 OA
BRANCH  16  17
HETATM   17  C3  UNL     1      22.971   1.550  51.405  1.00  0.00     0.150 C 
HETATM   18  C4  UNL     1      23.323   2.701  50.852  1.00  0.00    -0.013 C 
HETATM   19  C5  UNL     1      23.004   2.979  49.429  1.00  0.00     0.007 C 
HETATM   20  C9  UNL     1      24.052   3.710  51.710  1.00  0.00     0.208 C 
HETATM   21  C6  UNL     1      23.472   3.929  48.629  1.00  0.00    -0.024 C 
HETATM   22  C7  UNL     1      24.472   4.938  49.083  1.00  0.00     0.053 C 
HETATM   23  C8  UNL     1      24.076   5.623  50.328  1.00  0.00     0.171 C 
HETATM   24  O2  UNL     1      23.683   4.967  51.412  1.00  0.00    -0.386 OA
ENDBRANCH  16  17
ENDBRANCH   2  16
TORSDOF 5
ENDMDL
MODEL 8
REMARK VINA RESULT:      -7.4      2.283      5.940
REMARK  5 active torsions:
REMARK  status: ('A' for Active; 'I' for Inactive)
REMARK    1  A    between atoms: N1_1  and  C1_2 
REMARK    2  A    between atoms: C1_2  and  C10_13 
REMARK    3  A    between atoms: C2_3  and  O1_4 
REMARK    4  A    between atoms: O1_4  and  C3_5 
REMARK       I    between atoms: C10_13  and  N2_15 
REMARK    5  A    between atoms: N2_15  and  C11_16 
ROOT
HETATM    1  C1  UNL     1      25.780   4.871  49.892  1.00  0.00     0.117 C 
HETATM    2  C2  UNL     1      24.475   5.017  50.145  1.00  0.00     0.175 C 
ENDROOT
BRANCH   1   3
HETATM    3  N1  UNL     1      26.508   5.939  49.254  1.00  0.00    -0.393 N 
HETATM    4  H1  UNL     1      27.178   5.427  48.624  1.00  0.00     0.156 HD
HETATM    5  H2  UNL     1      26.073   6.797  49.678  1.00  0.00     0.156 HD
ENDBRANCH   1   3
BRANCH   1   6
HETATM    6  C10 UNL     1      26.405   3.610  50.284  1.00  0.00     0.274 C 
HETATM    7  O3  UNL     1      27.054   3.094  49.336  1.00  0.00    -0.266 OA
HETATM    8  N2  UNL     1      26.216   3.136  51.626  1.00  0.00    -0.322 N 
HETATM    9  H13 UNL     1      25.636   3.721  52.261  1.00  0.00     0.169 HD
BRANCH   8  10
HETATM   10  C11 UNL     1      26.770   1.928  52.126  1.00  0.00     0.035 A 
HETATM   11  C12 UNL     1      26.178   0.730  51.778  1.00  0.00     0.029 A 
HETATM   12  C13 UNL     1      26.748  -0.416  52.285  1.00  0.00     0.002 A 
HETATM   13  C14 UNL     1      27.845  -0.424  53.096  1.00  0.00     0.000 A 
HETATM   14  C15 UNL     1      28.449   0.778  53.454  1.00  0.00     0.002 A 
HETATM   15  C16 UNL     1      27.884   1.927  52.950  1.00  0.00     0.029 A 
ENDBRANCH   8  10
ENDBRANCH   1   6
BRANCH   2  16
HETATM   16  O1  UNL     1      23.363   4.381  50.689  1.00  0.00    -0.332 OA
BRANCH  16  17
HETATM   17  C3  UNL     1      22.801   3.230  50.170  1.00  0.00     0.150 C 
HETATM   18  C4  UNL     1      22.463   2.282  51.030  1.00  0.00    -0.013 C 
HETATM   19  C5  UNL     1      21.855   1.015  50.551  1.00  0.00     0.007 C 
HETATM   20  C9  UNL     1      22.716   2.530  52.500  1.00  0.00     0.208 C 
HETATM   21  C6  UNL     1      21.226   0.068  51.237  1.00  0.00    -0.024 C 
HETATM   22  C7  UNL     1      21.023   0.148  52.712  1.00  0.00     0.053 C 
HETATM   23  C8  UNL     1      22.270   0.417  53.453  1.00  0.00     0.171 C 
HETATM   24  O2  UNL     1      23.094   1.405  53.132  1.00  0.00    -0.386 OA
ENDBRANCH  16  17
ENDBRANCH   2  16
TORSDOF 5
ENDMDL
MODEL 9
REMARK VINA RESULT:      -7.3      1.835      2.714
REMARK  5 active torsions:
REMARK  status: ('A' for Active; 'I' for Inactive)
REMARK    1  A    between atoms: N1_1  and  C1_2 
REMARK    2  A    between atoms: C1_2  and  C10_13 
REMARK    3  A    between atoms: C2_3  and  O1_4 
REMARK    4  A    between atoms: O1_4  and  C3_5 
REMARK       I    between atoms: C10_13  and  N2_15 
REMARK    5  A    between atoms: N2_15  and  C11_16 
ROOT
HETATM    1  C1  UNL     1      22.442   3.795  51.068  1.00  0.00     0.117 C 
HETATM    2  C2  UNL     1      22.879   3.046  52.086  1.00  0.00     0.175 C 
ENDROOT
BRANCH   1   3
HETATM    3  N1  UNL     1      21.029   4.041  50.918  1.00  0.00    -0.393 N 
HETATM    4  H1  UNL     1      20.597   3.121  51.194  1.00  0.00     0.156 HD
HETATM    5  H2  UNL     1      21.004   5.040  50.593  1.00  0.00     0.156 HD
ENDBRANCH   1   3
BRANCH   1   6
HETATM    6  C10 UNL     1      23.442   4.332  50.148  1.00  0.00     0.274 C 
HETATM    7  O3  UNL     1      22.985   4.458  48.981  1.00  0.00    -0.266 OA
HETATM    8  N2  UNL     1      24.750   4.635  50.655  1.00  0.00    -0.322 N 
HETATM    9  H13 UNL     1      24.925   4.455  51.664  1.00  0.00     0.169 HD
BRANCH   8  10
HETATM   10  C11 UNL     1      25.806   5.159  49.862  1.00  0.00     0.035 A 
HETATM   11  C12 UNL     1      25.840   6.518  49.614  1.00  0.00     0.029 A 
HETATM   12  C13 UNL     1      26.881   6.981  48.840  1.00  0.00     0.002 A 
HETATM   13  C14 UNL     1      27.856   6.183  48.319  1.00  0.00     0.000 A 
HETATM   14  C15 UNL     1      27.829   4.812  48.563  1.00  0.00     0.002 A 
HETATM   15  C16 UNL     1      26.792   4.342  49.336  1.00  0.00     0.029 A 
ENDBRANCH   8  10
ENDBRANCH   1   6
BRANCH   2  16
HETATM   16  O1  UNL     1      24.025   2.521  52.677  1.00  0.00    -0.332 OA
BRANCH  16  17
HETATM   17  C3  UNL     1      24.693   1.406  52.209  1.00  0.00     0.150 C 
HETATM   18  C4  UNL     1      25.861   1.124  52.767  1.00  0.00    -0.013 C 
HETATM   19  C5  UNL     1      26.641  -0.057  52.319  1.00  0.00     0.007 C 
HETATM   20  C9  UNL     1      26.367   2.036  53.861  1.00  0.00     0.208 C 
HETATM   21  C6  UNL     1      27.678  -0.652  52.896  1.00  0.00    -0.024 C 
HETATM   22  C7  UNL     1      28.257  -0.179  54.185  1.00  0.00     0.053 C 
HETATM   23  C8  UNL     1      28.573   1.261  54.183  1.00  0.00     0.171 C 
HETATM   24  O2  UNL     1      27.701   2.184  53.801  1.00  0.00    -0.386 OA
ENDBRANCH  16  17
ENDBRANCH   2  16
TORSDOF 5
ENDMDL
