MODEL 1
REMARK VINA RESULT:      -8.3      0.000      0.000
REMARK  4 active torsions:
REMARK  status: ('A' for Active; 'I' for Inactive)
REMARK    1  A    between atoms: N1_3  and  C3_4 
REMARK    2  A    between atoms: C3_4  and  O1_5 
REMARK    3  A    between atoms: O1_5  and  C4_6 
REMARK    4  A    between atoms: C20_24  and  C21_25 
ROOT
HETATM    1  C21 UNL     1      28.743   7.941  48.555  1.00  0.00     0.041 C 
HETATM    2  C22 UNL     1      27.972   8.871  49.366  1.00  0.00     0.097 C 
HETATM    3  N3  UNL     1      27.359   9.620  50.037  1.00  0.00    -0.192 NA
HETATM    4  C23 UNL     1      30.046   8.158  48.597  1.00  0.00    -0.011 C 
HETATM    5  C24 UNL     1      30.746   9.219  49.362  1.00  0.00     0.037 C 
ENDROOT
BRANCH   1   6
HETATM    6  C20 UNL     1      27.910   6.934  47.845  1.00  0.00     0.129 A 
HETATM    7  N2  UNL     1      26.533   7.243  48.175  1.00  0.00    -0.382 N 
HETATM    8  C19 UNL     1      25.802   6.261  48.898  1.00  0.00     0.028 A 
HETATM    9  H24 UNL     1      26.128   8.178  47.867  1.00  0.00     0.160 HD
HETATM   10  C12 UNL     1      24.432   6.214  49.452  1.00  0.00     0.020 C 
HETATM   11  C18 UNL     1      26.750   5.286  48.964  1.00  0.00     0.018 A 
HETATM   12  C11 UNL     1      23.395   5.615  48.576  1.00  0.00    -0.014 C 
HETATM   13  C13 UNL     1      24.013   7.592  49.846  1.00  0.00     0.027 C 
HETATM   14  C14 UNL     1      24.488   5.381  50.776  1.00  0.00     0.062 C 
HETATM   15  C10 UNL     1      22.486   4.608  48.803  1.00  0.00    -0.010 C 
HETATM   16  C9  UNL     1      22.666   3.268  49.467  1.00  0.00     0.037 C 
HETATM   17  C2  UNL     1      21.766   2.980  50.556  1.00  0.00     0.015 C 
HETATM   18  C8  UNL     1      22.407   2.254  48.345  1.00  0.00     0.026 C 
HETATM   19  C16 UNL     1      24.120   3.021  49.817  1.00  0.00     0.004 C 
HETATM   20  C1  UNL     1      21.956   3.046  51.852  1.00  0.00     0.039 C 
HETATM   21  N1  UNL     1      20.465   2.545  50.097  1.00  0.00    -0.362 N 
HETATM   22  C6  UNL     1      20.017   2.615  48.725  1.00  0.00     0.125 C 
HETATM   23  C7  UNL     1      21.082   2.466  47.701  1.00  0.00     0.022 C 
HETATM   24  C15 UNL     1      24.912   4.078  50.085  1.00  0.00    -0.008 C 
HETATM   25  C17 UNL     1      26.330   4.010  49.619  1.00  0.00     0.186 C 
HETATM   26  O2  UNL     1      26.847   2.906  49.873  1.00  0.00    -0.287 OA
HETATM   27  C25 UNL     1      28.089   5.534  48.406  1.00  0.00     0.075 A 
BRANCH  21  28
HETATM   28  C3  UNL     1      19.539   1.996  51.098  1.00  0.00     0.292 C 
BRANCH  28  29
HETATM   29  O1  UNL     1      19.543   0.627  50.981  1.00  0.00    -0.372 OA
BRANCH  29  30
HETATM   30  C4  UNL     1      19.234  -0.075  52.120  1.00  0.00     0.165 C 
HETATM   31  C5  UNL     1      20.227   0.045  53.231  1.00  0.00     0.033 C 
ENDBRANCH  29  30
ENDBRANCH  28  29
ENDBRANCH  21  28
ENDBRANCH   1   6
TORSDOF 4
ENDMDL
MODEL 2
REMARK VINA RESULT:      -8.2      3.789      7.005
REMARK  4 active torsions:
REMARK  status: ('A' for Active; 'I' for Inactive)
REMARK    1  A    between atoms: N1_3  and  C3_4 
REMARK    2  A    between atoms: C3_4  and  O1_5 
REMARK    3  A    between atoms: O1_5  and  C4_6 
REMARK    4  A    between atoms: C20_24  and  C21_25 
ROOT
HETATM    1  C21 UNL     1      26.486   0.101  53.197  1.00  0.00     0.041 C 
HETATM    2  C22 UNL     1      25.800  -0.496  54.333  1.00  0.00     0.097 C 
HETATM    3  N3  UNL     1      25.235  -0.991  55.240  1.00  0.00    -0.192 NA
HETATM    4  C23 UNL     1      27.056  -0.784  52.398  1.00  0.00    -0.011 C 
HETATM    5  C24 UNL     1      27.054  -2.259  52.561  1.00  0.00     0.037 C 
ENDROOT
BRANCH   1   6
HETATM    6  C20 UNL     1      26.406   1.586  53.164  1.00  0.00     0.129 A 
HETATM    7  N2  UNL     1      25.025   1.910  52.872  1.00  0.00    -0.382 N 
HETATM    8  C19 UNL     1      24.762   2.599  51.656  1.00  0.00     0.028 A 
HETATM    9  H24 UNL     1      24.271   1.625  53.568  1.00  0.00     0.160 HD
HETATM   10  C12 UNL     1      23.523   3.052  50.989  1.00  0.00     0.020 C 
HETATM   11  C18 UNL     1      26.039   2.755  51.212  1.00  0.00     0.018 A 
HETATM   12  C11 UNL     1      23.097   4.443  51.283  1.00  0.00    -0.014 C 
HETATM   13  C13 UNL     1      22.411   2.112  51.323  1.00  0.00     0.027 C 
HETATM   14  C14 UNL     1      23.747   2.930  49.445  1.00  0.00     0.062 C 
HETATM   15  C10 UNL     1      22.784   5.492  50.450  1.00  0.00    -0.010 C 
HETATM   16  C9  UNL     1      23.484   5.992  49.213  1.00  0.00     0.037 C 
HETATM   17  C2  UNL     1      22.667   6.101  48.030  1.00  0.00     0.015 C 
HETATM   18  C8  UNL     1      23.968   7.397  49.597  1.00  0.00     0.026 C 
HETATM   19  C16 UNL     1      24.778   5.241  48.975  1.00  0.00     0.004 C 
HETATM   20  C1  UNL     1      22.563   5.301  46.996  1.00  0.00     0.039 C 
HETATM   21  N1  UNL     1      21.860   7.302  48.024  1.00  0.00    -0.362 N 
HETATM   22  C6  UNL     1      21.691   8.178  49.160  1.00  0.00     0.125 C 
HETATM   23  C7  UNL     1      22.853   8.255  50.082  1.00  0.00     0.022 C 
HETATM   24  C15 UNL     1      24.878   3.967  49.402  1.00  0.00    -0.008 C 
HETATM   25  C17 UNL     1      26.199   3.523  49.940  1.00  0.00     0.186 C 
HETATM   26  O2  UNL     1      27.141   3.895  49.215  1.00  0.00    -0.287 OA
HETATM   27  C25 UNL     1      27.153   2.180  51.983  1.00  0.00     0.075 A 
BRANCH  21  28
HETATM   28  C3  UNL     1      21.168   7.650  46.775  1.00  0.00     0.292 C 
BRANCH  28  29
HETATM   29  O1  UNL     1      21.808   8.729  46.216  1.00  0.00    -0.372 OA
BRANCH  29  30
HETATM   30  C4  UNL     1      22.540   8.473  45.082  1.00  0.00     0.165 C 
HETATM   31  C5  UNL     1      24.011   8.313  45.297  1.00  0.00     0.033 C 
ENDBRANCH  29  30
ENDBRANCH  28  29
ENDBRANCH  21  28
ENDBRANCH   1   6
TORSDOF 4
ENDMDL
MODEL 3
REMARK VINA RESULT:      -7.9      3.868      6.297
REMARK  4 active torsions:
REMARK  status: ('A' for Active; 'I' for Inactive)
REMARK    1  A    between atoms: N1_3  and  C3_4 
REMARK    2  A    between atoms: C3_4  and  O1_5 
REMARK    3  A    between atoms: O1_5  and  C4_6 
REMARK    4  A    between atoms: C20_24  and  C21_25 
ROOT
HETATM    1  C21 UNL     1      26.958   0.207  53.007  1.00  0.00     0.041 C 
HETATM    2  C22 UNL     1      28.024  -0.165  53.925  1.00  0.00     0.097 C 
HETATM    3  N3  UNL     1      28.875  -0.480  54.675  1.00  0.00    -0.192 NA
HETATM    4  C23 UNL     1      26.485  -0.810  52.306  1.00  0.00    -0.011 C 
HETATM    5  C24 UNL     1      26.934  -2.223  52.376  1.00  0.00     0.037 C 
ENDROOT
BRANCH   1   6
HETATM    6  C20 UNL     1      26.614   1.653  53.044  1.00  0.00     0.129 A 
HETATM    7  N2  UNL     1      25.195   1.739  52.762  1.00  0.00    -0.382 N 
HETATM    8  C19 UNL     1      24.809   2.427  51.579  1.00  0.00     0.028 A 
HETATM    9  H24 UNL     1      24.508   1.291  53.441  1.00  0.00     0.160 HD
HETATM   10  C12 UNL     1      23.505   2.683  50.930  1.00  0.00     0.020 C 
HETATM   11  C18 UNL     1      26.035   2.830  51.149  1.00  0.00     0.018 A 
HETATM   12  C11 UNL     1      22.839   3.960  51.288  1.00  0.00    -0.014 C 
HETATM   13  C13 UNL     1      22.581   1.545  51.214  1.00  0.00     0.027 C 
HETATM   14  C14 UNL     1      23.740   2.676  49.383  1.00  0.00     0.062 C 
HETATM   15  C10 UNL     1      22.340   4.974  50.504  1.00  0.00    -0.010 C 
HETATM   16  C9  UNL     1      22.934   5.649  49.296  1.00  0.00     0.037 C 
HETATM   17  C2  UNL     1      22.105   5.667  48.115  1.00  0.00     0.015 C 
HETATM   18  C8  UNL     1      23.161   7.098  49.748  1.00  0.00     0.026 C 
HETATM   19  C16 UNL     1      24.340   5.154  49.027  1.00  0.00     0.004 C 
HETATM   20  C1  UNL     1      22.142   4.912  47.044  1.00  0.00     0.039 C 
HETATM   21  N1  UNL     1      21.097   6.703  48.164  1.00  0.00    -0.362 N 
HETATM   22  C6  UNL     1      20.779   7.480  49.339  1.00  0.00     0.125 C 
HETATM   23  C7  UNL     1      21.913   7.719  50.268  1.00  0.00     0.022 C 
HETATM   24  C15 UNL     1      24.668   3.899  49.393  1.00  0.00    -0.008 C 
HETATM   25  C17 UNL     1      26.050   3.674  49.915  1.00  0.00     0.186 C 
HETATM   26  O2  UNL     1      26.907   4.241  49.212  1.00  0.00    -0.287 OA
HETATM   27  C25 UNL     1      27.237   2.427  51.896  1.00  0.00     0.075 A 
BRANCH  21  28
HETATM   28  C3  UNL     1      20.348   6.981  46.929  1.00  0.00     0.292 C 
BRANCH  28  29
HETATM   29  O1  UNL     1      19.007   6.896  47.213  1.00  0.00    -0.372 OA
BRANCH  29  30
HETATM   30  C4  UNL     1      18.445   5.649  47.095  1.00  0.00     0.165 C 
HETATM   31  C5  UNL     1      17.853   5.095  48.351  1.00  0.00     0.033 C 
ENDBRANCH  29  30
ENDBRANCH  28  29
ENDBRANCH  21  28
ENDBRANCH   1   6
TORSDOF 4
ENDMDL
MODEL 4
REMARK VINA RESULT:      -7.9      2.794      8.197
REMARK  4 active torsions:
REMARK  status: ('A' for Active; 'I' for Inactive)
REMARK    1  A    between atoms: N1_3  and  C3_4 
REMARK    2  A    between atoms: C3_4  and  O1_5 
REMARK    3  A    between atoms: O1_5  and  C4_6 
REMARK    4  A    between atoms: C20_24  and  C21_25 
ROOT
HETATM    1  C21 UNL     1      23.862   1.375  52.915  1.00  0.00     0.041 C 
HETATM    2  C22 UNL     1      22.563   1.788  52.406  1.00  0.00     0.097 C 
HETATM    3  N3  UNL     1      21.512   2.108  51.982  1.00  0.00    -0.192 NA
HETATM    4  C23 UNL     1      23.901   0.110  53.299  1.00  0.00    -0.011 C 
HETATM    5  C24 UNL     1      22.784  -0.866  53.258  1.00  0.00     0.037 C 
ENDROOT
BRANCH   1   6
HETATM    6  C20 UNL     1      24.883   2.456  52.898  1.00  0.00     0.129 A 
HETATM    7  N2  UNL     1      24.173   3.678  52.577  1.00  0.00    -0.382 N 
HETATM    8  C19 UNL     1      24.522   4.332  51.364  1.00  0.00     0.028 A 
HETATM    9  H24 UNL     1      23.430   4.033  53.251  1.00  0.00     0.160 HD
HETATM   10  C12 UNL     1      24.012   5.537  50.674  1.00  0.00     0.020 C 
HETATM   11  C18 UNL     1      25.526   3.511  50.952  1.00  0.00     0.018 A 
HETATM   12  C11 UNL     1      24.719   6.806  50.974  1.00  0.00    -0.014 C 
HETATM   13  C13 UNL     1      22.558   5.696  50.969  1.00  0.00     0.027 C 
HETATM   14  C14 UNL     1      24.117   5.277  49.134  1.00  0.00     0.062 C 
HETATM   15  C10 UNL     1      25.284   7.749  50.147  1.00  0.00    -0.010 C 
HETATM   16  C9  UNL     1      26.160   7.576  48.934  1.00  0.00     0.037 C 
HETATM   17  C2  UNL     1      25.706   8.233  47.732  1.00  0.00     0.015 C 
HETATM   18  C8  UNL     1      27.501   8.197  49.346  1.00  0.00     0.026 C 
HETATM   19  C16 UNL     1      26.514   6.119  48.716  1.00  0.00     0.004 C 
HETATM   20  C1  UNL     1      25.081   7.747  46.686  1.00  0.00     0.039 C 
HETATM   21  N1  UNL     1      26.020   9.645  47.722  1.00  0.00    -0.362 N 
HETATM   22  C6  UNL     1      26.509  10.381  48.865  1.00  0.00     0.125 C 
HETATM   23  C7  UNL     1      27.342   9.601  49.815  1.00  0.00     0.022 C 
HETATM   24  C15 UNL     1      25.648   5.172  49.130  1.00  0.00    -0.008 C 
HETATM   25  C17 UNL     1      26.225   3.914  49.694  1.00  0.00     0.186 C 
HETATM   26  O2  UNL     1      27.161   3.481  48.996  1.00  0.00    -0.287 OA
HETATM   27  C25 UNL     1      25.858   2.314  51.742  1.00  0.00     0.075 A 
BRANCH  21  28
HETATM   28  C3  UNL     1      25.826  10.375  46.461  1.00  0.00     0.292 C 
BRANCH  28  29
HETATM   29  O1  UNL     1      27.051  10.823  46.032  1.00  0.00    -0.372 OA
BRANCH  29  30
HETATM   30  C4  UNL     1      27.755   9.966  45.222  1.00  0.00     0.165 C 
HETATM   31  C5  UNL     1      28.982   9.372  45.835  1.00  0.00     0.033 C 
ENDBRANCH  29  30
ENDBRANCH  28  29
ENDBRANCH  21  28
ENDBRANCH   1   6
TORSDOF 4
ENDMDL
MODEL 5
REMARK VINA RESULT:      -7.8      4.626      6.365
REMARK  4 active torsions:
REMARK  status: ('A' for Active; 'I' for Inactive)
REMARK    1  A    between atoms: N1_3  and  C3_4 
REMARK    2  A    between atoms: C3_4  and  O1_5 
REMARK    3  A    between atoms: O1_5  and  C4_6 
REMARK    4  A    between atoms: C20_24  and  C21_25 
ROOT
HETATM    1  C21 UNL     1      26.266   1.537  52.666  1.00  0.00     0.041 C 
HETATM    2  C22 UNL     1      27.380   2.091  53.420  1.00  0.00     0.097 C 
HETATM    3  N3  UNL     1      28.280   2.526  54.044  1.00  0.00    -0.192 NA
HETATM    4  C23 UNL     1      26.386   0.244  52.420  1.00  0.00    -0.011 C 
HETATM    5  C24 UNL     1      27.507  -0.638  52.828  1.00  0.00     0.037 C 
ENDROOT
BRANCH   1   6
HETATM    6  C20 UNL     1      25.218   2.536  52.326  1.00  0.00     0.129 A 
HETATM    7  N2  UNL     1      24.025   2.128  53.040  1.00  0.00    -0.382 N 
HETATM    8  C19 UNL     1      22.894   1.762  52.259  1.00  0.00     0.028 A 
HETATM    9  H24 UNL     1      24.039   2.119  54.104  1.00  0.00     0.160 HD
HETATM   10  C12 UNL     1      21.546   1.256  52.594  1.00  0.00     0.020 C 
HETATM   11  C18 UNL     1      23.395   2.011  51.018  1.00  0.00     0.018 A 
HETATM   12  C11 UNL     1      20.483   2.282  52.738  1.00  0.00    -0.014 C 
HETATM   13  C13 UNL     1      21.621   0.440  53.842  1.00  0.00     0.027 C 
HETATM   14  C14 UNL     1      21.117   0.271  51.456  1.00  0.00     0.062 C 
HETATM   15  C10 UNL     1      19.244   2.393  52.153  1.00  0.00    -0.010 C 
HETATM   16  C9  UNL     1      18.826   2.196  50.719  1.00  0.00     0.037 C 
HETATM   17  C2  UNL     1      17.750   1.260  50.501  1.00  0.00     0.015 C 
HETATM   18  C8  UNL     1      18.355   3.586  50.269  1.00  0.00     0.026 C 
HETATM   19  C16 UNL     1      20.025   1.940  49.829  1.00  0.00     0.004 C 
HETATM   20  C1  UNL     1      17.782   0.012  50.102  1.00  0.00     0.039 C 
HETATM   21  N1  UNL     1      16.452   1.839  50.771  1.00  0.00    -0.362 N 
HETATM   22  C6  UNL     1      16.243   3.116  51.412  1.00  0.00     0.125 C 
HETATM   23  C7  UNL     1      17.299   4.131  51.166  1.00  0.00     0.022 C 
HETATM   24  C15 UNL     1      21.111   1.344  50.359  1.00  0.00    -0.008 C 
HETATM   25  C17 UNL     1      22.450   1.803  49.879  1.00  0.00     0.186 C 
HETATM   26  O2  UNL     1      22.482   1.916  48.639  1.00  0.00    -0.287 OA
HETATM   27  C25 UNL     1      24.790   2.455  50.872  1.00  0.00     0.075 A 
BRANCH  21  28
HETATM   28  C3  UNL     1      15.267   1.070  50.361  1.00  0.00     0.292 C 
BRANCH  28  29
HETATM   29  O1  UNL     1      14.228   1.950  50.176  1.00  0.00    -0.372 OA
BRANCH  29  30
HETATM   30  C4  UNL     1      13.601   1.892  48.955  1.00  0.00     0.165 C 
HETATM   31  C5  UNL     1      14.509   1.706  47.782  1.00  0.00     0.033 C 
ENDBRANCH  29  30
ENDBRANCH  28  29
ENDBRANCH  21  28
ENDBRANCH   1   6
TORSDOF 4
ENDMDL
MODEL 6
REMARK VINA RESULT:      -7.8      3.397      9.321
REMARK  4 active torsions:
REMARK  status: ('A' for Active; 'I' for Inactive)
REMARK    1  A    between atoms: N1_3  and  C3_4 
REMARK    2  A    between atoms: C3_4  and  O1_5 
REMARK    3  A    between atoms: O1_5  and  C4_6 
REMARK    4  A    between atoms: C20_24  and  C21_25 
ROOT
HETATM    1  C21 UNL     1      22.764   6.999  50.828  1.00  0.00     0.041 C 
HETATM    2  C22 UNL     1      21.942   5.850  51.176  1.00  0.00     0.097 C 
HETATM    3  N3  UNL     1      21.264   4.932  51.467  1.00  0.00    -0.192 NA
HETATM    4  C23 UNL     1      22.094   7.962  50.219  1.00  0.00    -0.011 C 
HETATM    5  C24 UNL     1      20.650   7.963  49.878  1.00  0.00     0.037 C 
ENDROOT
BRANCH   1   6
HETATM    6  C20 UNL     1      24.189   6.858  51.228  1.00  0.00     0.129 A 
HETATM    7  N2  UNL     1      24.884   7.993  50.654  1.00  0.00    -0.382 N 
HETATM    8  C19 UNL     1      25.889   7.716  49.687  1.00  0.00     0.028 A 
HETATM    9  H24 UNL     1      24.620   8.973  50.973  1.00  0.00     0.160 HD
HETATM   10  C12 UNL     1      26.765   8.570  48.855  1.00  0.00     0.020 C 
HETATM   11  C18 UNL     1      25.850   6.356  49.712  1.00  0.00     0.018 A 
HETATM   12  C11 UNL     1      28.102   8.877  49.421  1.00  0.00    -0.014 C 
HETATM   13  C13 UNL     1      26.054   9.845  48.540  1.00  0.00     0.027 C 
HETATM   14  C14 UNL     1      26.974   7.839  47.487  1.00  0.00     0.062 C 
HETATM   15  C10 UNL     1      29.364   8.733  48.895  1.00  0.00    -0.010 C 
HETATM   16  C9  UNL     1      29.975   7.583  48.137  1.00  0.00     0.037 C 
HETATM   17  C2  UNL     1      30.554   7.912  46.857  1.00  0.00     0.015 C 
HETATM   18  C8  UNL     1      31.094   7.077  49.057  1.00  0.00     0.026 C 
HETATM   19  C16 UNL     1      29.027   6.403  48.075  1.00  0.00     0.004 C 
HETATM   20  C1  UNL     1      30.076   7.756  45.647  1.00  0.00     0.039 C 
HETATM   21  N1  UNL     1      31.873   8.493  46.981  1.00  0.00    -0.362 N 
HETATM   22  C6  UNL     1      32.462   8.928  48.227  1.00  0.00     0.125 C 
HETATM   23  C7  UNL     1      32.041   8.163  49.429  1.00  0.00     0.022 C 
HETATM   24  C15 UNL     1      27.700   6.634  48.101  1.00  0.00    -0.008 C 
HETATM   25  C17 UNL     1      26.846   5.658  48.843  1.00  0.00     0.186 C 
HETATM   26  O2  UNL     1      27.155   4.480  48.580  1.00  0.00    -0.287 OA
HETATM   27  C25 UNL     1      24.864   5.672  50.563  1.00  0.00     0.075 A 
BRANCH  21  28
HETATM   28  C3  UNL     1      32.664   8.651  45.752  1.00  0.00     0.292 C 
BRANCH  28  29
HETATM   29  O1  UNL     1      33.800   7.887  45.872  1.00  0.00    -0.372 OA
BRANCH  29  30
HETATM   30  C4  UNL     1      33.700   6.589  45.434  1.00  0.00     0.165 C 
HETATM   31  C5  UNL     1      33.663   5.554  46.512  1.00  0.00     0.033 C 
ENDBRANCH  29  30
ENDBRANCH  28  29
ENDBRANCH  21  28
ENDBRANCH   1   6
TORSDOF 4
ENDMDL
MODEL 7
REMARK VINA RESULT:      -7.5      3.479      8.058
REMARK  4 active torsions:
REMARK  status: ('A' for Active; 'I' for Inactive)
REMARK    1  A    between atoms: N1_3  and  C3_4 
REMARK    2  A    between atoms: C3_4  and  O1_5 
REMARK    3  A    between atoms: O1_5  and  C4_6 
REMARK    4  A    between atoms: C20_24  and  C21_25 
ROOT
HETATM    1  C21 UNL     1      24.446   0.911  53.170  1.00  0.00     0.041 C 
HETATM    2  C22 UNL     1      24.994  -0.203  53.929  1.00  0.00     0.097 C 
HETATM    3  N3  UNL     1      25.421  -1.105  54.554  1.00  0.00    -0.192 NA
HETATM    4  C23 UNL     1      23.229   0.687  52.706  1.00  0.00    -0.011 C 
HETATM    5  C24 UNL     1      22.422  -0.545  52.886  1.00  0.00     0.037 C 
ENDROOT
BRANCH   1   6
HETATM    6  C20 UNL     1      25.365   2.077  53.071  1.00  0.00     0.129 A 
HETATM    7  N2  UNL     1      24.525   3.234  52.837  1.00  0.00    -0.382 N 
HETATM    8  C19 UNL     1      24.699   3.923  51.605  1.00  0.00     0.028 A 
HETATM    9  H24 UNL     1      23.823   3.520  53.584  1.00  0.00     0.160 HD
HETATM   10  C12 UNL     1      24.024   5.084  50.984  1.00  0.00     0.020 C 
HETATM   11  C18 UNL     1      25.726   3.195  51.089  1.00  0.00     0.018 A 
HETATM   12  C11 UNL     1      24.645   6.408  51.234  1.00  0.00    -0.014 C 
HETATM   13  C13 UNL     1      22.596   5.115  51.418  1.00  0.00     0.027 C 
HETATM   14  C14 UNL     1      24.003   4.843  49.437  1.00  0.00     0.062 C 
HETATM   15  C10 UNL     1      25.045   7.400  50.369  1.00  0.00    -0.010 C 
HETATM   16  C9  UNL     1      25.812   7.311  49.076  1.00  0.00     0.037 C 
HETATM   17  C2  UNL     1      25.190   7.933  47.933  1.00  0.00     0.015 C 
HETATM   18  C8  UNL     1      27.129   8.043  49.367  1.00  0.00     0.026 C 
HETATM   19  C16 UNL     1      26.267   5.891  48.806  1.00  0.00     0.004 C 
HETATM   20  C1  UNL     1      24.512   7.402  46.945  1.00  0.00     0.039 C 
HETATM   21  N1  UNL     1      25.380   9.367  47.913  1.00  0.00    -0.362 N 
HETATM   22  C6  UNL     1      25.912  10.137  49.014  1.00  0.00     0.125 C 
HETATM   23  C7  UNL     1      26.896   9.425  49.869  1.00  0.00     0.022 C 
HETATM   24  C15 UNL     1      25.530   4.871  49.287  1.00  0.00    -0.008 C 
HETATM   25  C17 UNL     1      26.263   3.664  49.775  1.00  0.00     0.186 C 
HETATM   26  O2  UNL     1      27.162   3.318  48.985  1.00  0.00    -0.287 OA
HETATM   27  C25 UNL     1      26.232   2.027  51.826  1.00  0.00     0.075 A 
BRANCH  21  28
HETATM   28  C3  UNL     1      25.004  10.085  46.686  1.00  0.00     0.292 C 
BRANCH  28  29
HETATM   29  O1  UNL     1      23.917  10.876  46.969  1.00  0.00    -0.372 OA
BRANCH  29  30
HETATM   30  C4  UNL     1      24.078  12.222  46.745  1.00  0.00     0.165 C 
HETATM   31  C5  UNL     1      23.030  13.099  47.351  1.00  0.00     0.033 C 
ENDBRANCH  29  30
ENDBRANCH  28  29
ENDBRANCH  21  28
ENDBRANCH   1   6
TORSDOF 4
ENDMDL
MODEL 8
REMARK VINA RESULT:      -7.5      3.150      9.575
REMARK  4 active torsions:
REMARK  status: ('A' for Active; 'I' for Inactive)
REMARK    1  A    between atoms: N1_3  and  C3_4 
REMARK    2  A    between atoms: C3_4  and  O1_5 
REMARK    3  A    between atoms: O1_5  and  C4_6 
REMARK    4  A    between atoms: C20_24  and  C21_25 
ROOT
HETATM    1  C21 UNL     1      24.335   3.350  49.958  1.00  0.00     0.041 C 
HETATM    2  C22 UNL     1      23.789   2.337  50.848  1.00  0.00     0.097 C 
HETATM    3  N3  UNL     1      23.330   1.525  51.567  1.00  0.00    -0.192 NA
HETATM    4  C23 UNL     1      23.679   3.459  48.816  1.00  0.00    -0.011 C 
HETATM    5  C24 UNL     1      22.496   2.671  48.391  1.00  0.00     0.037 C 
ENDROOT
BRANCH   1   6
HETATM    6  C20 UNL     1      25.519   4.060  50.514  1.00  0.00     0.129 A 
HETATM    7  N2  UNL     1      25.314   5.467  50.236  1.00  0.00    -0.382 N 
HETATM    8  C19 UNL     1      26.253   6.102  49.377  1.00  0.00     0.028 A 
HETATM    9  H24 UNL     1      24.483   5.963  50.678  1.00  0.00     0.160 HD
HETATM   10  C12 UNL     1      26.365   7.469  48.824  1.00  0.00     0.020 C 
HETATM   11  C18 UNL     1      27.100   5.058  49.167  1.00  0.00     0.018 A 
HETATM   12  C11 UNL     1      27.193   8.421  49.605  1.00  0.00    -0.014 C 
HETATM   13  C13 UNL     1      24.997   8.039  48.638  1.00  0.00     0.027 C 
HETATM   14  C14 UNL     1      26.985   7.348  47.392  1.00  0.00     0.062 C 
HETATM   15  C10 UNL     1      28.247   9.223  49.233  1.00  0.00    -0.010 C 
HETATM   16  C9  UNL     1      29.449   8.913  48.380  1.00  0.00     0.037 C 
HETATM   17  C2  UNL     1      29.670   9.797  47.261  1.00  0.00     0.015 C 
HETATM   18  C8  UNL     1      30.638   9.044  49.341  1.00  0.00     0.026 C 
HETATM   19  C16 UNL     1      29.485   7.448  47.995  1.00  0.00     0.004 C 
HETATM   20  C1  UNL     1      29.395   9.638  45.989  1.00  0.00     0.039 C 
HETATM   21  N1  UNL     1      30.304  11.037  47.654  1.00  0.00    -0.362 N 
HETATM   22  C6  UNL     1      30.484  11.465  49.022  1.00  0.00     0.125 C 
HETATM   23  C7  UNL     1      30.666  10.373  50.012  1.00  0.00     0.022 C 
HETATM   24  C15 UNL     1      28.322   6.777  47.884  1.00  0.00    -0.008 C 
HETATM   25  C17 UNL     1      28.305   5.352  48.332  1.00  0.00     0.186 C 
HETATM   26  O2  UNL     1      29.298   4.725  47.917  1.00  0.00    -0.287 OA
HETATM   27  C25 UNL     1      26.794   3.743  49.753  1.00  0.00     0.075 A 
BRANCH  21  28
HETATM   28  C3  UNL     1      30.798  11.916  46.584  1.00  0.00     0.292 C 
BRANCH  28  29
HETATM   29  O1  UNL     1      30.109  13.103  46.654  1.00  0.00    -0.372 OA
BRANCH  29  30
HETATM   30  C4  UNL     1      29.665  13.611  45.457  1.00  0.00     0.165 C 
HETATM   31  C5  UNL     1      28.326  13.117  45.014  1.00  0.00     0.033 C 
ENDBRANCH  29  30
ENDBRANCH  28  29
ENDBRANCH  21  28
ENDBRANCH   1   6
TORSDOF 4
ENDMDL
MODEL 9
REMARK VINA RESULT:      -7.4      3.754      7.786
REMARK  4 active torsions:
REMARK  status: ('A' for Active; 'I' for Inactive)
REMARK    1  A    between atoms: N1_3  and  C3_4 
REMARK    2  A    between atoms: C3_4  and  O1_5 
REMARK    3  A    between atoms: O1_5  and  C4_6 
REMARK    4  A    between atoms: C20_24  and  C21_25 
ROOT
HETATM    1  C21 UNL     1      22.839  -0.562  53.408  1.00  0.00     0.041 C 
HETATM    2  C22 UNL     1      24.292  -0.493  53.428  1.00  0.00     0.097 C 
HETATM    3  N3  UNL     1      25.468  -0.429  53.461  1.00  0.00    -0.192 NA
HETATM    4  C23 UNL     1      22.319  -1.085  54.506  1.00  0.00    -0.011 C 
HETATM    5  C24 UNL     1      23.061  -1.583  55.690  1.00  0.00     0.037 C 
ENDROOT
BRANCH   1   6
HETATM    6  C20 UNL     1      22.232  -0.029  52.160  1.00  0.00     0.129 A 
HETATM    7  N2  UNL     1      23.252   0.786  51.530  1.00  0.00    -0.382 N 
HETATM    8  C19 UNL     1      22.978   2.174  51.388  1.00  0.00     0.028 A 
HETATM    9  H24 UNL     1      24.152   0.321  51.203  1.00  0.00     0.160 HD
HETATM   10  C12 UNL     1      23.756   3.316  50.861  1.00  0.00     0.020 C 
HETATM   11  C18 UNL     1      21.716   2.202  51.897  1.00  0.00     0.018 A 
HETATM   12  C11 UNL     1      23.546   3.641  49.429  1.00  0.00    -0.014 C 
HETATM   13  C13 UNL     1      25.209   3.080  51.109  1.00  0.00     0.027 C 
HETATM   14  C14 UNL     1      23.370   4.577  51.706  1.00  0.00     0.062 C 
HETATM   15  C10 UNL     1      23.215   4.822  48.805  1.00  0.00    -0.010 C 
HETATM   16  C9  UNL     1      22.178   5.853  49.166  1.00  0.00     0.037 C 
HETATM   17  C2  UNL     1      22.659   7.207  49.297  1.00  0.00     0.015 C 
HETATM   18  C8  UNL     1      21.178   5.806  48.003  1.00  0.00     0.026 C 
HETATM   19  C16 UNL     1      21.345   5.402  50.348  1.00  0.00     0.004 C 
HETATM   20  C1  UNL     1      22.948   7.903  50.370  1.00  0.00     0.039 C 
HETATM   21  N1  UNL     1      22.822   7.861  48.017  1.00  0.00    -0.362 N 
HETATM   22  C6  UNL     1      22.754   7.188  46.741  1.00  0.00     0.125 C 
HETATM   23  C7  UNL     1      21.845   6.015  46.689  1.00  0.00     0.022 C 
HETATM   24  C15 UNL     1      21.901   4.580  51.259  1.00  0.00    -0.008 C 
HETATM   25  C17 UNL     1      21.027   3.528  51.861  1.00  0.00     0.186 C 
HETATM   26  O2  UNL     1      19.918   3.985  52.195  1.00  0.00    -0.287 OA
HETATM   27  C25 UNL     1      21.121   0.969  52.435  1.00  0.00     0.075 A 
BRANCH  21  28
HETATM   28  C3  UNL     1      23.075   9.310  48.022  1.00  0.00     0.292 C 
BRANCH  28  29
HETATM   29  O1  UNL     1      21.945   9.944  47.567  1.00  0.00    -0.372 OA
BRANCH  29  30
HETATM   30  C4  UNL     1      21.253  10.680  48.497  1.00  0.00     0.165 C 
HETATM   31  C5  UNL     1      20.106   9.973  49.144  1.00  0.00     0.033 C 
ENDBRANCH  29  30
ENDBRANCH  28  29
ENDBRANCH  21  28
ENDBRANCH   1   6
TORSDOF 4
ENDMDL
