MODEL 1
REMARK VINA RESULT:      -8.2      0.000      0.000
REMARK  4 active torsions:
REMARK  status: ('A' for Active; 'I' for Inactive)
REMARK    1  A    between atoms: O1_2  and  C2_3 
REMARK    2  A    between atoms: C7_8  and  O2_9 
REMARK    3  A    between atoms: C12_17  and  N3_18 
REMARK    4  A    between atoms: N3_18  and  C13_19 
ROOT
HETATM    1  C2  UNL     1      25.191   0.926  53.660  1.00  0.00     0.112 C 
HETATM    2  C3  UNL     1      25.537   2.195  53.827  1.00  0.00     0.011 C 
HETATM    3  C4  UNL     1      24.790   3.083  53.201  1.00  0.00     0.018 C 
HETATM    4  C5  UNL     1      24.482   2.633  51.824  1.00  0.00     0.142 C 
HETATM    5  C6  UNL     1      23.599   1.414  51.868  1.00  0.00     0.007 C 
HETATM    6  C7  UNL     1      24.017   0.572  52.835  1.00  0.00     0.109 C 
HETATM    7  C9  UNL     1      22.434   0.786  51.249  1.00  0.00     0.217 C 
HETATM    8  O3  UNL     1      22.036   1.265  50.010  1.00  0.00    -0.328 OA
HETATM    9  C10 UNL     1      22.389   2.453  49.398  1.00  0.00     0.197 A 
HETATM   10  N1  UNL     1      21.786   2.474  48.180  1.00  0.00    -0.216 NA
HETATM   11  C11 UNL     1      22.012   3.569  47.414  1.00  0.00     0.238 A 
HETATM   12  N2  UNL     1      22.781   4.615  47.777  1.00  0.00    -0.222 NA
HETATM   13  C12 UNL     1      23.405   4.643  48.982  1.00  0.00     0.160 A 
HETATM   14  C19 UNL     1      23.188   3.540  49.781  1.00  0.00     0.131 A 
HETATM   15  N4  UNL     1      23.835   3.689  51.064  1.00  0.00    -0.366 N 
HETATM   16  C20 UNL     1      23.741   5.044  51.559  1.00  0.00     0.151 C 
ENDROOT
BRANCH  13  17
HETATM   17  N3  UNL     1      24.245   5.718  49.378  1.00  0.00    -0.339 N 
HETATM   18  H12 UNL     1      24.015   6.465  50.104  1.00  0.00     0.167 HD
BRANCH  17  19
HETATM   19  C13 UNL     1      25.598   5.903  48.893  1.00  0.00     0.035 A 
HETATM   20  C14 UNL     1      26.556   4.923  49.038  1.00  0.00     0.029 A 
HETATM   21  C15 UNL     1      27.862   5.023  48.609  1.00  0.00     0.004 A 
HETATM   22  C16 UNL     1      28.247   6.193  47.985  1.00  0.00     0.019 A 
HETATM   23  C17 UNL     1      27.322   7.206  47.817  1.00  0.00     0.013 A 
HETATM   24 BR1  UNL     1      27.807   8.822  46.967  1.00  0.00    -0.051 Br
HETATM   25  C18 UNL     1      26.035   7.028  48.274  1.00  0.00     0.048 A 
ENDBRANCH  17  19
ENDBRANCH  13  17
BRANCH   6  26
HETATM   26  O2  UNL     1      23.389  -0.623  53.095  1.00  0.00    -0.353 OA
HETATM   27  C8  UNL     1      22.668  -0.971  54.239  1.00  0.00     0.210 C 
ENDBRANCH   6  26
BRANCH   1  28
HETATM   28  O1  UNL     1      25.958  -0.069  54.277  1.00  0.00    -0.352 OA
HETATM   29  C1  UNL     1      27.297   0.125  54.652  1.00  0.00     0.210 C 
ENDBRANCH   1  28
TORSDOF 4
ENDMDL
MODEL 2
REMARK VINA RESULT:      -7.8      2.145      2.469
REMARK  4 active torsions:
REMARK  status: ('A' for Active; 'I' for Inactive)
REMARK    1  A    between atoms: O1_2  and  C2_3 
REMARK    2  A    between atoms: C7_8  and  O2_9 
REMARK    3  A    between atoms: C12_17  and  N3_18 
REMARK    4  A    between atoms: N3_18  and  C13_19 
ROOT
HETATM    1  C2  UNL     1      24.961   0.327  53.383  1.00  0.00     0.112 C 
HETATM    2  C3  UNL     1      25.651   1.437  53.606  1.00  0.00     0.011 C 
HETATM    3  C4  UNL     1      24.945   2.549  53.681  1.00  0.00     0.018 C 
HETATM    4  C5  UNL     1      23.911   2.586  52.621  1.00  0.00     0.142 C 
HETATM    5  C6  UNL     1      22.885   1.513  52.867  1.00  0.00     0.007 C 
HETATM    6  C7  UNL     1      23.489   0.372  53.258  1.00  0.00     0.109 C 
HETATM    7  C9  UNL     1      21.450   1.234  52.847  1.00  0.00     0.217 C 
HETATM    8  O3  UNL     1      20.640   2.116  52.147  1.00  0.00    -0.328 OA
HETATM    9  C10 UNL     1      20.941   3.392  51.711  1.00  0.00     0.197 A 
HETATM   10  N1  UNL     1      19.854   3.855  51.039  1.00  0.00    -0.216 NA
HETATM   11  C11 UNL     1      19.951   5.105  50.524  1.00  0.00     0.238 A 
HETATM   12  N2  UNL     1      21.034   5.900  50.635  1.00  0.00    -0.222 NA
HETATM   13  C12 UNL     1      22.145   5.484  51.295  1.00  0.00     0.160 A 
HETATM   14  C19 UNL     1      22.070   4.216  51.830  1.00  0.00     0.131 A 
HETATM   15  N4  UNL     1      23.267   3.888  52.568  1.00  0.00    -0.366 N 
HETATM   16  C20 UNL     1      23.767   5.022  53.313  1.00  0.00     0.151 C 
ENDROOT
BRANCH  13  17
HETATM   17  N3  UNL     1      23.311   6.289  51.401  1.00  0.00    -0.339 N 
HETATM   18  H12 UNL     1      23.691   6.737  52.292  1.00  0.00     0.167 HD
BRANCH  17  19
HETATM   19  C13 UNL     1      24.212   6.551  50.296  1.00  0.00     0.035 A 
HETATM   20  C14 UNL     1      24.013   7.613  49.440  1.00  0.00     0.029 A 
HETATM   21  C15 UNL     1      24.818   7.925  48.367  1.00  0.00     0.004 A 
HETATM   22  C16 UNL     1      25.912   7.117  48.125  1.00  0.00     0.019 A 
HETATM   23  C17 UNL     1      26.153   6.039  48.956  1.00  0.00     0.013 A 
HETATM   24 BR1  UNL     1      27.638   4.910  48.661  1.00  0.00    -0.051 Br
HETATM   25  C18 UNL     1      25.299   5.793  50.009  1.00  0.00     0.048 A 
ENDBRANCH  17  19
ENDBRANCH  13  17
BRANCH   6  26
HETATM   26  O2  UNL     1      22.786  -0.772  53.550  1.00  0.00    -0.353 OA
HETATM   27  C8  UNL     1      22.510  -1.298  54.814  1.00  0.00     0.210 C 
ENDBRANCH   6  26
BRANCH   1  28
HETATM   28  O1  UNL     1      25.652  -0.884  53.269  1.00  0.00    -0.352 OA
HETATM   29  C1  UNL     1      26.737  -1.062  52.395  1.00  0.00     0.210 C 
ENDBRANCH   1  28
TORSDOF 4
ENDMDL
MODEL 3
REMARK VINA RESULT:      -7.7      3.685      5.912
REMARK  4 active torsions:
REMARK  status: ('A' for Active; 'I' for Inactive)
REMARK    1  A    between atoms: O1_2  and  C2_3 
REMARK    2  A    between atoms: C7_8  and  O2_9 
REMARK    3  A    between atoms: C12_17  and  N3_18 
REMARK    4  A    between atoms: N3_18  and  C13_19 
ROOT
HETATM    1  C2  UNL     1      17.313  -0.239  52.457  1.00  0.00     0.112 C 
HETATM    2  C3  UNL     1      17.570   0.389  51.318  1.00  0.00     0.011 C 
HETATM    3  C4  UNL     1      18.808   0.292  50.873  1.00  0.00     0.018 C 
HETATM    4  C5  UNL     1      19.778   0.458  51.980  1.00  0.00     0.142 C 
HETATM    5  C6  UNL     1      19.667  -0.699  52.937  1.00  0.00     0.007 C 
HETATM    6  C7  UNL     1      18.370  -1.010  53.142  1.00  0.00     0.109 C 
HETATM    7  C9  UNL     1      20.448  -1.635  53.742  1.00  0.00     0.217 C 
HETATM    8  O3  UNL     1      21.773  -1.310  53.989  1.00  0.00    -0.328 OA
HETATM    9  C10 UNL     1      22.562  -0.379  53.339  1.00  0.00     0.197 A 
HETATM   10  N1  UNL     1      23.776  -0.383  53.951  1.00  0.00    -0.216 NA
HETATM   11  C11 UNL     1      24.702   0.474  53.456  1.00  0.00     0.238 A 
HETATM   12  N2  UNL     1      24.498   1.311  52.418  1.00  0.00    -0.222 NA
HETATM   13  C12 UNL     1      23.304   1.353  51.775  1.00  0.00     0.160 A 
HETATM   14  C19 UNL     1      22.345   0.488  52.259  1.00  0.00     0.131 A 
HETATM   15  N4  UNL     1      21.136   0.555  51.472  1.00  0.00    -0.366 N 
HETATM   16  C20 UNL     1      21.419   0.698  50.062  1.00  0.00     0.151 C 
ENDROOT
BRANCH  13  17
HETATM   17  N3  UNL     1      23.052   2.246  50.698  1.00  0.00    -0.339 N 
HETATM   18  H12 UNL     1      22.204   2.233  50.052  1.00  0.00     0.167 HD
BRANCH  17  19
HETATM   19  C13 UNL     1      23.899   3.377  50.376  1.00  0.00     0.035 A 
HETATM   20  C14 UNL     1      25.107   3.212  49.734  1.00  0.00     0.029 A 
HETATM   21  C15 UNL     1      25.969   4.233  49.397  1.00  0.00     0.004 A 
HETATM   22  C16 UNL     1      25.600   5.523  49.725  1.00  0.00     0.019 A 
HETATM   23  C17 UNL     1      24.398   5.739  50.371  1.00  0.00     0.013 A 
HETATM   24 BR1  UNL     1      23.855   7.487  50.837  1.00  0.00    -0.051 Br
HETATM   25  C18 UNL     1      23.591   4.663  50.674  1.00  0.00     0.048 A 
ENDBRANCH  17  19
ENDBRANCH  13  17
BRANCH   6  26
HETATM   26  O2  UNL     1      17.980  -2.031  53.975  1.00  0.00    -0.353 OA
HETATM   27  C8  UNL     1      17.383  -3.240  53.612  1.00  0.00     0.210 C 
ENDBRANCH   6  26
BRANCH   1  28
HETATM   28  O1  UNL     1      16.024  -0.155  52.996  1.00  0.00    -0.352 OA
HETATM   29  C1  UNL     1      15.081   0.793  52.569  1.00  0.00     0.210 C 
ENDBRANCH   1  28
TORSDOF 4
ENDMDL
MODEL 4
REMARK VINA RESULT:      -7.7      3.951      7.607
REMARK  4 active torsions:
REMARK  status: ('A' for Active; 'I' for Inactive)
REMARK    1  A    between atoms: O1_2  and  C2_3 
REMARK    2  A    between atoms: C7_8  and  O2_9 
REMARK    3  A    between atoms: C12_17  and  N3_18 
REMARK    4  A    between atoms: N3_18  and  C13_19 
ROOT
HETATM    1  C2  UNL     1      27.828   7.295  47.870  1.00  0.00     0.112 C 
HETATM    2  C3  UNL     1      28.370   6.127  48.188  1.00  0.00     0.011 C 
HETATM    3  C4  UNL     1      27.527   5.176  48.538  1.00  0.00     0.018 C 
HETATM    4  C5  UNL     1      26.478   5.710  49.437  1.00  0.00     0.142 C 
HETATM    5  C6  UNL     1      25.605   6.682  48.686  1.00  0.00     0.007 C 
HETATM    6  C7  UNL     1      26.361   7.471  47.896  1.00  0.00     0.109 C 
HETATM    7  C9  UNL     1      24.220   7.099  48.483  1.00  0.00     0.217 C 
HETATM    8  O3  UNL     1      23.289   6.698  49.429  1.00  0.00    -0.328 OA
HETATM    9  C10 UNL     1      23.412   5.706  50.384  1.00  0.00     0.197 A 
HETATM   10  N1  UNL     1      22.261   5.699  51.108  1.00  0.00    -0.216 NA
HETATM   11  C11 UNL     1      22.183   4.787  52.107  1.00  0.00     0.238 A 
HETATM   12  N2  UNL     1      23.155   3.906  52.421  1.00  0.00    -0.222 NA
HETATM   13  C12 UNL     1      24.323   3.874  51.730  1.00  0.00     0.160 A 
HETATM   14  C19 UNL     1      24.424   4.791  50.706  1.00  0.00     0.131 A 
HETATM   15  N4  UNL     1      25.668   4.637  49.987  1.00  0.00    -0.366 N 
HETATM   16  C20 UNL     1      26.028   3.246  49.829  1.00  0.00     0.151 C 
ENDROOT
BRANCH  13  17
HETATM   17  N3  UNL     1      25.375   2.977  52.058  1.00  0.00    -0.339 N 
HETATM   18  H12 UNL     1      26.410   3.108  51.834  1.00  0.00     0.167 HD
BRANCH  17  19
HETATM   19  C13 UNL     1      25.189   1.769  52.836  1.00  0.00     0.035 A 
HETATM   20  C14 UNL     1      26.171   1.297  53.681  1.00  0.00     0.029 A 
HETATM   21  C15 UNL     1      26.073   0.157  54.448  1.00  0.00     0.004 A 
HETATM   22  C16 UNL     1      24.904  -0.574  54.371  1.00  0.00     0.019 A 
HETATM   23  C17 UNL     1      23.890  -0.142  53.538  1.00  0.00     0.013 A 
HETATM   24 BR1  UNL     1      22.274  -1.110  53.404  1.00  0.00    -0.051 Br
HETATM   25  C18 UNL     1      24.066   1.010  52.801  1.00  0.00     0.048 A 
ENDBRANCH  17  19
ENDBRANCH  13  17
BRANCH   6  26
HETATM   26  O2  UNL     1      25.820   8.450  47.098  1.00  0.00    -0.353 OA
HETATM   27  C8  UNL     1      25.855   8.523  45.704  1.00  0.00     0.210 C 
ENDBRANCH   6  26
BRANCH   1  28
HETATM   28  O1  UNL     1      28.670   8.354  47.513  1.00  0.00    -0.352 OA
HETATM   29  C1  UNL     1      28.927   9.442  48.362  1.00  0.00     0.210 C 
ENDBRANCH   1  28
TORSDOF 4
ENDMDL
MODEL 5
REMARK VINA RESULT:      -7.6      2.439      4.384
REMARK  4 active torsions:
REMARK  status: ('A' for Active; 'I' for Inactive)
REMARK    1  A    between atoms: O1_2  and  C2_3 
REMARK    2  A    between atoms: C7_8  and  O2_9 
REMARK    3  A    between atoms: C12_17  and  N3_18 
REMARK    4  A    between atoms: N3_18  and  C13_19 
ROOT
HETATM    1  C2  UNL     1      19.598   2.791  51.585  1.00  0.00     0.112 C 
HETATM    2  C3  UNL     1      19.874   3.416  50.448  1.00  0.00     0.011 C 
HETATM    3  C4  UNL     1      21.031   3.115  49.892  1.00  0.00     0.018 C 
HETATM    4  C5  UNL     1      22.102   3.046  50.912  1.00  0.00     0.142 C 
HETATM    5  C6  UNL     1      21.856   1.883  51.837  1.00  0.00     0.007 C 
HETATM    6  C7  UNL     1      20.545   1.806  52.147  1.00  0.00     0.109 C 
HETATM    7  C9  UNL     1      22.512   0.782  52.537  1.00  0.00     0.217 C 
HETATM    8  O3  UNL     1      23.890   0.846  52.674  1.00  0.00    -0.328 OA
HETATM    9  C10 UNL     1      24.783   1.647  51.987  1.00  0.00     0.197 A 
HETATM   10  N1  UNL     1      26.021   1.391  52.487  1.00  0.00    -0.216 NA
HETATM   11  C11 UNL     1      27.047   2.087  51.939  1.00  0.00     0.238 A 
HETATM   12  N2  UNL     1      26.919   2.996  50.952  1.00  0.00    -0.222 NA
HETATM   13  C12 UNL     1      25.704   3.288  50.420  1.00  0.00     0.160 A 
HETATM   14  C19 UNL     1      24.644   2.591  50.960  1.00  0.00     0.131 A 
HETATM   15  N4  UNL     1      23.408   2.917  50.288  1.00  0.00    -0.366 N 
HETATM   16  C20 UNL     1      23.596   3.074  48.863  1.00  0.00     0.151 C 
ENDROOT
BRANCH  13  17
HETATM   17  N3  UNL     1      25.536   4.264  49.400  1.00  0.00    -0.339 N 
HETATM   18  H12 UNL     1      24.649   4.440  48.835  1.00  0.00     0.167 HD
BRANCH  17  19
HETATM   19  C13 UNL     1      26.552   5.232  49.038  1.00  0.00     0.035 A 
HETATM   20  C14 UNL     1      27.790   4.839  48.577  1.00  0.00     0.029 A 
HETATM   21  C15 UNL     1      28.808   5.695  48.217  1.00  0.00     0.004 A 
HETATM   22  C16 UNL     1      28.576   7.052  48.322  1.00  0.00     0.019 A 
HETATM   23  C17 UNL     1      27.350   7.496  48.780  1.00  0.00     0.013 A 
HETATM   24 BR1  UNL     1      26.991   9.343  48.937  1.00  0.00    -0.051 Br
HETATM   25  C18 UNL     1      26.383   6.575  49.120  1.00  0.00     0.048 A 
ENDBRANCH  17  19
ENDBRANCH  13  17
BRANCH   6  26
HETATM   26  O2  UNL     1      20.041   0.834  52.977  1.00  0.00    -0.353 OA
HETATM   27  C8  UNL     1      19.160  -0.196  52.640  1.00  0.00     0.210 C 
ENDBRANCH   6  26
BRANCH   1  28
HETATM   28  O1  UNL     1      18.397   3.083  52.240  1.00  0.00    -0.352 OA
HETATM   29  C1  UNL     1      17.174   3.220  51.564  1.00  0.00     0.210 C 
ENDBRANCH   1  28
TORSDOF 4
ENDMDL
MODEL 6
REMARK VINA RESULT:      -7.4      3.676      7.305
REMARK  4 active torsions:
REMARK  status: ('A' for Active; 'I' for Inactive)
REMARK    1  A    between atoms: O1_2  and  C2_3 
REMARK    2  A    between atoms: C7_8  and  O2_9 
REMARK    3  A    between atoms: C12_17  and  N3_18 
REMARK    4  A    between atoms: N3_18  and  C13_19 
ROOT
HETATM    1  C2  UNL     1      26.657   7.668  47.895  1.00  0.00     0.112 C 
HETATM    2  C3  UNL     1      27.603   6.798  48.221  1.00  0.00     0.011 C 
HETATM    3  C4  UNL     1      27.184   5.606  48.599  1.00  0.00     0.018 C 
HETATM    4  C5  UNL     1      26.021   5.723  49.508  1.00  0.00     0.142 C 
HETATM    5  C6  UNL     1      24.839   6.279  48.758  1.00  0.00     0.007 C 
HETATM    6  C7  UNL     1      25.233   7.279  47.944  1.00  0.00     0.109 C 
HETATM    7  C9  UNL     1      23.396   6.139  48.573  1.00  0.00     0.217 C 
HETATM    8  O3  UNL     1      22.695   5.435  49.540  1.00  0.00    -0.328 OA
HETATM    9  C10 UNL     1      23.193   4.582  50.507  1.00  0.00     0.197 A 
HETATM   10  N1  UNL     1      22.137   4.156  51.250  1.00  0.00    -0.216 NA
HETATM   11  C11 UNL     1      22.420   3.302  52.264  1.00  0.00     0.238 A 
HETATM   12  N2  UNL     1      23.656   2.859  52.574  1.00  0.00    -0.222 NA
HETATM   13  C12 UNL     1      24.742   3.256  51.863  1.00  0.00     0.160 A 
HETATM   14  C19 UNL     1      24.479   4.123  50.825  1.00  0.00     0.131 A 
HETATM   15  N4  UNL     1      25.682   4.435  50.087  1.00  0.00    -0.366 N 
HETATM   16  C20 UNL     1      26.538   3.279  49.943  1.00  0.00     0.151 C 
ENDROOT
BRANCH  13  17
HETATM   17  N3  UNL     1      26.058   2.829  52.187  1.00  0.00    -0.339 N 
HETATM   18  H12 UNL     1      26.918   3.452  52.284  1.00  0.00     0.167 HD
BRANCH  17  19
HETATM   19  C13 UNL     1      26.402   1.460  52.518  1.00  0.00     0.035 A 
HETATM   20  C14 UNL     1      25.457   0.456  52.504  1.00  0.00     0.029 A 
HETATM   21  C15 UNL     1      25.703  -0.865  52.810  1.00  0.00     0.004 A 
HETATM   22  C16 UNL     1      26.992  -1.217  53.157  1.00  0.00     0.019 A 
HETATM   23  C17 UNL     1      27.974  -0.246  53.187  1.00  0.00     0.013 A 
HETATM   24 BR1  UNL     1      29.750  -0.685  53.655  1.00  0.00    -0.051 Br
HETATM   25  C18 UNL     1      27.648   1.055  52.867  1.00  0.00     0.048 A 
ENDBRANCH  17  19
ENDBRANCH  13  17
BRANCH   6  26
HETATM   26  O2  UNL     1      24.354   7.965  47.141  1.00  0.00    -0.353 OA
HETATM   27  C8  UNL     1      23.874   9.264  47.325  1.00  0.00     0.210 C 
ENDBRANCH   6  26
BRANCH   1  28
HETATM   28  O1  UNL     1      27.033   8.959  47.508  1.00  0.00    -0.352 OA
HETATM   29  C1  UNL     1      28.363   9.313  47.226  1.00  0.00     0.210 C 
ENDBRANCH   1  28
TORSDOF 4
ENDMDL
MODEL 7
REMARK VINA RESULT:      -7.3      3.067      3.528
REMARK  4 active torsions:
REMARK  status: ('A' for Active; 'I' for Inactive)
REMARK    1  A    between atoms: O1_2  and  C2_3 
REMARK    2  A    between atoms: C7_8  and  O2_9 
REMARK    3  A    between atoms: C12_17  and  N3_18 
REMARK    4  A    between atoms: N3_18  and  C13_19 
ROOT
HETATM    1  C2  UNL     1      25.619   0.435  52.752  1.00  0.00     0.112 C 
HETATM    2  C3  UNL     1      26.082   1.651  52.496  1.00  0.00     0.011 C 
HETATM    3  C4  UNL     1      25.230   2.641  52.675  1.00  0.00     0.018 C 
HETATM    4  C5  UNL     1      23.897   2.290  52.134  1.00  0.00     0.142 C 
HETATM    5  C6  UNL     1      23.294   1.171  52.943  1.00  0.00     0.007 C 
HETATM    6  C7  UNL     1      24.234   0.247  53.229  1.00  0.00     0.109 C 
HETATM    7  C9  UNL     1      22.052   0.700  53.551  1.00  0.00     0.217 C 
HETATM    8  O3  UNL     1      20.870   1.275  53.111  1.00  0.00    -0.328 OA
HETATM    9  C10 UNL     1      20.702   2.445  52.394  1.00  0.00     0.197 A 
HETATM   10  N1  UNL     1      19.371   2.586  52.158  1.00  0.00    -0.216 NA
HETATM   11  C11 UNL     1      18.995   3.684  51.458  1.00  0.00     0.238 A 
HETATM   12  N2  UNL     1      19.841   4.625  50.993  1.00  0.00    -0.222 NA
HETATM   13  C12 UNL     1      21.180   4.530  51.201  1.00  0.00     0.160 A 
HETATM   14  C19 UNL     1      21.586   3.422  51.913  1.00  0.00     0.131 A 
HETATM   15  N4  UNL     1      23.011   3.442  52.143  1.00  0.00    -0.366 N 
HETATM   16  C20 UNL     1      23.490   4.776  52.431  1.00  0.00     0.151 C 
ENDROOT
BRANCH  13  17
HETATM   17  N3  UNL     1      22.096   5.491  50.696  1.00  0.00    -0.339 N 
HETATM   18  H12 UNL     1      22.786   6.068  51.269  1.00  0.00     0.167 HD
BRANCH  17  19
HETATM   19  C13 UNL     1      22.279   5.765  49.284  1.00  0.00     0.035 A 
HETATM   20  C14 UNL     1      22.738   6.986  48.840  1.00  0.00     0.029 A 
HETATM   21  C15 UNL     1      22.933   7.325  47.519  1.00  0.00     0.004 A 
HETATM   22  C16 UNL     1      22.651   6.371  46.561  1.00  0.00     0.019 A 
HETATM   23  C17 UNL     1      22.187   5.131  46.956  1.00  0.00     0.013 A 
HETATM   24 BR1  UNL     1      21.790   3.799  45.678  1.00  0.00    -0.051 Br
HETATM   25  C18 UNL     1      22.018   4.870  48.299  1.00  0.00     0.048 A 
ENDBRANCH  17  19
ENDBRANCH  13  17
BRANCH   6  26
HETATM   26  O2  UNL     1      23.956  -0.885  53.958  1.00  0.00    -0.353 OA
HETATM   27  C8  UNL     1      24.404  -1.196  55.244  1.00  0.00     0.210 C 
ENDBRANCH   6  26
BRANCH   1  28
HETATM   28  O1  UNL     1      26.465  -0.663  52.559  1.00  0.00    -0.352 OA
HETATM   29  C1  UNL     1      27.726  -0.769  53.169  1.00  0.00     0.210 C 
ENDBRANCH   1  28
TORSDOF 4
ENDMDL
MODEL 8
REMARK VINA RESULT:      -7.3      2.680      4.261
REMARK  4 active torsions:
REMARK  status: ('A' for Active; 'I' for Inactive)
REMARK    1  A    between atoms: O1_2  and  C2_3 
REMARK    2  A    between atoms: C7_8  and  O2_9 
REMARK    3  A    between atoms: C12_17  and  N3_18 
REMARK    4  A    between atoms: N3_18  and  C13_19 
ROOT
HETATM    1  C2  UNL     1      24.133  -0.281  53.609  1.00  0.00     0.112 C 
HETATM    2  C3  UNL     1      22.942  -0.013  53.093  1.00  0.00     0.011 C 
HETATM    3  C4  UNL     1      22.944   0.586  51.919  1.00  0.00     0.018 C 
HETATM    4  C5  UNL     1      23.963   1.660  51.880  1.00  0.00     0.142 C 
HETATM    5  C6  UNL     1      25.343   1.060  51.960  1.00  0.00     0.007 C 
HETATM    6  C7  UNL     1      25.365   0.065  52.870  1.00  0.00     0.109 C 
HETATM    7  C9  UNL     1      26.694   1.148  51.411  1.00  0.00     0.217 C 
HETATM    8  O3  UNL     1      27.029   2.307  50.727  1.00  0.00    -0.328 OA
HETATM    9  C10 UNL     1      26.184   3.277  50.221  1.00  0.00     0.197 A 
HETATM   10  N1  UNL     1      26.965   4.242  49.667  1.00  0.00    -0.216 NA
HETATM   11  C11 UNL     1      26.318   5.295  49.111  1.00  0.00     0.238 A 
HETATM   12  N2  UNL     1      24.978   5.441  49.074  1.00  0.00    -0.222 NA
HETATM   13  C12 UNL     1      24.155   4.507  49.614  1.00  0.00     0.160 A 
HETATM   14  C19 UNL     1      24.790   3.424  50.184  1.00  0.00     0.131 A 
HETATM   15  N4  UNL     1      23.836   2.455  50.670  1.00  0.00    -0.366 N 
HETATM   16  C20 UNL     1      22.707   2.318  49.777  1.00  0.00     0.151 C 
ENDROOT
BRANCH  13  17
HETATM   17  N3  UNL     1      22.741   4.650  49.617  1.00  0.00    -0.339 N 
HETATM   18  H12 UNL     1      22.029   3.882  49.814  1.00  0.00     0.167 HD
BRANCH  17  19
HETATM   19  C13 UNL     1      22.060   5.915  49.425  1.00  0.00     0.035 A 
HETATM   20  C14 UNL     1      21.789   6.755  50.483  1.00  0.00     0.029 A 
HETATM   21  C15 UNL     1      21.144   7.969  50.384  1.00  0.00     0.004 A 
HETATM   22  C16 UNL     1      20.736   8.382  49.131  1.00  0.00     0.019 A 
HETATM   23  C17 UNL     1      20.985   7.573  48.038  1.00  0.00     0.013 A 
HETATM   24 BR1  UNL     1      20.445   8.100  46.307  1.00  0.00    -0.051 Br
HETATM   25  C18 UNL     1      21.636   6.372  48.220  1.00  0.00     0.048 A 
ENDBRANCH  17  19
ENDBRANCH  13  17
BRANCH   6  26
HETATM   26  O2  UNL     1      26.501  -0.657  53.146  1.00  0.00    -0.353 OA
HETATM   27  C8  UNL     1      26.821  -1.940  52.697  1.00  0.00     0.210 C 
ENDBRANCH   6  26
BRANCH   1  28
HETATM   28  O1  UNL     1      24.201  -0.895  54.865  1.00  0.00    -0.352 OA
HETATM   29  C1  UNL     1      23.079  -1.442  55.507  1.00  0.00     0.210 C 
ENDBRANCH   1  28
TORSDOF 4
ENDMDL
MODEL 9
REMARK VINA RESULT:      -7.3      5.217      7.789
REMARK  4 active torsions:
REMARK  status: ('A' for Active; 'I' for Inactive)
REMARK    1  A    between atoms: O1_2  and  C2_3 
REMARK    2  A    between atoms: C7_8  and  O2_9 
REMARK    3  A    between atoms: C12_17  and  N3_18 
REMARK    4  A    between atoms: N3_18  and  C13_19 
ROOT
HETATM    1  C2  UNL     1      24.847   0.854  52.521  1.00  0.00     0.112 C 
HETATM    2  C3  UNL     1      24.186   1.867  51.978  1.00  0.00     0.011 C 
HETATM    3  C4  UNL     1      22.929   2.001  52.353  1.00  0.00     0.018 C 
HETATM    4  C5  UNL     1      22.251   0.686  52.394  1.00  0.00     0.142 C 
HETATM    5  C6  UNL     1      22.844  -0.163  53.488  1.00  0.00     0.007 C 
HETATM    6  C7  UNL     1      24.186  -0.032  53.500  1.00  0.00     0.109 C 
HETATM    7  C9  UNL     1      22.509  -1.091  54.565  1.00  0.00     0.217 C 
HETATM    8  O3  UNL     1      21.248  -1.667  54.540  1.00  0.00    -0.328 OA
HETATM    9  C10 UNL     1      20.140  -1.271  53.814  1.00  0.00     0.197 A 
HETATM   10  N1  UNL     1      19.145  -2.159  54.080  1.00  0.00    -0.216 NA
HETATM   11  C11 UNL     1      17.962  -1.943  53.456  1.00  0.00     0.238 A 
HETATM   12  N2  UNL     1      17.716  -0.925  52.606  1.00  0.00    -0.222 NA
HETATM   13  C12 UNL     1      18.676  -0.013  52.307  1.00  0.00     0.160 A 
HETATM   14  C19 UNL     1      19.889  -0.211  52.932  1.00  0.00     0.131 A 
HETATM   15  N4  UNL     1      20.822   0.843  52.607  1.00  0.00    -0.366 N 
HETATM   16  C20 UNL     1      20.174   2.134  52.546  1.00  0.00     0.151 C 
ENDROOT
BRANCH  13  17
HETATM   17  N3  UNL     1      18.453   1.051  51.392  1.00  0.00    -0.339 N 
HETATM   18  H12 UNL     1      19.197   1.690  50.973  1.00  0.00     0.167 HD
BRANCH  17  19
HETATM   19  C13 UNL     1      17.157   1.369  50.827  1.00  0.00     0.035 A 
HETATM   20  C14 UNL     1      16.765   0.877  49.601  1.00  0.00     0.029 A 
HETATM   21  C15 UNL     1      15.554   1.135  48.995  1.00  0.00     0.004 A 
HETATM   22  C16 UNL     1      14.660   1.948  49.663  1.00  0.00     0.019 A 
HETATM   23  C17 UNL     1      15.007   2.467  50.896  1.00  0.00     0.013 A 
HETATM   24 BR1  UNL     1      13.814   3.582  51.843  1.00  0.00    -0.051 Br
HETATM   25  C18 UNL     1      16.239   2.161  51.435  1.00  0.00     0.048 A 
ENDBRANCH  17  19
ENDBRANCH  13  17
BRANCH   6  26
HETATM   26  O2  UNL     1      24.983  -0.699  54.400  1.00  0.00    -0.353 OA
HETATM   27  C8  UNL     1      25.966  -0.153  55.229  1.00  0.00     0.210 C 
ENDBRANCH   6  26
BRANCH   1  28
HETATM   28  O1  UNL     1      26.179   0.641  52.147  1.00  0.00    -0.352 OA
HETATM   29  C1  UNL     1      27.149   1.656  52.173  1.00  0.00     0.210 C 
ENDBRANCH   1  28
TORSDOF 4
ENDMDL
