MODEL 1
REMARK VINA RESULT:      -9.4      0.000      0.000
REMARK  1 active torsions:
REMARK  status: ('A' for Active; 'I' for Inactive)
REMARK    1  A    between atoms: C2_2  and  C3_3 
ROOT
HETATM    1  C3  UNL     1      26.521   5.107  48.964  1.00  0.00     0.008 C 
HETATM    2  C4  UNL     1      26.029   4.267  49.858  1.00  0.00    -0.033 C 
HETATM    3  C5  UNL     1      26.824   3.236  50.526  1.00  0.00     0.028 C 
HETATM    4  C6  UNL     1      26.674   2.307  51.397  1.00  0.00     0.113 C 
HETATM    5  N1  UNL     1      25.924   1.532  52.316  1.00  0.00    -0.284 N 
HETATM    6  C7  UNL     1      25.758   2.154  53.653  1.00  0.00     0.297 C 
HETATM    7  N2  UNL     1      24.434   2.721  53.478  1.00  0.00    -0.264 NA
HETATM    8  C8  UNL     1      23.770   2.752  52.389  1.00  0.00     0.204 C 
HETATM    9  N3  UNL     1      22.497   3.195  51.835  1.00  0.00    -0.333 N 
HETATM   10  C9  UNL     1      23.009   4.541  51.973  1.00  0.00     0.296 C 
HETATM   11  O1  UNL     1      24.332   4.607  51.524  1.00  0.00    -0.367 OA
HETATM   12  C10 UNL     1      24.558   4.342  50.210  1.00  0.00     0.208 C 
HETATM   13  C11 UNL     1      21.709   1.991  51.572  1.00  0.00     0.185 C 
HETATM   14  C12 UNL     1      22.251   1.338  50.327  1.00  0.00     0.056 C 
HETATM   15  N4  UNL     1      21.849   1.077  52.725  1.00  0.00    -0.355 N 
HETATM   16  C13 UNL     1      20.667   0.904  53.557  1.00  0.00     0.153 A 
HETATM   17  C14 UNL     1      21.118  -0.072  54.553  1.00  0.00     0.002 A 
HETATM   18  C15 UNL     1      22.375  -0.406  54.361  1.00  0.00    -0.036 A 
HETATM   19  C16 UNL     1      22.822  -1.409  55.396  1.00  0.00     0.050 C 
HETATM   20  C17 UNL     1      22.928   0.311  53.176  1.00  0.00     0.054 A 
HETATM   21  C18 UNL     1      24.165  -0.013  53.015  1.00  0.00     0.137 C 
HETATM   22  N5  UNL     1      25.244   0.274  52.177  1.00  0.00    -0.306 N 
HETATM   23  H25 UNL     1      25.775  -0.158  51.395  1.00  0.00     0.186 HD
ENDROOT
BRANCH   1  24
HETATM   24  C2  UNL     1      27.902   5.131  48.519  1.00  0.00    -0.010 C 
HETATM   25  C1  UNL     1      28.471   6.260  48.133  1.00  0.00     0.011 C 
ENDBRANCH   1  24
TORSDOF 1
ENDMDL
MODEL 2
REMARK VINA RESULT:      -7.7      1.140      1.263
REMARK  1 active torsions:
REMARK  status: ('A' for Active; 'I' for Inactive)
REMARK    1  A    between atoms: C2_2  and  C3_3 
ROOT
HETATM    1  C3  UNL     1      24.749   5.874  48.709  1.00  0.00     0.008 C 
HETATM    2  C4  UNL     1      24.524   4.933  49.609  1.00  0.00    -0.033 C 
HETATM    3  C5  UNL     1      25.584   4.176  50.274  1.00  0.00     0.028 C 
HETATM    4  C6  UNL     1      25.712   3.247  51.149  1.00  0.00     0.113 C 
HETATM    5  N1  UNL     1      25.220   2.294  52.075  1.00  0.00    -0.284 N 
HETATM    6  C7  UNL     1      24.892   2.850  53.412  1.00  0.00     0.297 C 
HETATM    7  N2  UNL     1      23.460   3.013  53.245  1.00  0.00    -0.264 NA
HETATM    8  C8  UNL     1      22.808   2.848  52.161  1.00  0.00     0.204 C 
HETATM    9  N3  UNL     1      21.457   2.906  51.616  1.00  0.00    -0.333 N 
HETATM   10  C9  UNL     1      21.565   4.343  51.746  1.00  0.00     0.296 C 
HETATM   11  O1  UNL     1      22.811   4.782  51.287  1.00  0.00    -0.367 OA
HETATM   12  C10 UNL     1      23.095   4.586  49.972  1.00  0.00     0.208 C 
HETATM   13  C11 UNL     1      21.045   1.526  51.362  1.00  0.00     0.185 C 
HETATM   14  C12 UNL     1      21.743   1.049  50.115  1.00  0.00     0.056 C 
HETATM   15  N4  UNL     1      21.448   0.696  52.516  1.00  0.00    -0.355 N 
HETATM   16  C13 UNL     1      20.370   0.196  53.357  1.00  0.00     0.153 A 
HETATM   17  C14 UNL     1      21.088  -0.606  54.353  1.00  0.00     0.002 A 
HETATM   18  C15 UNL     1      22.386  -0.568  54.153  1.00  0.00    -0.036 A 
HETATM   19  C16 UNL     1      23.109  -1.396  55.187  1.00  0.00     0.050 C 
HETATM   20  C17 UNL     1      22.704   0.272  52.962  1.00  0.00     0.054 A 
HETATM   21  C18 UNL     1      23.981   0.314  52.793  1.00  0.00     0.137 C 
HETATM   22  N5  UNL     1      24.928   0.894  51.945  1.00  0.00    -0.306 N 
HETATM   23  H25 UNL     1      25.555   0.628  51.161  1.00  0.00     0.186 HD
ENDROOT
BRANCH   1  24
HETATM   24  C2  UNL     1      26.063   6.290  48.253  1.00  0.00    -0.010 C 
HETATM   25  C1  UNL     1      26.252   7.490  47.732  1.00  0.00     0.011 C 
ENDBRANCH   1  24
TORSDOF 1
ENDMDL
MODEL 3
REMARK VINA RESULT:      -7.6      2.492      5.837
REMARK  1 active torsions:
REMARK  status: ('A' for Active; 'I' for Inactive)
REMARK    1  A    between atoms: C2_2  and  C3_3 
ROOT
HETATM    1  C3  UNL     1      25.794  -0.355  53.126  1.00  0.00     0.008 C 
HETATM    2  C4  UNL     1      25.492   0.750  52.465  1.00  0.00    -0.033 C 
HETATM    3  C5  UNL     1      26.431   1.454  51.592  1.00  0.00     0.028 C 
HETATM    4  C6  UNL     1      26.466   2.493  50.841  1.00  0.00     0.113 C 
HETATM    5  N1  UNL     1      25.909   3.650  50.242  1.00  0.00    -0.284 N 
HETATM    6  C7  UNL     1      25.104   3.385  49.023  1.00  0.00     0.297 C 
HETATM    7  N2  UNL     1      23.781   3.397  49.619  1.00  0.00    -0.264 NA
HETATM    8  C8  UNL     1      23.521   3.463  50.866  1.00  0.00     0.204 C 
HETATM    9  N3  UNL     1      22.405   3.501  51.804  1.00  0.00    -0.333 N 
HETATM   10  C9  UNL     1      22.199   2.108  51.474  1.00  0.00     0.296 C 
HETATM   11  O1  UNL     1      23.420   1.426  51.454  1.00  0.00    -0.367 OA
HETATM   12  C10 UNL     1      24.111   1.351  52.622  1.00  0.00     0.208 C 
HETATM   13  C11 UNL     1      22.351   4.861  52.340  1.00  0.00     0.185 C 
HETATM   14  C12 UNL     1      23.462   5.013  53.346  1.00  0.00     0.056 C 
HETATM   15  N4  UNL     1      22.543   5.813  51.226  1.00  0.00    -0.355 N 
HETATM   16  C13 UNL     1      21.378   6.596  50.841  1.00  0.00     0.153 A 
HETATM   17  C14 UNL     1      21.906   7.449  49.772  1.00  0.00     0.002 A 
HETATM   18  C15 UNL     1      23.175   7.195  49.540  1.00  0.00    -0.036 A 
HETATM   19  C16 UNL     1      23.701   8.080  48.436  1.00  0.00     0.050 C 
HETATM   20  C17 UNL     1      23.667   6.127  50.457  1.00  0.00     0.054 A 
HETATM   21  C18 UNL     1      24.907   5.878  50.202  1.00  0.00     0.137 C 
HETATM   22  N5  UNL     1      25.935   5.034  50.626  1.00  0.00    -0.306 N 
HETATM   23  H25 UNL     1      26.804   5.071  51.194  1.00  0.00     0.186 HD
ENDROOT
BRANCH   1  24
HETATM   24  C2  UNL     1      27.082  -1.022  53.084  1.00  0.00    -0.010 C 
HETATM   25  C1  UNL     1      27.213  -2.208  52.514  1.00  0.00     0.011 C 
ENDBRANCH   1  24
TORSDOF 1
ENDMDL
MODEL 4
REMARK VINA RESULT:      -7.4      2.467      6.892
REMARK  1 active torsions:
REMARK  status: ('A' for Active; 'I' for Inactive)
REMARK    1  A    between atoms: C2_2  and  C3_3 
ROOT
HETATM    1  C3  UNL     1      22.975   0.009  53.486  1.00  0.00     0.008 C 
HETATM    2  C4  UNL     1      22.837   0.911  52.530  1.00  0.00    -0.033 C 
HETATM    3  C5  UNL     1      21.958   0.739  51.373  1.00  0.00     0.028 C 
HETATM    4  C6  UNL     1      21.604   1.378  50.319  1.00  0.00     0.113 C 
HETATM    5  N1  UNL     1      21.624   2.484  49.434  1.00  0.00    -0.284 N 
HETATM    6  C7  UNL     1      20.739   3.607  49.833  1.00  0.00     0.297 C 
HETATM    7  N2  UNL     1      21.726   4.457  50.473  1.00  0.00    -0.264 NA
HETATM    8  C8  UNL     1      22.941   4.148  50.709  1.00  0.00     0.204 C 
HETATM    9  N3  UNL     1      24.167   4.683  51.288  1.00  0.00    -0.333 N 
HETATM   10  C9  UNL     1      23.514   4.546  52.571  1.00  0.00     0.296 C 
HETATM   11  O1  UNL     1      22.864   3.310  52.657  1.00  0.00    -0.367 OA
HETATM   12  C10 UNL     1      23.638   2.194  52.604  1.00  0.00     0.208 C 
HETATM   13  C11 UNL     1      25.083   4.935  50.176  1.00  0.00     0.185 C 
HETATM   14  C12 UNL     1      25.640   3.613  49.716  1.00  0.00     0.056 C 
HETATM   15  N4  UNL     1      24.326   5.574  49.080  1.00  0.00    -0.355 N 
HETATM   16  C13 UNL     1      24.629   6.974  48.819  1.00  0.00     0.153 A 
HETATM   17  C14 UNL     1      23.765   7.279  47.674  1.00  0.00     0.002 A 
HETATM   18  C15 UNL     1      23.044   6.236  47.327  1.00  0.00    -0.036 A 
HETATM   19  C16 UNL     1      22.160   6.569  46.150  1.00  0.00     0.050 C 
HETATM   20  C17 UNL     1      23.355   5.073  48.208  1.00  0.00     0.054 A 
HETATM   21  C18 UNL     1      22.626   4.067  47.865  1.00  0.00     0.137 C 
HETATM   22  N5  UNL     1      22.385   2.745  48.244  1.00  0.00    -0.306 N 
HETATM   23  H25 UNL     1      22.601   1.779  47.926  1.00  0.00     0.186 HD
ENDROOT
BRANCH   1  24
HETATM   24  C2  UNL     1      22.288  -1.268  53.528  1.00  0.00    -0.010 C 
HETATM   25  C1  UNL     1      21.570  -1.618  54.582  1.00  0.00     0.011 C 
ENDBRANCH   1  24
TORSDOF 1
ENDMDL
MODEL 5
REMARK VINA RESULT:      -7.4      2.496      6.699
REMARK  1 active torsions:
REMARK  status: ('A' for Active; 'I' for Inactive)
REMARK    1  A    between atoms: C2_2  and  C3_3 
ROOT
HETATM    1  C3  UNL     1      21.793  -0.103  52.740  1.00  0.00     0.008 C 
HETATM    2  C4  UNL     1      22.369   0.924  52.142  1.00  0.00    -0.033 C 
HETATM    3  C5  UNL     1      23.579   1.579  52.640  1.00  0.00     0.028 C 
HETATM    4  C6  UNL     1      24.360   2.546  52.325  1.00  0.00     0.113 C 
HETATM    5  N1  UNL     1      24.788   3.623  51.509  1.00  0.00    -0.284 N 
HETATM    6  C7  UNL     1      25.593   3.219  50.329  1.00  0.00     0.297 C 
HETATM    7  N2  UNL     1      24.547   3.238  49.324  1.00  0.00    -0.264 NA
HETATM    8  C8  UNL     1      23.302   3.408  49.541  1.00  0.00     0.204 C 
HETATM    9  N3  UNL     1      22.020   3.492  48.852  1.00  0.00    -0.333 N 
HETATM   10  C9  UNL     1      22.147   2.068  48.633  1.00  0.00     0.296 C 
HETATM   11  O1  UNL     1      22.575   1.431  49.803  1.00  0.00    -0.367 OA
HETATM   12  C10 UNL     1      21.749   1.488  50.880  1.00  0.00     0.208 C 
HETATM   13  C11 UNL     1      21.601   4.892  48.910  1.00  0.00     0.185 C 
HETATM   14  C12 UNL     1      21.099   5.176  50.302  1.00  0.00     0.056 C 
HETATM   15  N4  UNL     1      22.771   5.745  48.611  1.00  0.00    -0.355 N 
HETATM   16  C13 UNL     1      22.746   6.447  47.336  1.00  0.00     0.153 A 
HETATM   17  C14 UNL     1      23.993   7.217  47.372  1.00  0.00     0.002 A 
HETATM   18  C15 UNL     1      24.665   6.989  48.478  1.00  0.00    -0.036 A 
HETATM   19  C16 UNL     1      25.946   7.787  48.497  1.00  0.00     0.050 C 
HETATM   20  C17 UNL     1      23.926   6.027  49.346  1.00  0.00     0.054 A 
HETATM   21  C18 UNL     1      24.608   5.800  50.416  1.00  0.00     0.137 C 
HETATM   22  N5  UNL     1      24.542   5.036  51.583  1.00  0.00    -0.306 N 
HETATM   23  H25 UNL     1      24.345   5.155  52.596  1.00  0.00     0.186 HD
ENDROOT
BRANCH   1  24
HETATM   24  C2  UNL     1      22.267  -0.726  53.962  1.00  0.00    -0.010 C 
HETATM   25  C1  UNL     1      21.542  -1.642  54.582  1.00  0.00     0.011 C 
ENDBRANCH   1  24
TORSDOF 1
ENDMDL
MODEL 6
REMARK VINA RESULT:      -7.3      2.722      4.966
REMARK  1 active torsions:
REMARK  status: ('A' for Active; 'I' for Inactive)
REMARK    1  A    between atoms: C2_2  and  C3_3 
ROOT
HETATM    1  C3  UNL     1      26.500   1.465  53.817  1.00  0.00     0.008 C 
HETATM    2  C4  UNL     1      25.298   1.519  53.269  1.00  0.00    -0.033 C 
HETATM    3  C5  UNL     1      24.333   0.420  53.320  1.00  0.00     0.028 C 
HETATM    4  C6  UNL     1      23.145   0.152  52.919  1.00  0.00     0.113 C 
HETATM    5  N1  UNL     1      21.926   0.449  52.261  1.00  0.00    -0.284 N 
HETATM    6  C7  UNL     1      20.960   1.225  53.079  1.00  0.00     0.297 C 
HETATM    7  N2  UNL     1      21.239   2.552  52.563  1.00  0.00    -0.264 NA
HETATM    8  C8  UNL     1      22.180   2.860  51.758  1.00  0.00     0.204 C 
HETATM    9  N3  UNL     1      22.755   3.997  51.049  1.00  0.00    -0.333 N 
HETATM   10  C9  UNL     1      23.235   4.443  52.339  1.00  0.00     0.296 C 
HETATM   11  O1  UNL     1      23.784   3.371  53.051  1.00  0.00    -0.367 OA
HETATM   12  C10 UNL     1      24.882   2.769  52.523  1.00  0.00     0.208 C 
HETATM   13  C11 UNL     1      22.423   3.823  49.635  1.00  0.00     0.185 C 
HETATM   14  C12 UNL     1      23.325   2.758  49.068  1.00  0.00     0.056 C 
HETATM   15  N4  UNL     1      21.012   3.398  49.533  1.00  0.00    -0.355 N 
HETATM   16  C13 UNL     1      20.084   4.374  48.979  1.00  0.00     0.153 A 
HETATM   17  C14 UNL     1      18.815   3.640  48.972  1.00  0.00     0.002 A 
HETATM   18  C15 UNL     1      18.959   2.430  49.467  1.00  0.00    -0.036 A 
HETATM   19  C16 UNL     1      17.644   1.690  49.454  1.00  0.00     0.050 C 
HETATM   20  C17 UNL     1      20.378   2.196  49.862  1.00  0.00     0.054 A 
HETATM   21  C18 UNL     1      20.496   1.014  50.362  1.00  0.00     0.137 C 
HETATM   22  N5  UNL     1      21.468   0.185  50.926  1.00  0.00    -0.306 N 
HETATM   23  H25 UNL     1      22.042  -0.644  50.675  1.00  0.00     0.186 HD
ENDROOT
BRANCH   1  24
HETATM   24  C2  UNL     1      27.033   0.325  54.539  1.00  0.00    -0.010 C 
HETATM   25  C1  UNL     1      28.295  -0.040  54.395  1.00  0.00     0.011 C 
ENDBRANCH   1  24
TORSDOF 1
ENDMDL
MODEL 7
REMARK VINA RESULT:      -7.3      2.789      6.149
REMARK  1 active torsions:
REMARK  status: ('A' for Active; 'I' for Inactive)
REMARK    1  A    between atoms: C2_2  and  C3_3 
ROOT
HETATM    1  C3  UNL     1      23.661  -0.289  53.196  1.00  0.00     0.008 C 
HETATM    2  C4  UNL     1      23.365   0.882  52.660  1.00  0.00    -0.033 C 
HETATM    3  C5  UNL     1      24.053   2.127  53.002  1.00  0.00     0.028 C 
HETATM    4  C6  UNL     1      24.023   3.371  52.689  1.00  0.00     0.113 C 
HETATM    5  N1  UNL     1      23.528   4.494  51.980  1.00  0.00    -0.284 N 
HETATM    6  C7  UNL     1      24.090   4.656  50.616  1.00  0.00     0.297 C 
HETATM    7  N2  UNL     1      23.013   4.051  49.854  1.00  0.00    -0.264 NA
HETATM    8  C8  UNL     1      22.002   3.443  50.338  1.00  0.00     0.204 C 
HETATM    9  N3  UNL     1      20.784   2.747  49.940  1.00  0.00    -0.333 N 
HETATM   10  C9  UNL     1      21.650   1.682  49.483  1.00  0.00     0.296 C 
HETATM   11  O1  UNL     1      22.644   1.422  50.432  1.00  0.00    -0.367 OA
HETATM   12  C10 UNL     1      22.241   0.969  51.649  1.00  0.00     0.208 C 
HETATM   13  C11 UNL     1      19.666   3.620  50.294  1.00  0.00     0.185 C 
HETATM   14  C12 UNL     1      19.462   3.542  51.785  1.00  0.00     0.056 C 
HETATM   15  N4  UNL     1      20.007   5.003  49.903  1.00  0.00    -0.355 N 
HETATM   16  C13 UNL     1      19.262   5.558  48.782  1.00  0.00     0.153 A 
HETATM   17  C14 UNL     1      19.795   6.920  48.686  1.00  0.00     0.002 A 
HETATM   18  C15 UNL     1      20.727   7.134  49.588  1.00  0.00    -0.036 A 
HETATM   19  C16 UNL     1      21.267   8.538  49.474  1.00  0.00     0.050 C 
HETATM   20  C17 UNL     1      20.927   5.917  50.427  1.00  0.00     0.054 A 
HETATM   21  C18 UNL     1      21.857   6.137  51.292  1.00  0.00     0.137 C 
HETATM   22  N5  UNL     1      22.540   5.480  52.317  1.00  0.00    -0.306 N 
HETATM   23  H25 UNL     1      22.573   5.453  53.355  1.00  0.00     0.186 HD
ENDROOT
BRANCH   1  24
HETATM   24  C2  UNL     1      24.696  -0.511  54.188  1.00  0.00    -0.010 C 
HETATM   25  C1  UNL     1      25.922  -0.848  53.827  1.00  0.00     0.011 C 
ENDBRANCH   1  24
TORSDOF 1
ENDMDL
MODEL 8
REMARK VINA RESULT:      -7.2      9.587     11.687
REMARK  1 active torsions:
REMARK  status: ('A' for Active; 'I' for Inactive)
REMARK    1  A    between atoms: C2_2  and  C3_3 
ROOT
HETATM    1  C3  UNL     1      32.771   3.010  46.329  1.00  0.00     0.008 C 
HETATM    2  C4  UNL     1      32.516   4.244  46.728  1.00  0.00    -0.033 C 
HETATM    3  C5  UNL     1      32.162   4.595  48.104  1.00  0.00     0.028 C 
HETATM    4  C6  UNL     1      31.869   5.633  48.796  1.00  0.00     0.113 C 
HETATM    5  N1  UNL     1      31.645   7.021  48.978  1.00  0.00    -0.284 N 
HETATM    6  C7  UNL     1      32.878   7.822  49.180  1.00  0.00     0.297 C 
HETATM    7  N2  UNL     1      33.054   8.312  47.825  1.00  0.00    -0.264 NA
HETATM    8  C8  UNL     1      32.375   7.956  46.805  1.00  0.00     0.204 C 
HETATM    9  N3  UNL     1      32.247   8.198  45.374  1.00  0.00    -0.333 N 
HETATM   10  C9  UNL     1      33.495   7.481  45.233  1.00  0.00     0.296 C 
HETATM   11  O1  UNL     1      33.485   6.326  46.022  1.00  0.00    -0.367 OA
HETATM   12  C10 UNL     1      32.565   5.372  45.719  1.00  0.00     0.208 C 
HETATM   13  C11 UNL     1      31.004   8.946  45.182  1.00  0.00     0.185 C 
HETATM   14  C12 UNL     1      29.851   7.987  45.327  1.00  0.00     0.056 C 
HETATM   15  N4  UNL     1      30.923   9.995  46.220  1.00  0.00    -0.355 N 
HETATM   16  C13 UNL     1      31.080  11.368  45.761  1.00  0.00     0.153 A 
HETATM   17  C14 UNL     1      30.905  12.139  46.996  1.00  0.00     0.002 A 
HETATM   18  C15 UNL     1      30.703  11.350  48.028  1.00  0.00    -0.036 A 
HETATM   19  C16 UNL     1      30.528  12.160  49.289  1.00  0.00     0.050 C 
HETATM   20  C17 UNL     1      30.704   9.922  47.599  1.00  0.00     0.054 A 
HETATM   21  C18 UNL     1      30.525   9.163  48.626  1.00  0.00     0.137 C 
HETATM   22  N5  UNL     1      30.444   7.808  48.951  1.00  0.00    -0.306 N 
HETATM   23  H25 UNL     1      29.729   7.096  49.199  1.00  0.00     0.186 HD
ENDROOT
BRANCH   1  24
HETATM   24  C2  UNL     1      32.738   1.837  47.183  1.00  0.00    -0.010 C 
HETATM   25  C1  UNL     1      32.143   0.726  46.785  1.00  0.00     0.011 C 
ENDBRANCH   1  24
TORSDOF 1
ENDMDL
MODEL 9
REMARK VINA RESULT:      -7.1      2.544      3.548
REMARK  1 active torsions:
REMARK  status: ('A' for Active; 'I' for Inactive)
REMARK    1  A    between atoms: C2_2  and  C3_3 
ROOT
HETATM    1  C3  UNL     1      27.912   5.998  48.322  1.00  0.00     0.008 C 
HETATM    2  C4  UNL     1      26.837   5.449  48.860  1.00  0.00    -0.033 C 
HETATM    3  C5  UNL     1      26.804   4.089  49.399  1.00  0.00     0.028 C 
HETATM    4  C6  UNL     1      25.977   3.287  49.962  1.00  0.00     0.113 C 
HETATM    5  N1  UNL     1      24.712   2.925  50.487  1.00  0.00    -0.284 N 
HETATM    6  C7  UNL     1      24.466   3.391  51.875  1.00  0.00     0.297 C 
HETATM    7  N2  UNL     1      23.692   4.583  51.580  1.00  0.00    -0.264 NA
HETATM    8  C8  UNL     1      23.486   5.076  50.422  1.00  0.00     0.204 C 
HETATM    9  N3  UNL     1      22.810   6.178  49.749  1.00  0.00    -0.333 N 
HETATM   10  C9  UNL     1      23.831   7.031  50.318  1.00  0.00     0.296 C 
HETATM   11  O1  UNL     1      25.092   6.443  50.178  1.00  0.00    -0.367 OA
HETATM   12  C10 UNL     1      25.549   6.244  48.914  1.00  0.00     0.208 C 
HETATM   13  C11 UNL     1      21.667   5.603  49.041  1.00  0.00     0.185 C 
HETATM   14  C12 UNL     1      22.181   4.903  47.810  1.00  0.00     0.056 C 
HETATM   15  N4  UNL     1      21.002   4.631  49.934  1.00  0.00    -0.355 N 
HETATM   16  C13 UNL     1      19.691   5.014  50.439  1.00  0.00     0.153 A 
HETATM   17  C14 UNL     1      19.301   3.844  51.231  1.00  0.00     0.002 A 
HETATM   18  C15 UNL     1      20.240   2.924  51.222  1.00  0.00    -0.036 A 
HETATM   19  C16 UNL     1      19.823   1.729  52.044  1.00  0.00     0.050 C 
HETATM   20  C17 UNL     1      21.395   3.370  50.391  1.00  0.00     0.054 A 
HETATM   21  C18 UNL     1      22.314   2.465  50.409  1.00  0.00     0.137 C 
HETATM   22  N5  UNL     1      23.595   2.234  49.905  1.00  0.00    -0.306 N 
HETATM   23  H25 UNL     1      24.066   1.676  49.166  1.00  0.00     0.186 HD
ENDROOT
BRANCH   1  24
HETATM   24  C2  UNL     1      29.200   5.343  48.187  1.00  0.00    -0.010 C 
HETATM   25  C1  UNL     1      30.323   6.040  48.227  1.00  0.00     0.011 C 
ENDBRANCH   1  24
TORSDOF 1
ENDMDL
