MODEL 1
REMARK VINA RESULT:      -6.7      0.000      0.000
REMARK  5 active torsions:
REMARK  status: ('A' for Active; 'I' for Inactive)
REMARK    1  A    between atoms: C2_2  and  O1_3 
REMARK    2  A    between atoms: O1_3  and  C3_4 
REMARK       I    between atoms: N2_12  and  C10_13 
REMARK    3  A    between atoms: C10_13  and  C11_15 
REMARK    4  A    between atoms: C12_16  and  C13_17 
REMARK    5  A    between atoms: C13_17  and  N3_18 
ROOT
HETATM    1  C3  UNL     1      25.039  -0.211  53.137  1.00  0.00     0.091 C 
HETATM    2  C4  UNL     1      26.296  -0.618  53.193  1.00  0.00     0.068 A 
HETATM    3  N1  UNL     1      26.764  -1.955  53.229  1.00  0.00    -0.383 N 
HETATM    4  C5  UNL     1      28.210  -1.881  53.287  1.00  0.00     0.154 A 
HETATM    5  C6  UNL     1      28.544  -0.447  53.281  1.00  0.00    -0.056 A 
HETATM    6  C7  UNL     1      29.941   0.059  53.331  1.00  0.00     0.046 C 
HETATM    7  C8  UNL     1      27.441   0.282  53.227  1.00  0.00    -0.008 A 
HETATM    8  C9  UNL     1      27.169   1.734  53.197  1.00  0.00     0.167 C 
HETATM    9  N2  UNL     1      25.953   1.943  52.436  1.00  0.00    -0.338 N 
HETATM   10  C10 UNL     1      25.959   2.694  51.234  1.00  0.00     0.243 C 
HETATM   11  O2  UNL     1      27.142   3.059  51.063  1.00  0.00    -0.268 OA
HETATM   12  C16 UNL     1      24.864   1.283  53.110  1.00  0.00     0.193 C 
HETATM   13  H6  UNL     1      26.199  -2.817  53.218  1.00  0.00     0.160 HD
ENDROOT
BRANCH  10  14
HETATM   14  C11 UNL     1      24.761   2.918  50.451  1.00  0.00     0.072 C 
HETATM   15  C12 UNL     1      23.857   3.837  50.716  1.00  0.00     0.008 C 
BRANCH  15  16
HETATM   16  C13 UNL     1      23.744   4.860  51.783  1.00  0.00     0.299 C 
BRANCH  16  17
HETATM   17  N3  UNL     1      22.334   5.100  52.037  1.00  0.00     0.083 N 
HETATM   18  C14 UNL     1      21.576   3.898  52.185  1.00  0.00     0.309 C 
HETATM   19  C15 UNL     1      21.780   6.064  51.137  1.00  0.00     0.309 C 
ENDBRANCH  16  17
ENDBRANCH  15  16
ENDBRANCH  10  14
BRANCH   1  20
HETATM   20  O1  UNL     1      23.876  -0.896  53.100  1.00  0.00    -0.352 OA
BRANCH  20  21
HETATM   21  C2  UNL     1      22.596  -0.566  53.500  1.00  0.00     0.171 C 
HETATM   22  C1  UNL     1      22.272  -1.037  54.909  1.00  0.00     0.034 C 
ENDBRANCH  20  21
ENDBRANCH   1  20
TORSDOF 5
ENDMDL
MODEL 2
REMARK VINA RESULT:      -6.5      2.090      4.412
REMARK  5 active torsions:
REMARK  status: ('A' for Active; 'I' for Inactive)
REMARK    1  A    between atoms: C2_2  and  O1_3 
REMARK    2  A    between atoms: O1_3  and  C3_4 
REMARK       I    between atoms: N2_12  and  C10_13 
REMARK    3  A    between atoms: C10_13  and  C11_15 
REMARK    4  A    between atoms: C12_16  and  C13_17 
REMARK    5  A    between atoms: C13_17  and  N3_18 
ROOT
HETATM    1  C3  UNL     1      25.546   0.586  53.281  1.00  0.00     0.091 C 
HETATM    2  C4  UNL     1      24.677  -0.152  53.950  1.00  0.00     0.068 A 
HETATM    3  N1  UNL     1      24.922  -0.923  55.114  1.00  0.00    -0.383 N 
HETATM    4  C5  UNL     1      23.662  -1.546  55.466  1.00  0.00     0.154 A 
HETATM    5  C6  UNL     1      22.690  -1.097  54.455  1.00  0.00    -0.056 A 
HETATM    6  C7  UNL     1      21.264  -1.516  54.460  1.00  0.00     0.046 C 
HETATM    7  C8  UNL     1      23.275  -0.293  53.580  1.00  0.00    -0.008 A 
HETATM    8  C9  UNL     1      22.808   0.437  52.384  1.00  0.00     0.167 C 
HETATM    9  N2  UNL     1      23.594   1.649  52.268  1.00  0.00    -0.338 N 
HETATM   10  C10 UNL     1      22.987   2.929  52.345  1.00  0.00     0.243 C 
HETATM   11  O2  UNL     1      21.767   2.720  52.515  1.00  0.00    -0.268 OA
HETATM   12  C16 UNL     1      24.976   1.291  52.079  1.00  0.00     0.193 C 
HETATM   13  H6  UNL     1      25.815  -1.028  55.619  1.00  0.00     0.160 HD
ENDROOT
BRANCH  10  14
HETATM   14  C11 UNL     1      23.747   4.157  52.235  1.00  0.00     0.072 C 
HETATM   15  C12 UNL     1      24.256   4.622  51.113  1.00  0.00     0.008 C 
BRANCH  15  16
HETATM   16  C13 UNL     1      24.242   4.123  49.718  1.00  0.00     0.299 C 
BRANCH  16  17
HETATM   17  N3  UNL     1      25.535   4.405  49.120  1.00  0.00     0.083 N 
HETATM   18  C14 UNL     1      26.562   3.509  49.549  1.00  0.00     0.309 C 
HETATM   19  C15 UNL     1      25.870   5.794  49.189  1.00  0.00     0.309 C 
ENDBRANCH  16  17
ENDBRANCH  15  16
ENDBRANCH  10  14
BRANCH   1  20
HETATM   20  O1  UNL     1      26.860   0.825  53.480  1.00  0.00    -0.352 OA
BRANCH  20  21
HETATM   21  C2  UNL     1      27.977   0.023  53.342  1.00  0.00     0.171 C 
HETATM   22  C1  UNL     1      28.809  -0.061  54.611  1.00  0.00     0.034 C 
ENDBRANCH  20  21
ENDBRANCH   1  20
TORSDOF 5
ENDMDL
MODEL 3
REMARK VINA RESULT:      -6.4      1.630      2.043
REMARK  5 active torsions:
REMARK  status: ('A' for Active; 'I' for Inactive)
REMARK    1  A    between atoms: C2_2  and  O1_3 
REMARK    2  A    between atoms: O1_3  and  C3_4 
REMARK       I    between atoms: N2_12  and  C10_13 
REMARK    3  A    between atoms: C10_13  and  C11_15 
REMARK    4  A    between atoms: C12_16  and  C13_17 
REMARK    5  A    between atoms: C13_17  and  N3_18 
ROOT
HETATM    1  C3  UNL     1      23.966   0.007  53.607  1.00  0.00     0.091 C 
HETATM    2  C4  UNL     1      25.268   0.200  53.738  1.00  0.00     0.068 A 
HETATM    3  N1  UNL     1      26.234  -0.739  54.178  1.00  0.00    -0.383 N 
HETATM    4  C5  UNL     1      27.511  -0.055  54.150  1.00  0.00     0.154 A 
HETATM    5  C6  UNL     1      27.231   1.311  53.676  1.00  0.00    -0.056 A 
HETATM    6  C7  UNL     1      28.289   2.341  53.506  1.00  0.00     0.046 C 
HETATM    7  C8  UNL     1      25.937   1.458  53.438  1.00  0.00    -0.008 A 
HETATM    8  C9  UNL     1      25.102   2.579  52.960  1.00  0.00     0.167 C 
HETATM    9  N2  UNL     1      23.987   2.019  52.222  1.00  0.00    -0.338 N 
HETATM   10  C10 UNL     1      23.804   2.298  50.844  1.00  0.00     0.243 C 
HETATM   11  O2  UNL     1      24.746   3.052  50.518  1.00  0.00    -0.268 OA
HETATM   12  C16 UNL     1      23.201   1.206  53.114  1.00  0.00     0.193 C 
HETATM   13  H6  UNL     1      26.073  -1.716  54.463  1.00  0.00     0.160 HD
ENDROOT
BRANCH  10  14
HETATM   14  C11 UNL     1      22.701   1.752  50.080  1.00  0.00     0.072 C 
HETATM   15  C12 UNL     1      21.714   2.465  49.580  1.00  0.00     0.008 C 
BRANCH  15  16
HETATM   16  C13 UNL     1      21.402   3.913  49.610  1.00  0.00     0.299 C 
BRANCH  16  17
HETATM   17  N3  UNL     1      21.165   4.301  50.989  1.00  0.00     0.083 N 
HETATM   18  C14 UNL     1      19.859   3.955  51.455  1.00  0.00     0.309 C 
HETATM   19  C15 UNL     1      21.568   5.649  51.247  1.00  0.00     0.309 C 
ENDBRANCH  16  17
ENDBRANCH  15  16
ENDBRANCH  10  14
BRANCH   1  20
HETATM   20  O1  UNL     1      23.193  -1.076  53.836  1.00  0.00    -0.352 OA
BRANCH  20  21
HETATM   21  C2  UNL     1      22.269  -1.360  54.823  1.00  0.00     0.171 C 
HETATM   22  C1  UNL     1      20.864  -1.569  54.281  1.00  0.00     0.034 C 
ENDBRANCH  20  21
ENDBRANCH   1  20
TORSDOF 5
ENDMDL
MODEL 4
REMARK VINA RESULT:      -6.4      2.619      6.434
REMARK  5 active torsions:
REMARK  status: ('A' for Active; 'I' for Inactive)
REMARK    1  A    between atoms: C2_2  and  O1_3 
REMARK    2  A    between atoms: O1_3  and  C3_4 
REMARK       I    between atoms: N2_12  and  C10_13 
REMARK    3  A    between atoms: C10_13  and  C11_15 
REMARK    4  A    between atoms: C12_16  and  C13_17 
REMARK    5  A    between atoms: C13_17  and  N3_18 
ROOT
HETATM    1  C3  UNL     1      24.072   4.725  49.783  1.00  0.00     0.091 C 
HETATM    2  C4  UNL     1      25.119   5.386  49.320  1.00  0.00     0.068 A 
HETATM    3  N1  UNL     1      25.175   6.753  48.948  1.00  0.00    -0.383 N 
HETATM    4  C5  UNL     1      26.532   7.001  48.506  1.00  0.00     0.154 A 
HETATM    5  C6  UNL     1      27.245   5.721  48.642  1.00  0.00    -0.056 A 
HETATM    6  C7  UNL     1      28.679   5.551  48.288  1.00  0.00     0.046 C 
HETATM    7  C8  UNL     1      26.431   4.789  49.111  1.00  0.00    -0.008 A 
HETATM    8  C9  UNL     1      26.589   3.357  49.441  1.00  0.00     0.167 C 
HETATM    9  N2  UNL     1      25.685   3.049  50.531  1.00  0.00    -0.338 N 
HETATM   10  C10 UNL     1      26.171   2.606  51.786  1.00  0.00     0.243 C 
HETATM   11  O2  UNL     1      27.416   2.569  51.678  1.00  0.00    -0.268 OA
HETATM   12  C16 UNL     1      24.332   3.274  50.090  1.00  0.00     0.193 C 
HETATM   13  H6  UNL     1      24.409   7.443  48.981  1.00  0.00     0.160 HD
ENDROOT
BRANCH  10  14
HETATM   14  C11 UNL     1      25.293   2.293  52.894  1.00  0.00     0.072 C 
HETATM   15  C12 UNL     1      25.166   1.098  53.432  1.00  0.00     0.008 C 
BRANCH  15  16
HETATM   16  C13 UNL     1      25.799  -0.209  53.141  1.00  0.00     0.299 C 
BRANCH  16  17
HETATM   17  N3  UNL     1      27.192  -0.143  53.548  1.00  0.00     0.083 N 
HETATM   18  C14 UNL     1      27.980  -1.219  53.036  1.00  0.00     0.309 C 
HETATM   19  C15 UNL     1      27.333   0.103  54.951  1.00  0.00     0.309 C 
ENDBRANCH  16  17
ENDBRANCH  15  16
ENDBRANCH  10  14
BRANCH   1  20
HETATM   20  O1  UNL     1      22.804   5.115  50.033  1.00  0.00    -0.352 OA
BRANCH  20  21
HETATM   21  C2  UNL     1      22.175   5.529  51.192  1.00  0.00     0.171 C 
HETATM   22  C1  UNL     1      21.441   4.405  51.905  1.00  0.00     0.034 C 
ENDBRANCH  20  21
ENDBRANCH   1  20
TORSDOF 5
ENDMDL
MODEL 5
REMARK VINA RESULT:      -6.3      2.249      4.653
REMARK  5 active torsions:
REMARK  status: ('A' for Active; 'I' for Inactive)
REMARK    1  A    between atoms: C2_2  and  O1_3 
REMARK    2  A    between atoms: O1_3  and  C3_4 
REMARK       I    between atoms: N2_12  and  C10_13 
REMARK    3  A    between atoms: C10_13  and  C11_15 
REMARK    4  A    between atoms: C12_16  and  C13_17 
REMARK    5  A    between atoms: C13_17  and  N3_18 
ROOT
HETATM    1  C3  UNL     1      24.374   0.648  52.932  1.00  0.00     0.091 C 
HETATM    2  C4  UNL     1      23.310   0.025  53.411  1.00  0.00     0.068 A 
HETATM    3  N1  UNL     1      23.277  -0.954  54.435  1.00  0.00    -0.383 N 
HETATM    4  C5  UNL     1      21.888  -1.329  54.598  1.00  0.00     0.154 A 
HETATM    5  C6  UNL     1      21.132  -0.523  53.625  1.00  0.00    -0.056 A 
HETATM    6  C7  UNL     1      19.656  -0.612  53.473  1.00  0.00     0.046 C 
HETATM    7  C8  UNL     1      21.952   0.258  52.940  1.00  0.00    -0.008 A 
HETATM    8  C9  UNL     1      21.763   1.252  51.863  1.00  0.00     0.167 C 
HETATM    9  N2  UNL     1      22.792   2.262  52.006  1.00  0.00    -0.338 N 
HETATM   10  C10 UNL     1      22.461   3.616  52.268  1.00  0.00     0.243 C 
HETATM   11  O2  UNL     1      21.214   3.659  52.327  1.00  0.00    -0.268 OA
HETATM   12  C16 UNL     1      24.081   1.640  51.840  1.00  0.00     0.193 C 
HETATM   13  H6  UNL     1      24.076  -1.332  54.966  1.00  0.00     0.160 HD
ENDROOT
BRANCH  10  14
HETATM   14  C11 UNL     1      23.467   4.647  52.418  1.00  0.00     0.072 C 
HETATM   15  C12 UNL     1      23.766   5.538  51.496  1.00  0.00     0.008 C 
BRANCH  15  16
HETATM   16  C13 UNL     1      23.247   5.787  50.131  1.00  0.00     0.299 C 
BRANCH  16  17
HETATM   17  N3  UNL     1      22.778   7.160  50.063  1.00  0.00     0.083 N 
HETATM   18  C14 UNL     1      23.779   8.115  50.419  1.00  0.00     0.309 C 
HETATM   19  C15 UNL     1      21.514   7.330  50.711  1.00  0.00     0.309 C 
ENDBRANCH  16  17
ENDBRANCH  15  16
ENDBRANCH  10  14
BRANCH   1  20
HETATM   20  O1  UNL     1      25.684   0.556  53.247  1.00  0.00    -0.352 OA
BRANCH  20  21
HETATM   21  C2  UNL     1      26.752  -0.030  52.596  1.00  0.00     0.171 C 
HETATM   22  C1  UNL     1      26.672  -1.548  52.564  1.00  0.00     0.034 C 
ENDBRANCH  20  21
ENDBRANCH   1  20
TORSDOF 5
ENDMDL
MODEL 6
REMARK VINA RESULT:      -6.2      2.278      5.770
REMARK  5 active torsions:
REMARK  status: ('A' for Active; 'I' for Inactive)
REMARK    1  A    between atoms: C2_2  and  O1_3 
REMARK    2  A    between atoms: O1_3  and  C3_4 
REMARK       I    between atoms: N2_12  and  C10_13 
REMARK    3  A    between atoms: C10_13  and  C11_15 
REMARK    4  A    between atoms: C12_16  and  C13_17 
REMARK    5  A    between atoms: C13_17  and  N3_18 
ROOT
HETATM    1  C3  UNL     1      24.010   4.326  51.260  1.00  0.00     0.091 C 
HETATM    2  C4  UNL     1      24.866   4.991  50.503  1.00  0.00     0.068 A 
HETATM    3  N1  UNL     1      24.806   6.359  50.137  1.00  0.00    -0.383 N 
HETATM    4  C5  UNL     1      25.963   6.611  49.304  1.00  0.00     0.154 A 
HETATM    5  C6  UNL     1      26.685   5.331  49.211  1.00  0.00    -0.056 A 
HETATM    6  C7  UNL     1      27.943   5.165  48.437  1.00  0.00     0.046 C 
HETATM    7  C8  UNL     1      26.053   4.396  49.903  1.00  0.00    -0.008 A 
HETATM    8  C9  UNL     1      26.304   2.964  50.163  1.00  0.00     0.167 C 
HETATM    9  N2  UNL     1      25.774   2.651  51.475  1.00  0.00    -0.338 N 
HETATM   10  C10 UNL     1      26.620   2.204  52.522  1.00  0.00     0.243 C 
HETATM   11  O2  UNL     1      27.773   2.169  52.040  1.00  0.00    -0.268 OA
HETATM   12  C16 UNL     1      24.352   2.875  51.467  1.00  0.00     0.193 C 
HETATM   13  H6  UNL     1      24.086   7.047  50.404  1.00  0.00     0.160 HD
ENDROOT
BRANCH  10  14
HETATM   14  C11 UNL     1      26.120   1.885  53.843  1.00  0.00     0.072 C 
HETATM   15  C12 UNL     1      25.489   0.773  54.154  1.00  0.00     0.008 C 
BRANCH  15  16
HETATM   16  C13 UNL     1      25.102  -0.420  53.365  1.00  0.00     0.299 C 
BRANCH  16  17
HETATM   17  N3  UNL     1      23.735  -0.770  53.707  1.00  0.00     0.083 N 
HETATM   18  C14 UNL     1      22.777   0.184  53.244  1.00  0.00     0.309 C 
HETATM   19  C15 UNL     1      23.602  -1.152  55.079  1.00  0.00     0.309 C 
ENDBRANCH  16  17
ENDBRANCH  15  16
ENDBRANCH  10  14
BRANCH   1  20
HETATM   20  O1  UNL     1      22.878   4.713  51.886  1.00  0.00    -0.352 OA
BRANCH  20  21
HETATM   21  C2  UNL     1      21.564   4.775  51.465  1.00  0.00     0.171 C 
HETATM   22  C1  UNL     1      20.712   3.635  51.999  1.00  0.00     0.034 C 
ENDBRANCH  20  21
ENDBRANCH   1  20
TORSDOF 5
ENDMDL
MODEL 7
REMARK VINA RESULT:      -6.1      2.753      5.729
REMARK  5 active torsions:
REMARK  status: ('A' for Active; 'I' for Inactive)
REMARK    1  A    between atoms: C2_2  and  O1_3 
REMARK    2  A    between atoms: O1_3  and  C3_4 
REMARK       I    between atoms: N2_12  and  C10_13 
REMARK    3  A    between atoms: C10_13  and  C11_15 
REMARK    4  A    between atoms: C12_16  and  C13_17 
REMARK    5  A    between atoms: C13_17  and  N3_18 
ROOT
HETATM    1  C3  UNL     1      25.940   2.924  50.864  1.00  0.00     0.091 C 
HETATM    2  C4  UNL     1      26.094   3.979  50.082  1.00  0.00     0.068 A 
HETATM    3  N1  UNL     1      27.245   4.334  49.335  1.00  0.00    -0.383 N 
HETATM    4  C5  UNL     1      26.921   5.566  48.645  1.00  0.00     0.154 A 
HETATM    5  C6  UNL     1      25.539   5.897  49.030  1.00  0.00    -0.056 A 
HETATM    6  C7  UNL     1      24.826   7.102  48.530  1.00  0.00     0.046 C 
HETATM    7  C8  UNL     1      25.061   4.983  49.859  1.00  0.00    -0.008 A 
HETATM    8  C9  UNL     1      23.770   4.799  50.552  1.00  0.00     0.167 C 
HETATM    9  N2  UNL     1      23.545   3.375  50.703  1.00  0.00    -0.338 N 
HETATM   10  C10 UNL     1      22.437   2.737  50.092  1.00  0.00     0.243 C 
HETATM   11  O2  UNL     1      21.816   3.636  49.484  1.00  0.00    -0.268 OA
HETATM   12  C16 UNL     1      24.592   2.824  51.525  1.00  0.00     0.193 C 
HETATM   13  H6  UNL     1      28.140   3.825  49.284  1.00  0.00     0.160 HD
ENDROOT
BRANCH  10  14
HETATM   14  C11 UNL     1      22.187   1.317  50.223  1.00  0.00     0.072 C 
HETATM   15  C12 UNL     1      21.723   0.738  51.311  1.00  0.00     0.008 C 
BRANCH  15  16
HETATM   16  C13 UNL     1      21.331   1.260  52.641  1.00  0.00     0.299 C 
BRANCH  16  17
HETATM   17  N3  UNL     1      21.779   0.317  53.651  1.00  0.00     0.083 N 
HETATM   18  C14 UNL     1      23.129  -0.111  53.464  1.00  0.00     0.309 C 
HETATM   19  C15 UNL     1      20.830  -0.732  53.868  1.00  0.00     0.309 C 
ENDBRANCH  16  17
ENDBRANCH  15  16
ENDBRANCH  10  14
BRANCH   1  20
HETATM   20  O1  UNL     1      26.778   1.913  51.179  1.00  0.00    -0.352 OA
BRANCH  20  21
HETATM   21  C2  UNL     1      27.017   1.245  52.365  1.00  0.00     0.171 C 
HETATM   22  C1  UNL     1      26.718  -0.243  52.282  1.00  0.00     0.034 C 
ENDBRANCH  20  21
ENDBRANCH   1  20
TORSDOF 5
ENDMDL
MODEL 8
REMARK VINA RESULT:      -6.1      1.707      6.229
REMARK  5 active torsions:
REMARK  status: ('A' for Active; 'I' for Inactive)
REMARK    1  A    between atoms: C2_2  and  O1_3 
REMARK    2  A    between atoms: O1_3  and  C3_4 
REMARK       I    between atoms: N2_12  and  C10_13 
REMARK    3  A    between atoms: C10_13  and  C11_15 
REMARK    4  A    between atoms: C12_16  and  C13_17 
REMARK    5  A    between atoms: C13_17  and  N3_18 
ROOT
HETATM    1  C3  UNL     1      21.773   2.095  52.173  1.00  0.00     0.091 C 
HETATM    2  C4  UNL     1      22.075   3.335  51.827  1.00  0.00     0.068 A 
HETATM    3  N1  UNL     1      21.374   4.517  52.173  1.00  0.00    -0.383 N 
HETATM    4  C5  UNL     1      22.092   5.614  51.556  1.00  0.00     0.154 A 
HETATM    5  C6  UNL     1      23.230   5.007  50.846  1.00  0.00    -0.056 A 
HETATM    6  C7  UNL     1      24.222   5.803  50.077  1.00  0.00     0.046 C 
HETATM    7  C8  UNL     1      23.221   3.693  51.002  1.00  0.00    -0.008 A 
HETATM    8  C9  UNL     1      24.091   2.596  50.530  1.00  0.00     0.167 C 
HETATM    9  N2  UNL     1      24.065   1.547  51.530  1.00  0.00    -0.338 N 
HETATM   10  C10 UNL     1      25.242   1.159  52.219  1.00  0.00     0.243 C 
HETATM   11  O2  UNL     1      26.156   1.882  51.769  1.00  0.00    -0.268 OA
HETATM   12  C16 UNL     1      22.718   1.049  51.646  1.00  0.00     0.193 C 
HETATM   13  H6  UNL     1      20.522   4.595  52.748  1.00  0.00     0.160 HD
ENDROOT
BRANCH  10  14
HETATM   14  C11 UNL     1      25.246   0.116  53.223  1.00  0.00     0.072 C 
HETATM   15  C12 UNL     1      26.269  -0.673  53.476  1.00  0.00     0.008 C 
BRANCH  15  16
HETATM   16  C13 UNL     1      27.630  -0.774  52.898  1.00  0.00     0.299 C 
BRANCH  16  17
HETATM   17  N3  UNL     1      28.595  -0.638  53.975  1.00  0.00     0.083 N 
HETATM   18  C14 UNL     1      28.497   0.610  54.664  1.00  0.00     0.309 C 
HETATM   19  C15 UNL     1      29.915  -1.008  53.567  1.00  0.00     0.309 C 
ENDBRANCH  16  17
ENDBRANCH  15  16
ENDBRANCH  10  14
BRANCH   1  20
HETATM   20  O1  UNL     1      20.767   1.593  52.920  1.00  0.00    -0.352 OA
BRANCH  20  21
HETATM   21  C2  UNL     1      20.489   0.312  53.356  1.00  0.00     0.171 C 
HETATM   22  C1  UNL     1      21.120  -0.009  54.701  1.00  0.00     0.034 C 
ENDBRANCH  20  21
ENDBRANCH   1  20
TORSDOF 5
ENDMDL
MODEL 9
REMARK VINA RESULT:      -6.0      3.017      5.251
REMARK  5 active torsions:
REMARK  status: ('A' for Active; 'I' for Inactive)
REMARK    1  A    between atoms: C2_2  and  O1_3 
REMARK    2  A    between atoms: O1_3  and  C3_4 
REMARK       I    between atoms: N2_12  and  C10_13 
REMARK    3  A    between atoms: C10_13  and  C11_15 
REMARK    4  A    between atoms: C12_16  and  C13_17 
REMARK    5  A    between atoms: C13_17  and  N3_18 
ROOT
HETATM    1  C3  UNL     1      24.287   2.409  51.433  1.00  0.00     0.091 C 
HETATM    2  C4  UNL     1      25.135   2.065  52.387  1.00  0.00     0.068 A 
HETATM    3  N1  UNL     1      26.316   2.748  52.772  1.00  0.00    -0.383 N 
HETATM    4  C5  UNL     1      26.897   1.981  53.855  1.00  0.00     0.154 A 
HETATM    5  C6  UNL     1      25.999   0.835  54.070  1.00  0.00    -0.056 A 
HETATM    6  C7  UNL     1      26.244  -0.203  55.105  1.00  0.00     0.046 C 
HETATM    7  C8  UNL     1      24.982   0.882  53.223  1.00  0.00    -0.008 A 
HETATM    8  C9  UNL     1      23.804   0.024  52.983  1.00  0.00     0.167 C 
HETATM    9  N2  UNL     1      22.726   0.871  52.512  1.00  0.00    -0.338 N 
HETATM   10  C10 UNL     1      21.523   1.005  53.249  1.00  0.00     0.243 C 
HETATM   11  O2  UNL     1      21.658   0.286  54.261  1.00  0.00    -0.268 OA
HETATM   12  C16 UNL     1      23.120   1.474  51.264  1.00  0.00     0.193 C 
HETATM   13  H6  UNL     1      26.696   3.618  52.370  1.00  0.00     0.160 HD
ENDROOT
BRANCH  10  14
HETATM   14  C11 UNL     1      20.429   1.844  52.805  1.00  0.00     0.072 C 
HETATM   15  C12 UNL     1      19.481   1.460  51.976  1.00  0.00     0.008 C 
BRANCH  15  16
HETATM   16  C13 UNL     1      19.213   0.182  51.276  1.00  0.00     0.299 C 
BRANCH  16  17
HETATM   17  N3  UNL     1      17.968  -0.365  51.785  1.00  0.00     0.083 N 
HETATM   18  C14 UNL     1      16.889   0.570  51.758  1.00  0.00     0.309 C 
HETATM   19  C15 UNL     1      18.149  -1.054  53.026  1.00  0.00     0.309 C 
ENDBRANCH  16  17
ENDBRANCH  15  16
ENDBRANCH  10  14
BRANCH   1  20
HETATM   20  O1  UNL     1      24.275   3.454  50.577  1.00  0.00    -0.352 OA
BRANCH  20  21
HETATM   21  C2  UNL     1      24.862   3.643  49.341  1.00  0.00     0.171 C 
HETATM   22  C1  UNL     1      26.356   3.908  49.425  1.00  0.00     0.034 C 
ENDBRANCH  20  21
ENDBRANCH   1  20
TORSDOF 5
ENDMDL
