MODEL 1
REMARK VINA RESULT:      -7.2      0.000      0.000
REMARK  7 active torsions:
REMARK  status: ('A' for Active; 'I' for Inactive)
REMARK    1  A    between atoms: C1_2  and  C2_3 
REMARK    2  A    between atoms: C2_3  and  O1_4 
REMARK    3  A    between atoms: O1_4  and  C3_5 
REMARK    4  A    between atoms: C8_10  and  N2_11 
REMARK    5  A    between atoms: C9_12  and  O2_13 
REMARK    6  A    between atoms: S1_14  and  C10_15 
REMARK    7  A    between atoms: C10_15  and  C11_16 
ROOT
HETATM    1  N2  UNL     1      23.946   2.476  51.436  1.00  0.00    -0.258 N 
HETATM    2  C9  UNL     1      24.330   3.656  51.700  1.00  0.00     0.203 A 
HETATM    3  S1  UNL     1      23.958   3.736  49.957  1.00  0.00    -0.036 SA
ENDROOT
BRANCH   1   4
HETATM    4  C8  UNL     1      23.840   1.381  52.299  1.00  0.00     0.081 A 
HETATM    5  C3  UNL     1      25.000   0.687  52.666  1.00  0.00     0.097 A 
HETATM    6  C4  UNL     1      24.906  -0.406  53.527  1.00  0.00     0.039 A 
HETATM    7  C5  UNL     1      23.702  -0.842  54.044  1.00  0.00     0.003 A 
HETATM    8  C6  UNL     1      22.545  -0.162  53.688  1.00  0.00     0.002 A 
HETATM    9  C7  UNL     1      22.678   0.914  52.834  1.00  0.00     0.033 A 
BRANCH   5  10
HETATM   10  O1  UNL     1      26.253   1.077  52.178  1.00  0.00    -0.344 OA
BRANCH  10  11
HETATM   11  C2  UNL     1      27.428   0.580  52.791  1.00  0.00     0.222 C 
BRANCH  11  12
HETATM   12  C1  UNL     1      28.064   1.617  53.650  1.00  0.00     0.106 C 
HETATM   13  N1  UNL     1      27.695   2.770  54.028  1.00  0.00    -0.314 NA
HETATM   14  H1  UNL     1      26.790   3.164  53.740  1.00  0.00     0.185 HD
ENDBRANCH  11  12
ENDBRANCH  10  11
ENDBRANCH   5  10
ENDBRANCH   1   4
BRANCH   2  15
HETATM   15  O2  UNL     1      24.644   3.673  53.073  1.00  0.00    -0.339 OA
HETATM   16  H9  UNL     1      25.365   4.338  53.382  1.00  0.00     0.220 HD
ENDBRANCH   2  15
BRANCH   3  17
HETATM   17  C10 UNL     1      24.287   5.417  49.357  1.00  0.00     0.132 C 
BRANCH  17  18
HETATM   18  C11 UNL     1      25.693   5.601  48.951  1.00  0.00    -0.048 A 
HETATM   19  C12 UNL     1      26.677   4.634  49.005  1.00  0.00     0.008 A 
HETATM   20  C13 UNL     1      27.982   4.836  48.618  1.00  0.00     0.001 A 
HETATM   21  C14 UNL     1      28.374   6.068  48.140  1.00  0.00     0.000 A 
HETATM   22  C15 UNL     1      27.413   7.062  48.072  1.00  0.00     0.001 A 
HETATM   23  C16 UNL     1      26.110   6.841  48.465  1.00  0.00     0.008 A 
ENDBRANCH  17  18
ENDBRANCH   3  17
TORSDOF 7
ENDMDL
MODEL 2
REMARK VINA RESULT:      -6.8      1.643      1.887
REMARK  7 active torsions:
REMARK  status: ('A' for Active; 'I' for Inactive)
REMARK    1  A    between atoms: C1_2  and  C2_3 
REMARK    2  A    between atoms: C2_3  and  O1_4 
REMARK    3  A    between atoms: O1_4  and  C3_5 
REMARK    4  A    between atoms: C8_10  and  N2_11 
REMARK    5  A    between atoms: C9_12  and  O2_13 
REMARK    6  A    between atoms: S1_14  and  C10_15 
REMARK    7  A    between atoms: C10_15  and  C11_16 
ROOT
HETATM    1  N2  UNL     1      22.875   2.166  52.241  1.00  0.00    -0.258 N 
HETATM    2  C9  UNL     1      22.731   2.263  50.984  1.00  0.00     0.203 A 
HETATM    3  S1  UNL     1      23.370   3.865  51.439  1.00  0.00    -0.036 SA
ENDROOT
BRANCH   1   4
HETATM    4  C8  UNL     1      22.601   1.071  53.066  1.00  0.00     0.081 A 
HETATM    5  C3  UNL     1      23.653   0.233  53.458  1.00  0.00     0.097 A 
HETATM    6  C4  UNL     1      23.391  -0.862  54.282  1.00  0.00     0.039 A 
HETATM    7  C5  UNL     1      22.122  -1.161  54.736  1.00  0.00     0.003 A 
HETATM    8  C6  UNL     1      21.072  -0.338  54.355  1.00  0.00     0.002 A 
HETATM    9  C7  UNL     1      21.370   0.735  53.539  1.00  0.00     0.033 A 
BRANCH   5  10
HETATM   10  O1  UNL     1      24.964   0.481  53.033  1.00  0.00    -0.344 OA
BRANCH  10  11
HETATM   11  C2  UNL     1      25.879  -0.594  52.925  1.00  0.00     0.222 C 
BRANCH  11  12
HETATM   12  C1  UNL     1      27.135  -0.303  53.669  1.00  0.00     0.106 C 
HETATM   13  N1  UNL     1      27.415  -0.253  54.906  1.00  0.00    -0.314 NA
HETATM   14  H1  UNL     1      26.701  -0.434  55.624  1.00  0.00     0.185 HD
ENDBRANCH  11  12
ENDBRANCH  10  11
ENDBRANCH   5  10
ENDBRANCH   1   4
BRANCH   2  15
HETATM   15  O2  UNL     1      22.225   1.024  50.545  1.00  0.00    -0.339 OA
HETATM   16  H9  UNL     1      22.094   0.292  51.255  1.00  0.00     0.220 HD
ENDBRANCH   2  15
BRANCH   3  17
HETATM   17  C10 UNL     1      23.521   4.889  49.948  1.00  0.00     0.132 C 
BRANCH  17  18
HETATM   18  C11 UNL     1      24.917   4.997  49.483  1.00  0.00    -0.048 A 
HETATM   19  C12 UNL     1      25.869   4.001  49.565  1.00  0.00     0.008 A 
HETATM   20  C13 UNL     1      27.166   4.133  49.122  1.00  0.00     0.001 A 
HETATM   21  C14 UNL     1      27.581   5.317  48.552  1.00  0.00     0.000 A 
HETATM   22  C15 UNL     1      26.651   6.338  48.454  1.00  0.00     0.001 A 
HETATM   23  C16 UNL     1      25.356   6.188  48.905  1.00  0.00     0.008 A 
ENDBRANCH  17  18
ENDBRANCH   3  17
TORSDOF 7
ENDMDL
MODEL 3
REMARK VINA RESULT:      -6.7      3.900      5.687
REMARK  7 active torsions:
REMARK  status: ('A' for Active; 'I' for Inactive)
REMARK    1  A    between atoms: C1_2  and  C2_3 
REMARK    2  A    between atoms: C2_3  and  O1_4 
REMARK    3  A    between atoms: O1_4  and  C3_5 
REMARK    4  A    between atoms: C8_10  and  N2_11 
REMARK    5  A    between atoms: C9_12  and  O2_13 
REMARK    6  A    between atoms: S1_14  and  C10_15 
REMARK    7  A    between atoms: C10_15  and  C11_16 
ROOT
HETATM    1  N2  UNL     1      22.598   1.077  51.908  1.00  0.00    -0.258 N 
HETATM    2  C9  UNL     1      23.117   2.206  52.166  1.00  0.00     0.203 A 
HETATM    3  S1  UNL     1      24.523   1.108  52.168  1.00  0.00    -0.036 SA
ENDROOT
BRANCH   1   4
HETATM    4  C8  UNL     1      21.253   0.769  51.677  1.00  0.00     0.081 A 
HETATM    5  C3  UNL     1      20.473   0.289  52.737  1.00  0.00     0.097 A 
HETATM    6  C4  UNL     1      19.131  -0.020  52.518  1.00  0.00     0.039 A 
HETATM    7  C5  UNL     1      18.526   0.128  51.286  1.00  0.00     0.003 A 
HETATM    8  C6  UNL     1      19.289   0.603  50.228  1.00  0.00     0.002 A 
HETATM    9  C7  UNL     1      20.614   0.898  50.483  1.00  0.00     0.033 A 
BRANCH   5  10
HETATM   10  O1  UNL     1      21.024   0.116  54.012  1.00  0.00    -0.344 OA
BRANCH  10  11
HETATM   11  C2  UNL     1      21.185  -1.190  54.533  1.00  0.00     0.222 C 
BRANCH  11  12
HETATM   12  C1  UNL     1      22.616  -1.474  54.831  1.00  0.00     0.106 C 
HETATM   13  N1  UNL     1      23.255  -1.654  55.912  1.00  0.00    -0.314 NA
HETATM   14  H1  UNL     1      22.782  -1.618  56.825  1.00  0.00     0.185 HD
ENDBRANCH  11  12
ENDBRANCH  10  11
ENDBRANCH   5  10
ENDBRANCH   1   4
BRANCH   2  15
HETATM   15  O2  UNL     1      22.058   3.135  52.183  1.00  0.00    -0.339 OA
HETATM   16  H9  UNL     1      21.809   3.547  53.091  1.00  0.00     0.220 HD
ENDBRANCH   2  15
BRANCH   3  17
HETATM   17  C10 UNL     1      26.022   2.065  52.530  1.00  0.00     0.132 C 
BRANCH  17  18
HETATM   18  C11 UNL     1      27.142   1.208  52.962  1.00  0.00    -0.048 A 
HETATM   19  C12 UNL     1      27.229  -0.156  52.769  1.00  0.00     0.008 A 
HETATM   20  C13 UNL     1      28.289  -0.930  53.184  1.00  0.00     0.001 A 
HETATM   21  C14 UNL     1      29.353  -0.345  53.837  1.00  0.00     0.000 A 
HETATM   22  C15 UNL     1      29.299   1.023  54.047  1.00  0.00     0.001 A 
HETATM   23  C16 UNL     1      28.228   1.781  53.625  1.00  0.00     0.008 A 
ENDBRANCH  17  18
ENDBRANCH   3  17
TORSDOF 7
ENDMDL
MODEL 4
REMARK VINA RESULT:      -6.7      3.521      5.927
REMARK  7 active torsions:
REMARK  status: ('A' for Active; 'I' for Inactive)
REMARK    1  A    between atoms: C1_2  and  C2_3 
REMARK    2  A    between atoms: C2_3  and  O1_4 
REMARK    3  A    between atoms: O1_4  and  C3_5 
REMARK    4  A    between atoms: C8_10  and  N2_11 
REMARK    5  A    between atoms: C9_12  and  O2_13 
REMARK    6  A    between atoms: S1_14  and  C10_15 
REMARK    7  A    between atoms: C10_15  and  C11_16 
ROOT
HETATM    1  N2  UNL     1      24.107   2.407  52.783  1.00  0.00    -0.258 N 
HETATM    2  C9  UNL     1      25.064   2.387  51.950  1.00  0.00     0.203 A 
HETATM    3  S1  UNL     1      25.885   2.110  53.509  1.00  0.00    -0.036 SA
ENDROOT
BRANCH   1   4
HETATM    4  C8  UNL     1      22.744   2.598  52.539  1.00  0.00     0.081 A 
HETATM    5  C3  UNL     1      21.862   1.524  52.717  1.00  0.00     0.097 A 
HETATM    6  C4  UNL     1      20.500   1.704  52.477  1.00  0.00     0.039 A 
HETATM    7  C5  UNL     1      19.973   2.912  52.066  1.00  0.00     0.003 A 
HETATM    8  C6  UNL     1      20.836   3.984  51.887  1.00  0.00     0.002 A 
HETATM    9  C7  UNL     1      22.177   3.768  52.134  1.00  0.00     0.033 A 
BRANCH   5  10
HETATM   10  O1  UNL     1      22.332   0.273  53.133  1.00  0.00    -0.344 OA
BRANCH  10  11
HETATM   11  C2  UNL     1      21.859  -0.285  54.345  1.00  0.00     0.222 C 
BRANCH  11  12
HETATM   12  C1  UNL     1      22.764  -1.364  54.827  1.00  0.00     0.106 C 
HETATM   13  N1  UNL     1      23.178  -1.693  55.980  1.00  0.00    -0.314 NA
HETATM   14  H1  UNL     1      22.891  -1.174  56.820  1.00  0.00     0.185 HD
ENDBRANCH  11  12
ENDBRANCH  10  11
ENDBRANCH   5  10
ENDBRANCH   1   4
BRANCH   2  15
HETATM   15  O2  UNL     1      24.489   2.601  50.681  1.00  0.00    -0.339 OA
HETATM   16  H9  UNL     1      23.471   2.737  50.643  1.00  0.00     0.220 HD
ENDBRANCH   2  15
BRANCH   3  17
HETATM   17  C10 UNL     1      27.668   1.932  53.217  1.00  0.00     0.132 C 
BRANCH  17  18
HETATM   18  C11 UNL     1      28.094   0.520  53.209  1.00  0.00    -0.048 A 
HETATM   19  C12 UNL     1      27.314  -0.552  52.826  1.00  0.00     0.008 A 
HETATM   20  C13 UNL     1      27.742  -1.860  52.830  1.00  0.00     0.001 A 
HETATM   21  C14 UNL     1      29.025  -2.163  53.235  1.00  0.00     0.000 A 
HETATM   22  C15 UNL     1      29.835  -1.111  53.627  1.00  0.00     0.001 A 
HETATM   23  C16 UNL     1      29.388   0.193  53.617  1.00  0.00     0.008 A 
ENDBRANCH  17  18
ENDBRANCH   3  17
TORSDOF 7
ENDMDL
MODEL 5
REMARK VINA RESULT:      -6.6      5.436      8.068
REMARK  7 active torsions:
REMARK  status: ('A' for Active; 'I' for Inactive)
REMARK    1  A    between atoms: C1_2  and  C2_3 
REMARK    2  A    between atoms: C2_3  and  O1_4 
REMARK    3  A    between atoms: O1_4  and  C3_5 
REMARK    4  A    between atoms: C8_10  and  N2_11 
REMARK    5  A    between atoms: C9_12  and  O2_13 
REMARK    6  A    between atoms: S1_14  and  C10_15 
REMARK    7  A    between atoms: C10_15  and  C11_16 
ROOT
HETATM    1  N2  UNL     1      29.510   6.366  47.767  1.00  0.00    -0.258 N 
HETATM    2  C9  UNL     1      30.663   6.212  48.275  1.00  0.00     0.203 A 
HETATM    3  S1  UNL     1      31.022   6.886  46.663  1.00  0.00    -0.036 SA
ENDROOT
BRANCH   1   4
HETATM    4  C8  UNL     1      28.264   6.078  48.333  1.00  0.00     0.081 A 
HETATM    5  C3  UNL     1      27.413   7.135  48.680  1.00  0.00     0.097 A 
HETATM    6  C4  UNL     1      26.168   6.859  49.245  1.00  0.00     0.039 A 
HETATM    7  C5  UNL     1      25.729   5.572  49.480  1.00  0.00     0.003 A 
HETATM    8  C6  UNL     1      26.563   4.516  49.140  1.00  0.00     0.002 A 
HETATM    9  C7  UNL     1      27.788   4.828  48.584  1.00  0.00     0.033 A 
BRANCH   5  10
HETATM   10  O1  UNL     1      27.798   8.464  48.468  1.00  0.00    -0.344 OA
BRANCH  10  11
HETATM   11  C2  UNL     1      28.251   9.244  49.558  1.00  0.00     0.222 C 
BRANCH  11  12
HETATM   12  C1  UNL     1      29.683   9.615  49.393  1.00  0.00     0.106 C 
HETATM   13  N1  UNL     1      30.571  10.018  50.204  1.00  0.00    -0.314 NA
HETATM   14  H1  UNL     1      30.363  10.148  51.203  1.00  0.00     0.185 HD
ENDBRANCH  11  12
ENDBRANCH  10  11
ENDBRANCH   5  10
ENDBRANCH   1   4
BRANCH   2  15
HETATM   15  O2  UNL     1      30.462   5.677  49.563  1.00  0.00    -0.339 OA
HETATM   16  H9  UNL     1      29.982   6.273  50.249  1.00  0.00     0.220 HD
ENDBRANCH   2  15
BRANCH   3  17
HETATM   17  C10 UNL     1      32.820   7.043  46.472  1.00  0.00     0.132 C 
BRANCH  17  18
HETATM   18  C11 UNL     1      33.531   5.804  46.840  1.00  0.00    -0.048 A 
HETATM   19  C12 UNL     1      34.347   5.643  47.942  1.00  0.00     0.008 A 
HETATM   20  C13 UNL     1      34.997   4.472  48.258  1.00  0.00     0.001 A 
HETATM   21  C14 UNL     1      34.852   3.365  47.450  1.00  0.00     0.000 A 
HETATM   22  C15 UNL     1      34.041   3.491  46.335  1.00  0.00     0.001 A 
HETATM   23  C16 UNL     1      33.397   4.673  46.034  1.00  0.00     0.008 A 
ENDBRANCH  17  18
ENDBRANCH   3  17
TORSDOF 7
ENDMDL
MODEL 6
REMARK VINA RESULT:      -6.5      5.660      8.840
REMARK  7 active torsions:
REMARK  status: ('A' for Active; 'I' for Inactive)
REMARK    1  A    between atoms: C1_2  and  C2_3 
REMARK    2  A    between atoms: C2_3  and  O1_4 
REMARK    3  A    between atoms: O1_4  and  C3_5 
REMARK    4  A    between atoms: C8_10  and  N2_11 
REMARK    5  A    between atoms: C9_12  and  O2_13 
REMARK    6  A    between atoms: S1_14  and  C10_15 
REMARK    7  A    between atoms: C10_15  and  C11_16 
ROOT
HETATM    1  N2  UNL     1      31.210   5.513  47.994  1.00  0.00    -0.258 N 
HETATM    2  C9  UNL     1      30.526   5.825  49.016  1.00  0.00     0.203 A 
HETATM    3  S1  UNL     1      29.528   6.430  47.667  1.00  0.00    -0.036 SA
ENDROOT
BRANCH   1   4
HETATM    4  C8  UNL     1      32.442   4.855  47.939  1.00  0.00     0.081 A 
HETATM    5  C3  UNL     1      33.600   5.544  48.319  1.00  0.00     0.097 A 
HETATM    6  C4  UNL     1      34.835   4.898  48.269  1.00  0.00     0.039 A 
HETATM    7  C5  UNL     1      34.970   3.588  47.855  1.00  0.00     0.003 A 
HETATM    8  C6  UNL     1      33.829   2.893  47.475  1.00  0.00     0.002 A 
HETATM    9  C7  UNL     1      32.626   3.567  47.538  1.00  0.00     0.033 A 
BRANCH   5  10
HETATM   10  O1  UNL     1      33.534   6.875  48.750  1.00  0.00    -0.344 OA
BRANCH  10  11
HETATM   11  C2  UNL     1      33.648   7.922  47.805  1.00  0.00     0.222 C 
BRANCH  11  12
HETATM   12  C1  UNL     1      35.055   8.397  47.700  1.00  0.00     0.106 C 
HETATM   13  N1  UNL     1      35.979   8.558  48.554  1.00  0.00    -0.314 NA
HETATM   14  H1  UNL     1      35.830   8.347  49.550  1.00  0.00     0.185 HD
ENDBRANCH  11  12
ENDBRANCH  10  11
ENDBRANCH   5  10
ENDBRANCH   1   4
BRANCH   2  15
HETATM   15  O2  UNL     1      31.256   5.376  50.135  1.00  0.00    -0.339 OA
HETATM   16  H9  UNL     1      30.725   4.927  50.892  1.00  0.00     0.220 HD
ENDBRANCH   2  15
BRANCH   3  17
HETATM   17  C10 UNL     1      28.028   7.201  48.337  1.00  0.00     0.132 C 
BRANCH  17  18
HETATM   18  C11 UNL     1      26.989   6.207  48.667  1.00  0.00    -0.048 A 
HETATM   19  C12 UNL     1      25.632   6.455  48.727  1.00  0.00     0.008 A 
HETATM   20  C13 UNL     1      24.687   5.504  49.038  1.00  0.00     0.001 A 
HETATM   21  C14 UNL     1      25.076   4.211  49.314  1.00  0.00     0.000 A 
HETATM   22  C15 UNL     1      26.430   3.928  49.263  1.00  0.00     0.001 A 
HETATM   23  C16 UNL     1      27.363   4.893  48.950  1.00  0.00     0.008 A 
ENDBRANCH  17  18
ENDBRANCH   3  17
TORSDOF 7
ENDMDL
MODEL 7
REMARK VINA RESULT:      -6.5      1.704      6.657
REMARK  7 active torsions:
REMARK  status: ('A' for Active; 'I' for Inactive)
REMARK    1  A    between atoms: C1_2  and  C2_3 
REMARK    2  A    between atoms: C2_3  and  O1_4 
REMARK    3  A    between atoms: O1_4  and  C3_5 
REMARK    4  A    between atoms: C8_10  and  N2_11 
REMARK    5  A    between atoms: C9_12  and  O2_13 
REMARK    6  A    between atoms: S1_14  and  C10_15 
REMARK    7  A    between atoms: C10_15  and  C11_16 
ROOT
HETATM    1  N2  UNL     1      23.659   3.568  50.727  1.00  0.00    -0.258 N 
HETATM    2  C9  UNL     1      23.281   3.738  51.926  1.00  0.00     0.203 A 
HETATM    3  S1  UNL     1      22.116   2.539  51.305  1.00  0.00    -0.036 SA
ENDROOT
BRANCH   1   4
HETATM    4  C8  UNL     1      24.728   4.172  50.057  1.00  0.00     0.081 A 
HETATM    5  C3  UNL     1      25.977   3.538  50.055  1.00  0.00     0.097 A 
HETATM    6  C4  UNL     1      27.049   4.131  49.389  1.00  0.00     0.039 A 
HETATM    7  C5  UNL     1      26.934   5.334  48.721  1.00  0.00     0.003 A 
HETATM    8  C6  UNL     1      25.702   5.972  48.716  1.00  0.00     0.002 A 
HETATM    9  C7  UNL     1      24.664   5.355  49.386  1.00  0.00     0.033 A 
BRANCH   5  10
HETATM   10  O1  UNL     1      26.161   2.316  50.713  1.00  0.00    -0.344 OA
BRANCH  10  11
HETATM   11  C2  UNL     1      26.951   2.266  51.886  1.00  0.00     0.222 C 
BRANCH  11  12
HETATM   12  C1  UNL     1      27.120   0.864  52.358  1.00  0.00     0.106 C 
HETATM   13  N1  UNL     1      26.510  -0.216  52.094  1.00  0.00    -0.314 NA
HETATM   14  H1  UNL     1      25.722  -0.238  51.432  1.00  0.00     0.185 HD
ENDBRANCH  11  12
ENDBRANCH  10  11
ENDBRANCH   5  10
ENDBRANCH   1   4
BRANCH   2  15
HETATM   15  O2  UNL     1      24.162   4.682  52.490  1.00  0.00    -0.339 OA
HETATM   16  H9  UNL     1      24.100   5.648  52.144  1.00  0.00     0.220 HD
ENDBRANCH   2  15
BRANCH   3  17
HETATM   17  C10 UNL     1      20.943   2.113  52.624  1.00  0.00     0.132 C 
BRANCH  17  18
HETATM   18  C11 UNL     1      21.247   0.808  53.240  1.00  0.00    -0.048 A 
HETATM   19  C12 UNL     1      20.313  -0.116  53.665  1.00  0.00     0.008 A 
HETATM   20  C13 UNL     1      20.628  -1.327  54.237  1.00  0.00     0.001 A 
HETATM   21  C14 UNL     1      21.949  -1.681  54.415  1.00  0.00     0.000 A 
HETATM   22  C15 UNL     1      22.912  -0.777  54.000  1.00  0.00     0.001 A 
HETATM   23  C16 UNL     1      22.577   0.432  53.429  1.00  0.00     0.008 A 
ENDBRANCH  17  18
ENDBRANCH   3  17
TORSDOF 7
ENDMDL
MODEL 8
REMARK VINA RESULT:      -6.3      1.329      2.194
REMARK  7 active torsions:
REMARK  status: ('A' for Active; 'I' for Inactive)
REMARK    1  A    between atoms: C1_2  and  C2_3 
REMARK    2  A    between atoms: C2_3  and  O1_4 
REMARK    3  A    between atoms: O1_4  and  C3_5 
REMARK    4  A    between atoms: C8_10  and  N2_11 
REMARK    5  A    between atoms: C9_12  and  O2_13 
REMARK    6  A    between atoms: S1_14  and  C10_15 
REMARK    7  A    between atoms: C10_15  and  C11_16 
ROOT
HETATM    1  N2  UNL     1      24.729   2.340  51.171  1.00  0.00    -0.258 N 
HETATM    2  C9  UNL     1      24.993   3.555  51.422  1.00  0.00     0.203 A 
HETATM    3  S1  UNL     1      25.561   3.360  49.742  1.00  0.00    -0.036 SA
ENDROOT
BRANCH   1   4
HETATM    4  C8  UNL     1      24.137   1.387  52.007  1.00  0.00     0.081 A 
HETATM    5  C3  UNL     1      24.953   0.463  52.672  1.00  0.00     0.097 A 
HETATM    6  C4  UNL     1      24.373  -0.491  53.508  1.00  0.00     0.039 A 
HETATM    7  C5  UNL     1      23.010  -0.567  53.713  1.00  0.00     0.003 A 
HETATM    8  C6  UNL     1      22.191   0.344  53.060  1.00  0.00     0.002 A 
HETATM    9  C7  UNL     1      22.801   1.273  52.241  1.00  0.00     0.033 A 
BRANCH   5  10
HETATM   10  O1  UNL     1      26.343   0.486  52.507  1.00  0.00    -0.344 OA
BRANCH  10  11
HETATM   11  C2  UNL     1      27.176   0.732  53.625  1.00  0.00     0.222 C 
BRANCH  11  12
HETATM   12  C1  UNL     1      27.689   2.130  53.611  1.00  0.00     0.106 C 
HETATM   13  N1  UNL     1      28.396   2.783  52.785  1.00  0.00    -0.314 NA
HETATM   14  H1  UNL     1      28.736   2.353  51.915  1.00  0.00     0.185 HD
ENDBRANCH  11  12
ENDBRANCH  10  11
ENDBRANCH   5  10
ENDBRANCH   1   4
BRANCH   2  15
HETATM   15  O2  UNL     1      24.570   3.789  52.745  1.00  0.00    -0.339 OA
HETATM   16  H9  UNL     1      23.650   3.418  53.017  1.00  0.00     0.220 HD
ENDBRANCH   2  15
BRANCH   3  17
HETATM   17  C10 UNL     1      26.245   4.938  49.160  1.00  0.00     0.132 C 
BRANCH  17  18
HETATM   18  C11 UNL     1      25.274   6.043  49.273  1.00  0.00    -0.048 A 
HETATM   19  C12 UNL     1      24.176   6.233  48.458  1.00  0.00     0.008 A 
HETATM   20  C13 UNL     1      23.288   7.276  48.590  1.00  0.00     0.001 A 
HETATM   21  C14 UNL     1      23.468   8.212  49.585  1.00  0.00     0.000 A 
HETATM   22  C15 UNL     1      24.560   8.052  50.421  1.00  0.00     0.001 A 
HETATM   23  C16 UNL     1      25.441   7.001  50.273  1.00  0.00     0.008 A 
ENDBRANCH  17  18
ENDBRANCH   3  17
TORSDOF 7
ENDMDL
MODEL 9
REMARK VINA RESULT:      -6.2      2.871      7.032
REMARK  7 active torsions:
REMARK  status: ('A' for Active; 'I' for Inactive)
REMARK    1  A    between atoms: C1_2  and  C2_3 
REMARK    2  A    between atoms: C2_3  and  O1_4 
REMARK    3  A    between atoms: O1_4  and  C3_5 
REMARK    4  A    between atoms: C8_10  and  N2_11 
REMARK    5  A    between atoms: C9_12  and  O2_13 
REMARK    6  A    between atoms: S1_14  and  C10_15 
REMARK    7  A    between atoms: C10_15  and  C11_16 
ROOT
HETATM    1  N2  UNL     1      23.434   1.483  51.789  1.00  0.00    -0.258 N 
HETATM    2  C9  UNL     1      22.573   1.877  52.634  1.00  0.00     0.203 A 
HETATM    3  S1  UNL     1      22.353   0.107  52.632  1.00  0.00    -0.036 SA
ENDROOT
BRANCH   1   4
HETATM    4  C8  UNL     1      24.335   2.249  51.043  1.00  0.00     0.081 A 
HETATM    5  C3  UNL     1      25.667   2.341  51.467  1.00  0.00     0.097 A 
HETATM    6  C4  UNL     1      26.574   3.101  50.730  1.00  0.00     0.039 A 
HETATM    7  C5  UNL     1      26.214   3.779  49.582  1.00  0.00     0.003 A 
HETATM    8  C6  UNL     1      24.897   3.696  49.151  1.00  0.00     0.002 A 
HETATM    9  C7  UNL     1      24.029   2.934  49.906  1.00  0.00     0.033 A 
BRANCH   5  10
HETATM   10  O1  UNL     1      26.098   1.678  52.623  1.00  0.00    -0.344 OA
BRANCH  10  11
HETATM   11  C2  UNL     1      27.296   0.925  52.591  1.00  0.00     0.222 C 
BRANCH  11  12
HETATM   12  C1  UNL     1      28.348   1.557  53.435  1.00  0.00     0.106 C 
HETATM   13  N1  UNL     1      29.038   2.614  53.308  1.00  0.00    -0.314 NA
HETATM   14  H1  UNL     1      28.927   3.231  52.492  1.00  0.00     0.185 HD
ENDBRANCH  11  12
ENDBRANCH  10  11
ENDBRANCH   5  10
ENDBRANCH   1   4
BRANCH   2  15
HETATM   15  O2  UNL     1      22.687   3.280  52.692  1.00  0.00    -0.339 OA
HETATM   16  H9  UNL     1      22.635   3.718  53.621  1.00  0.00     0.220 HD
ENDBRANCH   2  15
BRANCH   3  17
HETATM   17  C10 UNL     1      21.034  -0.327  53.801  1.00  0.00     0.132 C 
BRANCH  17  18
HETATM   18  C11 UNL     1      19.727  -0.485  53.136  1.00  0.00    -0.048 A 
HETATM   19  C12 UNL     1      18.704  -1.307  53.562  1.00  0.00     0.008 A 
HETATM   20  C13 UNL     1      17.493  -1.432  52.917  1.00  0.00     0.001 A 
HETATM   21  C14 UNL     1      17.246  -0.707  51.771  1.00  0.00     0.000 A 
HETATM   22  C15 UNL     1      18.252   0.129  51.316  1.00  0.00     0.001 A 
HETATM   23  C16 UNL     1      19.458   0.240  51.974  1.00  0.00     0.008 A 
ENDBRANCH  17  18
ENDBRANCH   3  17
TORSDOF 7
ENDMDL
