MODEL 1
REMARK VINA RESULT:      -7.8      0.000      0.000
REMARK  6 active torsions:
REMARK  status: ('A' for Active; 'I' for Inactive)
REMARK    1  A    between atoms: C2_2  and  C3_3 
REMARK    2  A    between atoms: C3_3  and  N1_4 
REMARK    3  A    between atoms: N1_4  and  C4_5 
REMARK    4  A    between atoms: N2_6  and  C5_7 
REMARK    5  A    between atoms: C5_7  and  N3_8 
REMARK    6  A    between atoms: N3_8  and  C6_9 
ROOT
HETATM    1  C6  UNL     1      24.811   2.097  52.841  1.00  0.00     0.270 C 
HETATM    2  C7  UNL     1      24.888   2.948  51.623  1.00  0.00     0.034 C 
HETATM    3  C8  UNL     1      24.159   2.945  50.521  1.00  0.00     0.132 C 
HETATM    4  O1  UNL     1      23.103   2.258  49.994  1.00  0.00    -0.363 OA
HETATM    5  C9  UNL     1      21.895   2.849  49.548  1.00  0.00     0.176 C 
HETATM    6  C10 UNL     1      20.963   1.780  49.083  1.00  0.00     0.049 C 
HETATM    7  C11 UNL     1      19.641   2.328  48.596  1.00  0.00     0.159 C 
HETATM    8  N4  UNL     1      18.930   3.085  49.538  1.00  0.00    -0.265 NA
HETATM    9  S1  UNL     1      17.794   2.547  50.430  1.00  0.00    -0.088 SA
HETATM   10  C12 UNL     1      17.113   3.811  51.519  1.00  0.00     0.108 C 
HETATM   11  C13 UNL     1      18.148   1.066  51.302  1.00  0.00     0.056 C 
HETATM   12  C14 UNL     1      18.939   0.262  51.972  1.00  0.00     0.011 C 
HETATM   13  C15 UNL     1      20.210  -0.025  52.536  1.00  0.00     0.044 C 
HETATM   14  C16 UNL     1      21.386  -0.205  53.013  1.00  0.00     0.134 C 
HETATM   15  F1  UNL     1      21.131  -1.397  53.544  1.00  0.00    -0.205 F 
HETATM   16  C17 UNL     1      22.679   0.392  53.100  1.00  0.00     0.055 A 
HETATM   17 CL1  UNL     1      23.846  -0.500  54.022  1.00  0.00    -0.170 Cl
HETATM   18  C18 UNL     1      23.620   1.259  52.922  1.00  0.00     0.155 A 
ENDROOT
BRANCH   1  19
HETATM   19  N3  UNL     1      26.045   1.358  53.040  1.00  0.00     0.112 N 
HETATM   20  H8  UNL     1      25.899   0.338  53.032  1.00  0.00     0.319 HD
BRANCH  19  21
HETATM   21  C5  UNL     1      27.089   1.684  52.127  1.00  0.00     0.420 C 
BRANCH  21  22
HETATM   22  N2  UNL     1      28.147   2.478  52.718  1.00  0.00    -0.252 NA
HETATM   23  C4  UNL     1      28.776   2.162  53.776  1.00  0.00     0.238 C 
BRANCH  23  24
HETATM   24  N1  UNL     1      28.557   1.011  54.541  1.00  0.00    -0.204 NA
BRANCH  24  25
HETATM   25  C3  UNL     1      29.157  -0.091  54.235  1.00  0.00    -0.038 C 
BRANCH  25  26
HETATM   26  C2  UNL     1      29.924  -1.048  53.735  1.00  0.00     0.089 C 
HETATM   27  C1  UNL     1      29.154  -2.210  53.219  1.00  0.00     0.025 C 
ENDBRANCH  25  26
ENDBRANCH  24  25
ENDBRANCH  23  24
ENDBRANCH  21  22
ENDBRANCH  19  21
ENDBRANCH   1  19
TORSDOF 6
ENDMDL
MODEL 2
REMARK VINA RESULT:      -7.5      2.875      7.399
REMARK  6 active torsions:
REMARK  status: ('A' for Active; 'I' for Inactive)
REMARK    1  A    between atoms: C2_2  and  C3_3 
REMARK    2  A    between atoms: C3_3  and  N1_4 
REMARK    3  A    between atoms: N1_4  and  C4_5 
REMARK    4  A    between atoms: N2_6  and  C5_7 
REMARK    5  A    between atoms: C5_7  and  N3_8 
REMARK    6  A    between atoms: N3_8  and  C6_9 
ROOT
HETATM    1  C6  UNL     1      21.301   1.525  48.451  1.00  0.00     0.270 C 
HETATM    2  C7  UNL     1      22.457   2.417  48.165  1.00  0.00     0.034 C 
HETATM    3  C8  UNL     1      23.372   2.928  48.969  1.00  0.00     0.132 C 
HETATM    4  O1  UNL     1      23.694   2.911  50.296  1.00  0.00    -0.363 OA
HETATM    5  C9  UNL     1      24.950   2.518  50.819  1.00  0.00     0.176 C 
HETATM    6  C10 UNL     1      24.909   2.584  52.309  1.00  0.00     0.049 C 
HETATM    7  C11 UNL     1      26.214   2.171  52.950  1.00  0.00     0.159 C 
HETATM    8  N4  UNL     1      26.650   0.878  52.628  1.00  0.00    -0.265 NA
HETATM    9  S1  UNL     1      26.419  -0.375  53.494  1.00  0.00    -0.088 SA
HETATM   10  C12 UNL     1      27.123  -1.862  52.760  1.00  0.00     0.108 C 
HETATM   11  C13 UNL     1      24.769  -0.638  54.029  1.00  0.00     0.056 C 
HETATM   12  C14 UNL     1      23.468  -0.617  53.865  1.00  0.00     0.011 C 
HETATM   13  C15 UNL     1      22.334  -0.342  53.056  1.00  0.00     0.044 C 
HETATM   14  C16 UNL     1      21.366  -0.065  52.261  1.00  0.00     0.134 C 
HETATM   15  F1  UNL     1      20.401  -0.428  53.100  1.00  0.00    -0.205 F 
HETATM   16  C17 UNL     1      21.077   0.459  50.966  1.00  0.00     0.055 A 
HETATM   17 CL1  UNL     1      19.396   0.491  50.540  1.00  0.00    -0.170 Cl
HETATM   18  C18 UNL     1      21.287   0.962  49.795  1.00  0.00     0.155 A 
ENDROOT
BRANCH   1  19
HETATM   19  N3  UNL     1      20.049   2.161  48.084  1.00  0.00     0.112 N 
HETATM   20  H8  UNL     1      19.523   2.499  48.903  1.00  0.00     0.319 HD
BRANCH  19  21
HETATM   21  C5  UNL     1      20.172   3.222  47.141  1.00  0.00     0.420 C 
BRANCH  21  22
HETATM   22  N2  UNL     1      19.276   4.331  47.399  1.00  0.00    -0.252 NA
HETATM   23  C4  UNL     1      19.421   5.167  48.346  1.00  0.00     0.238 C 
BRANCH  23  24
HETATM   24  N1  UNL     1      20.456   5.158  49.287  1.00  0.00    -0.204 NA
BRANCH  24  25
HETATM   25  C3  UNL     1      20.242   4.703  50.476  1.00  0.00    -0.038 C 
BRANCH  25  26
HETATM   26  C2  UNL     1      19.994   3.977  51.556  1.00  0.00     0.089 C 
HETATM   27  C1  UNL     1      21.197   3.743  52.398  1.00  0.00     0.025 C 
ENDBRANCH  25  26
ENDBRANCH  24  25
ENDBRANCH  23  24
ENDBRANCH  21  22
ENDBRANCH  19  21
ENDBRANCH   1  19
TORSDOF 6
ENDMDL
MODEL 3
REMARK VINA RESULT:      -7.4      2.088      2.744
REMARK  6 active torsions:
REMARK  status: ('A' for Active; 'I' for Inactive)
REMARK    1  A    between atoms: C2_2  and  C3_3 
REMARK    2  A    between atoms: C3_3  and  N1_4 
REMARK    3  A    between atoms: N1_4  and  C4_5 
REMARK    4  A    between atoms: N2_6  and  C5_7 
REMARK    5  A    between atoms: C5_7  and  N3_8 
REMARK    6  A    between atoms: N3_8  and  C6_9 
ROOT
HETATM    1  C6  UNL     1      22.643   0.601  53.462  1.00  0.00     0.270 C 
HETATM    2  C7  UNL     1      22.775   1.554  52.327  1.00  0.00     0.034 C 
HETATM    3  C8  UNL     1      22.019   1.733  51.259  1.00  0.00     0.132 C 
HETATM    4  O1  UNL     1      20.881   1.215  50.712  1.00  0.00    -0.363 OA
HETATM    5  C9  UNL     1      19.731   1.969  50.371  1.00  0.00     0.176 C 
HETATM    6  C10 UNL     1      18.677   1.053  49.845  1.00  0.00     0.049 C 
HETATM    7  C11 UNL     1      17.407   1.780  49.463  1.00  0.00     0.159 C 
HETATM    8  N4  UNL     1      16.809   2.511  50.498  1.00  0.00    -0.265 NA
HETATM    9  S1  UNL     1      15.648   2.011  51.381  1.00  0.00    -0.088 SA
HETATM   10  C12 UNL     1      15.139   3.227  52.608  1.00  0.00     0.108 C 
HETATM   11  C13 UNL     1      15.866   0.423  52.095  1.00  0.00     0.056 C 
HETATM   12  C14 UNL     1      16.586  -0.520  52.656  1.00  0.00     0.011 C 
HETATM   13  C15 UNL     1      17.835  -0.991  53.141  1.00  0.00     0.044 C 
HETATM   14  C16 UNL     1      18.998  -1.338  53.553  1.00  0.00     0.134 C 
HETATM   15  F1  UNL     1      18.632  -2.542  53.979  1.00  0.00    -0.205 F 
HETATM   16  C17 UNL     1      20.349  -0.889  53.644  1.00  0.00     0.055 A 
HETATM   17 CL1  UNL     1      21.440  -1.983  54.433  1.00  0.00    -0.170 Cl
HETATM   18  C18 UNL     1      21.372  -0.112  53.511  1.00  0.00     0.155 A 
ENDROOT
BRANCH   1  19
HETATM   19  N3  UNL     1      23.796  -0.278  53.543  1.00  0.00     0.112 N 
HETATM   20  H8  UNL     1      23.697  -1.113  52.948  1.00  0.00     0.319 HD
BRANCH  19  21
HETATM   21  C5  UNL     1      25.044   0.348  53.261  1.00  0.00     0.420 C 
BRANCH  21  22
HETATM   22  N2  UNL     1      25.974  -0.510  52.554  1.00  0.00    -0.252 NA
HETATM   23  C4  UNL     1      27.075  -0.925  53.035  1.00  0.00     0.238 C 
BRANCH  23  24
HETATM   24  N1  UNL     1      27.571  -0.627  54.309  1.00  0.00    -0.204 NA
BRANCH  24  25
HETATM   25  C3  UNL     1      28.485   0.275  54.450  1.00  0.00    -0.038 C 
BRANCH  25  26
HETATM   26  C2  UNL     1      29.217   1.378  54.478  1.00  0.00     0.089 C 
HETATM   27  C1  UNL     1      28.693   2.457  53.599  1.00  0.00     0.025 C 
ENDBRANCH  25  26
ENDBRANCH  24  25
ENDBRANCH  23  24
ENDBRANCH  21  22
ENDBRANCH  19  21
ENDBRANCH   1  19
TORSDOF 6
ENDMDL
MODEL 4
REMARK VINA RESULT:      -7.3      4.221      5.754
REMARK  6 active torsions:
REMARK  status: ('A' for Active; 'I' for Inactive)
REMARK    1  A    between atoms: C2_2  and  C3_3 
REMARK    2  A    between atoms: C3_3  and  N1_4 
REMARK    3  A    between atoms: N1_4  and  C4_5 
REMARK    4  A    between atoms: N2_6  and  C5_7 
REMARK    5  A    between atoms: C5_7  and  N3_8 
REMARK    6  A    between atoms: N3_8  and  C6_9 
ROOT
HETATM    1  C6  UNL     1      23.878   2.362  51.872  1.00  0.00     0.270 C 
HETATM    2  C7  UNL     1      22.640   3.038  52.343  1.00  0.00     0.034 C 
HETATM    3  C8  UNL     1      22.277   4.307  52.293  1.00  0.00     0.132 C 
HETATM    4  O1  UNL     1      22.775   5.497  51.846  1.00  0.00    -0.363 OA
HETATM    5  C9  UNL     1      22.123   6.353  50.925  1.00  0.00     0.176 C 
HETATM    6  C10 UNL     1      22.994   7.532  50.642  1.00  0.00     0.049 C 
HETATM    7  C11 UNL     1      22.373   8.496  49.657  1.00  0.00     0.159 C 
HETATM    8  N4  UNL     1      22.047   7.943  48.411  1.00  0.00    -0.265 NA
HETATM    9  S1  UNL     1      22.929   8.022  47.149  1.00  0.00    -0.088 SA
HETATM   10  C12 UNL     1      22.184   7.196  45.733  1.00  0.00     0.108 C 
HETATM   11  C13 UNL     1      24.606   7.554  47.362  1.00  0.00     0.056 C 
HETATM   12  C14 UNL     1      25.559   6.812  47.876  1.00  0.00     0.011 C 
HETATM   13  C15 UNL     1      25.968   5.744  48.717  1.00  0.00     0.044 C 
HETATM   14  C16 UNL     1      26.251   4.767  49.497  1.00  0.00     0.134 C 
HETATM   15  F1  UNL     1      27.565   4.824  49.306  1.00  0.00    -0.205 F 
HETATM   16  C17 UNL     1      25.663   3.816  50.383  1.00  0.00     0.055 A 
HETATM   17 CL1  UNL     1      26.771   2.692  51.103  1.00  0.00    -0.170 Cl
HETATM   18  C18 UNL     1      24.746   3.192  51.045  1.00  0.00     0.155 A 
ENDROOT
BRANCH   1  19
HETATM   19  N3  UNL     1      24.577   1.726  52.975  1.00  0.00     0.112 N 
HETATM   20  H8  UNL     1      24.158   1.951  53.889  1.00  0.00     0.319 HD
BRANCH  19  21
HETATM   21  C5  UNL     1      24.710   0.312  52.860  1.00  0.00     0.420 C 
BRANCH  21  22
HETATM   22  N2  UNL     1      25.058  -0.338  54.107  1.00  0.00    -0.252 NA
HETATM   23  C4  UNL     1      26.070  -0.040  54.815  1.00  0.00     0.238 C 
BRANCH  23  24
HETATM   24  N1  UNL     1      27.010   0.953  54.514  1.00  0.00    -0.204 NA
BRANCH  24  25
HETATM   25  C3  UNL     1      28.172   0.624  54.059  1.00  0.00    -0.038 C 
BRANCH  25  26
HETATM   26  C2  UNL     1      29.463   0.461  53.808  1.00  0.00     0.089 C 
HETATM   27  C1  UNL     1      29.843  -0.956  53.569  1.00  0.00     0.025 C 
ENDBRANCH  25  26
ENDBRANCH  24  25
ENDBRANCH  23  24
ENDBRANCH  21  22
ENDBRANCH  19  21
ENDBRANCH   1  19
TORSDOF 6
ENDMDL
MODEL 5
REMARK VINA RESULT:      -7.1      5.416      8.406
REMARK  6 active torsions:
REMARK  status: ('A' for Active; 'I' for Inactive)
REMARK    1  A    between atoms: C2_2  and  C3_3 
REMARK    2  A    between atoms: C3_3  and  N1_4 
REMARK    3  A    between atoms: N1_4  and  C4_5 
REMARK    4  A    between atoms: N2_6  and  C5_7 
REMARK    5  A    between atoms: C5_7  and  N3_8 
REMARK    6  A    between atoms: N3_8  and  C6_9 
ROOT
HETATM    1  C6  UNL     1      22.408   5.519  50.221  1.00  0.00     0.270 C 
HETATM    2  C7  UNL     1      22.308   6.984  50.458  1.00  0.00     0.034 C 
HETATM    3  C8  UNL     1      23.248   7.894  50.642  1.00  0.00     0.132 C 
HETATM    4  O1  UNL     1      24.610   7.962  50.702  1.00  0.00    -0.363 OA
HETATM    5  C9  UNL     1      25.415   8.798  49.890  1.00  0.00     0.176 C 
HETATM    6  C10 UNL     1      26.854   8.561  50.209  1.00  0.00     0.049 C 
HETATM    7  C11 UNL     1      27.786   9.413  49.377  1.00  0.00     0.159 C 
HETATM    8  N4  UNL     1      27.661   9.248  47.991  1.00  0.00    -0.265 NA
HETATM    9  S1  UNL     1      28.550   8.336  47.124  1.00  0.00    -0.088 SA
HETATM   10  C12 UNL     1      28.094   8.380  45.382  1.00  0.00     0.108 C 
HETATM   11  C13 UNL     1      28.741   6.689  47.700  1.00  0.00     0.056 C 
HETATM   12  C14 UNL     1      28.303   5.587  48.260  1.00  0.00     0.011 C 
HETATM   13  C15 UNL     1      27.253   4.848  48.868  1.00  0.00     0.044 C 
HETATM   14  C16 UNL     1      26.254   4.253  49.407  1.00  0.00     0.134 C 
HETATM   15  F1  UNL     1      26.893   3.112  49.644  1.00  0.00    -0.205 F 
HETATM   16  C17 UNL     1      24.891   4.442  49.786  1.00  0.00     0.055 A 
HETATM   17 CL1  UNL     1      24.118   3.053  50.480  1.00  0.00    -0.170 Cl
HETATM   18  C18 UNL     1      23.758   5.038  49.948  1.00  0.00     0.155 A 
ENDROOT
BRANCH   1  19
HETATM   19  N3  UNL     1      21.738   4.773  51.272  1.00  0.00     0.112 N 
HETATM   20  H8  UNL     1      21.783   5.250  52.184  1.00  0.00     0.319 HD
BRANCH  19  21
HETATM   21  C5  UNL     1      20.382   4.436  50.991  1.00  0.00     0.420 C 
BRANCH  21  22
HETATM   22  N2  UNL     1      19.755   3.650  52.034  1.00  0.00    -0.252 NA
HETATM   23  C4  UNL     1      20.131   2.486  52.381  1.00  0.00     0.238 C 
BRANCH  23  24
HETATM   24  N1  UNL     1      21.198   1.775  51.822  1.00  0.00    -0.204 NA
BRANCH  24  25
HETATM   25  C3  UNL     1      21.890   0.968  52.555  1.00  0.00    -0.038 C 
BRANCH  25  26
HETATM   26  C2  UNL     1      22.432   0.248  53.525  1.00  0.00     0.089 C 
HETATM   27  C1  UNL     1      23.888   0.008  53.339  1.00  0.00     0.025 C 
ENDBRANCH  25  26
ENDBRANCH  24  25
ENDBRANCH  23  24
ENDBRANCH  21  22
ENDBRANCH  19  21
ENDBRANCH   1  19
TORSDOF 6
ENDMDL
MODEL 6
REMARK VINA RESULT:      -7.1      4.896      6.025
REMARK  6 active torsions:
REMARK  status: ('A' for Active; 'I' for Inactive)
REMARK    1  A    between atoms: C2_2  and  C3_3 
REMARK    2  A    between atoms: C3_3  and  N1_4 
REMARK    3  A    between atoms: N1_4  and  C4_5 
REMARK    4  A    between atoms: N2_6  and  C5_7 
REMARK    5  A    between atoms: C5_7  and  N3_8 
REMARK    6  A    between atoms: N3_8  and  C6_9 
ROOT
HETATM    1  C6  UNL     1      26.261   5.065  49.181  1.00  0.00     0.270 C 
HETATM    2  C7  UNL     1      26.798   3.727  49.545  1.00  0.00     0.034 C 
HETATM    3  C8  UNL     1      26.425   2.873  50.482  1.00  0.00     0.132 C 
HETATM    4  O1  UNL     1      25.484   2.781  51.467  1.00  0.00    -0.363 OA
HETATM    5  C9  UNL     1      24.546   1.728  51.595  1.00  0.00     0.176 C 
HETATM    6  C10 UNL     1      23.654   1.997  52.760  1.00  0.00     0.049 C 
HETATM    7  C11 UNL     1      22.613   0.920  52.963  1.00  0.00     0.159 C 
HETATM    8  N4  UNL     1      21.768   0.698  51.867  1.00  0.00    -0.265 NA
HETATM    9  S1  UNL     1      20.362   1.307  51.695  1.00  0.00    -0.088 SA
HETATM   10  C12 UNL     1      19.571   0.797  50.160  1.00  0.00     0.108 C 
HETATM   11  C13 UNL     1      20.249   3.041  51.936  1.00  0.00     0.056 C 
HETATM   12  C14 UNL     1      20.700   4.269  51.833  1.00  0.00     0.011 C 
HETATM   13  C15 UNL     1      21.705   5.181  51.412  1.00  0.00     0.044 C 
HETATM   14  C16 UNL     1      22.658   5.933  51.003  1.00  0.00     0.134 C 
HETATM   15  F1  UNL     1      22.105   7.074  51.401  1.00  0.00    -0.205 F 
HETATM   16  C17 UNL     1      23.939   5.900  50.374  1.00  0.00     0.055 A 
HETATM   17 CL1  UNL     1      24.661   7.450  50.085  1.00  0.00    -0.170 Cl
HETATM   18  C18 UNL     1      24.997   5.408  49.822  1.00  0.00     0.155 A 
ENDROOT
BRANCH   1  19
HETATM   19  N3  UNL     1      27.275   6.093  49.331  1.00  0.00     0.112 N 
HETATM   20  H8  UNL     1      28.050   5.797  49.943  1.00  0.00     0.319 HD
BRANCH  19  21
HETATM   21  C5  UNL     1      27.814   6.583  48.106  1.00  0.00     0.420 C 
BRANCH  21  22
HETATM   22  N2  UNL     1      29.112   7.210  48.255  1.00  0.00    -0.252 NA
HETATM   23  C4  UNL     1      30.215   6.579  48.282  1.00  0.00     0.238 C 
BRANCH  23  24
HETATM   24  N1  UNL     1      30.363   5.192  48.177  1.00  0.00    -0.204 NA
BRANCH  24  25
HETATM   25  C3  UNL     1      31.290   4.697  47.427  1.00  0.00    -0.038 C 
BRANCH  25  26
HETATM   26  C2  UNL     1      32.331   4.063  46.909  1.00  0.00     0.089 C 
HETATM   27  C1  UNL     1      32.072   2.624  46.642  1.00  0.00     0.025 C 
ENDBRANCH  25  26
ENDBRANCH  24  25
ENDBRANCH  23  24
ENDBRANCH  21  22
ENDBRANCH  19  21
ENDBRANCH   1  19
TORSDOF 6
ENDMDL
MODEL 7
REMARK VINA RESULT:      -6.9      7.721     10.267
REMARK  6 active torsions:
REMARK  status: ('A' for Active; 'I' for Inactive)
REMARK    1  A    between atoms: C2_2  and  C3_3 
REMARK    2  A    between atoms: C3_3  and  N1_4 
REMARK    3  A    between atoms: N1_4  and  C4_5 
REMARK    4  A    between atoms: N2_6  and  C5_7 
REMARK    5  A    between atoms: C5_7  and  N3_8 
REMARK    6  A    between atoms: N3_8  and  C6_9 
ROOT
HETATM    1  C6  UNL     1      25.671   6.857  49.416  1.00  0.00     0.270 C 
HETATM    2  C7  UNL     1      25.619   8.250  49.936  1.00  0.00     0.034 C 
HETATM    3  C8  UNL     1      26.583   9.128  50.148  1.00  0.00     0.132 C 
HETATM    4  O1  UNL     1      27.940   9.209  50.021  1.00  0.00    -0.363 OA
HETATM    5  C9  UNL     1      28.624  10.198  49.272  1.00  0.00     0.176 C 
HETATM    6  C10 UNL     1      30.092   9.933  49.328  1.00  0.00     0.049 C 
HETATM    7  C11 UNL     1      30.899  10.943  48.544  1.00  0.00     0.159 C 
HETATM    8  N4  UNL     1      30.570  11.039  47.184  1.00  0.00    -0.265 NA
HETATM    9  S1  UNL     1      31.314  10.322  46.041  1.00  0.00    -0.088 SA
HETATM   10  C12 UNL     1      30.608  10.683  44.424  1.00  0.00     0.108 C 
HETATM   11  C13 UNL     1      31.574   8.601  46.263  1.00  0.00     0.056 C 
HETATM   12  C14 UNL     1      31.213   7.405  46.664  1.00  0.00     0.011 C 
HETATM   13  C15 UNL     1      30.258   6.545  47.268  1.00  0.00     0.044 C 
HETATM   14  C16 UNL     1      29.344   5.841  47.826  1.00  0.00     0.134 C 
HETATM   15  F1  UNL     1      30.001   4.688  47.748  1.00  0.00    -0.205 F 
HETATM   16  C17 UNL     1      28.054   5.929  48.428  1.00  0.00     0.055 A 
HETATM   17 CL1  UNL     1      27.378   4.420  48.954  1.00  0.00    -0.170 Cl
HETATM   18  C18 UNL     1      26.961   6.463  48.863  1.00  0.00     0.155 A 
ENDROOT
BRANCH   1  19
HETATM   19  N3  UNL     1      25.156   5.915  50.394  1.00  0.00     0.112 N 
HETATM   20  H8  UNL     1      25.266   6.251  51.362  1.00  0.00     0.319 HD
BRANCH  19  21
HETATM   21  C5  UNL     1      23.800   5.525  50.190  1.00  0.00     0.420 C 
BRANCH  21  22
HETATM   22  N2  UNL     1      23.661   4.249  49.518  1.00  0.00    -0.252 NA
HETATM   23  C4  UNL     1      23.947   3.127  50.042  1.00  0.00     0.238 C 
BRANCH  23  24
HETATM   24  N1  UNL     1      24.441   2.935  51.337  1.00  0.00    -0.204 NA
BRANCH  24  25
HETATM   25  C3  UNL     1      25.463   2.171  51.531  1.00  0.00    -0.038 C 
BRANCH  25  26
HETATM   26  C2  UNL     1      26.630   1.544  51.509  1.00  0.00     0.089 C 
HETATM   27  C1  UNL     1      26.556   0.144  52.005  1.00  0.00     0.025 C 
ENDBRANCH  25  26
ENDBRANCH  24  25
ENDBRANCH  23  24
ENDBRANCH  21  22
ENDBRANCH  19  21
ENDBRANCH   1  19
TORSDOF 6
ENDMDL
MODEL 8
REMARK VINA RESULT:      -6.8      6.301      8.536
REMARK  6 active torsions:
REMARK  status: ('A' for Active; 'I' for Inactive)
REMARK    1  A    between atoms: C2_2  and  C3_3 
REMARK    2  A    between atoms: C3_3  and  N1_4 
REMARK    3  A    between atoms: N1_4  and  C4_5 
REMARK    4  A    between atoms: N2_6  and  C5_7 
REMARK    5  A    between atoms: C5_7  and  N3_8 
REMARK    6  A    between atoms: N3_8  and  C6_9 
ROOT
HETATM    1  C6  UNL     1      24.288   4.883  49.937  1.00  0.00     0.270 C 
HETATM    2  C7  UNL     1      23.731   6.135  50.515  1.00  0.00     0.034 C 
HETATM    3  C8  UNL     1      24.302   7.300  50.762  1.00  0.00     0.132 C 
HETATM    4  O1  UNL     1      25.528   7.886  50.636  1.00  0.00    -0.363 OA
HETATM    5  C9  UNL     1      25.783   9.086  49.928  1.00  0.00     0.176 C 
HETATM    6  C10 UNL     1      27.244   9.386  49.971  1.00  0.00     0.049 C 
HETATM    7  C11 UNL     1      27.604  10.653  49.228  1.00  0.00     0.159 C 
HETATM    8  N4  UNL     1      27.240  10.671  47.875  1.00  0.00    -0.265 NA
HETATM    9  S1  UNL     1      28.178  10.327  46.701  1.00  0.00    -0.088 SA
HETATM   10  C12 UNL     1      27.361  10.460  45.102  1.00  0.00     0.108 C 
HETATM   11  C13 UNL     1      29.064   8.819  46.851  1.00  0.00     0.056 C 
HETATM   12  C14 UNL     1      29.182   7.561  47.203  1.00  0.00     0.011 C 
HETATM   13  C15 UNL     1      28.626   6.385  47.772  1.00  0.00     0.044 C 
HETATM   14  C16 UNL     1      28.048   5.370  48.301  1.00  0.00     0.134 C 
HETATM   15  F1  UNL     1      29.086   4.549  48.175  1.00  0.00    -0.205 F 
HETATM   16  C17 UNL     1      26.828   4.947  48.908  1.00  0.00     0.055 A 
HETATM   17 CL1  UNL     1      26.772   3.277  49.372  1.00  0.00    -0.170 Cl
HETATM   18  C18 UNL     1      25.623   5.019  49.367  1.00  0.00     0.155 A 
ENDROOT
BRANCH   1  19
HETATM   19  N3  UNL     1      24.177   3.780  50.876  1.00  0.00     0.112 N 
HETATM   20  H8  UNL     1      24.975   3.734  51.526  1.00  0.00     0.319 HD
BRANCH  19  21
HETATM   21  C5  UNL     1      22.966   3.755  51.626  1.00  0.00     0.420 C 
BRANCH  21  22
HETATM   22  N2  UNL     1      22.708   2.480  52.263  1.00  0.00    -0.252 NA
HETATM   23  C4  UNL     1      23.537   1.868  53.007  1.00  0.00     0.238 C 
BRANCH  23  24
HETATM   24  N1  UNL     1      24.823   2.314  53.331  1.00  0.00    -0.204 NA
BRANCH  24  25
HETATM   25  C3  UNL     1      25.842   1.550  53.121  1.00  0.00    -0.038 C 
BRANCH  25  26
HETATM   26  C2  UNL     1      26.938   0.950  52.680  1.00  0.00     0.089 C 
HETATM   27  C1  UNL     1      26.676  -0.375  52.058  1.00  0.00     0.025 C 
ENDBRANCH  25  26
ENDBRANCH  24  25
ENDBRANCH  23  24
ENDBRANCH  21  22
ENDBRANCH  19  21
ENDBRANCH   1  19
TORSDOF 6
ENDMDL
MODEL 9
REMARK VINA RESULT:      -6.8      2.753      8.427
REMARK  6 active torsions:
REMARK  status: ('A' for Active; 'I' for Inactive)
REMARK    1  A    between atoms: C2_2  and  C3_3 
REMARK    2  A    between atoms: C3_3  and  N1_4 
REMARK    3  A    between atoms: N1_4  and  C4_5 
REMARK    4  A    between atoms: N2_6  and  C5_7 
REMARK    5  A    between atoms: C5_7  and  N3_8 
REMARK    6  A    between atoms: N3_8  and  C6_9 
ROOT
HETATM    1  C6  UNL     1      20.572   1.134  49.354  1.00  0.00     0.270 C 
HETATM    2  C7  UNL     1      21.627   2.060  48.861  1.00  0.00     0.034 C 
HETATM    3  C8  UNL     1      22.639   2.629  49.491  1.00  0.00     0.132 C 
HETATM    4  O1  UNL     1      23.174   2.663  50.747  1.00  0.00    -0.363 OA
HETATM    5  C9  UNL     1      24.514   2.333  51.065  1.00  0.00     0.176 C 
HETATM    6  C10 UNL     1      24.715   2.441  52.540  1.00  0.00     0.049 C 
HETATM    7  C11 UNL     1      26.124   2.096  52.966  1.00  0.00     0.159 C 
HETATM    8  N4  UNL     1      26.554   0.812  52.606  1.00  0.00    -0.265 NA
HETATM    9  S1  UNL     1      26.521  -0.423  53.528  1.00  0.00    -0.088 SA
HETATM   10  C12 UNL     1      27.157  -1.904  52.722  1.00  0.00     0.108 C 
HETATM   11  C13 UNL     1      24.993  -0.732  54.333  1.00  0.00     0.056 C 
HETATM   12  C14 UNL     1      23.683  -0.764  54.385  1.00  0.00     0.011 C 
HETATM   13  C15 UNL     1      22.421  -0.556  53.768  1.00  0.00     0.044 C 
HETATM   14  C16 UNL     1      21.326  -0.339  53.138  1.00  0.00     0.134 C 
HETATM   15  F1  UNL     1      20.527  -0.713  54.132  1.00  0.00    -0.205 F 
HETATM   16  C17 UNL     1      20.807   0.136  51.896  1.00  0.00     0.055 A 
HETATM   17 CL1  UNL     1      19.079   0.092  51.753  1.00  0.00    -0.170 Cl
HETATM   18  C18 UNL     1      20.801   0.611  50.695  1.00  0.00     0.155 A 
ENDROOT
BRANCH   1  19
HETATM   19  N3  UNL     1      19.250   1.712  49.184  1.00  0.00     0.112 N 
HETATM   20  H8  UNL     1      18.506   1.114  49.573  1.00  0.00     0.319 HD
BRANCH  19  21
HETATM   21  C5  UNL     1      19.104   3.030  49.704  1.00  0.00     0.420 C 
BRANCH  21  22
HETATM   22  N2  UNL     1      17.833   3.643  49.376  1.00  0.00    -0.252 NA
HETATM   23  C4  UNL     1      16.714   3.274  49.854  1.00  0.00     0.238 C 
BRANCH  23  24
HETATM   24  N1  UNL     1      16.522   2.227  50.762  1.00  0.00    -0.204 NA
BRANCH  24  25
HETATM   25  C3  UNL     1      15.710   2.375  51.755  1.00  0.00    -0.038 C 
BRANCH  25  26
HETATM   26  C2  UNL     1      14.804   2.778  52.633  1.00  0.00     0.089 C 
HETATM   27  C1  UNL     1      15.087   4.124  53.197  1.00  0.00     0.025 C 
ENDBRANCH  25  26
ENDBRANCH  24  25
ENDBRANCH  23  24
ENDBRANCH  21  22
ENDBRANCH  19  21
ENDBRANCH   1  19
TORSDOF 6
ENDMDL
