MODEL 1
REMARK VINA RESULT:      -8.7      0.000      0.000
REMARK  4 active torsions:
REMARK  status: ('A' for Active; 'I' for Inactive)
REMARK    1  A    between atoms: C1_2  and  C2_3 
REMARK    2  A    between atoms: C4_5  and  C5_6 
REMARK    3  A    between atoms: N2_14  and  C11_15 
REMARK    4  A    between atoms: C12_17  and  C13_18 
ROOT
HETATM    1  C2  UNL     1      23.767   3.953  50.535  1.00  0.00     0.179 C 
HETATM    2  C3  UNL     1      24.275   4.568  49.252  1.00  0.00     0.096 C 
HETATM    3  C4  UNL     1      25.733   4.641  49.514  1.00  0.00     0.067 C 
HETATM    4  N1  UNL     1      26.053   3.838  50.490  1.00  0.00    -0.173 NA
HETATM    5  N2  UNL     1      24.920   3.185  50.957  1.00  0.00    -0.234 N 
ENDROOT
BRANCH   5   6
HETATM    6  C11 UNL     1      24.797   1.988  51.739  1.00  0.00     0.190 A 
HETATM    7  N3  UNL     1      23.732   1.528  52.003  1.00  0.00    -0.222 NA
HETATM    8  C12 UNL     1      23.470   0.460  52.710  1.00  0.00     0.076 A 
HETATM    9  C19 UNL     1      24.656  -0.225  53.220  1.00  0.00     0.086 A 
HETATM   10  S1  UNL     1      26.065   0.844  52.562  1.00  0.00    -0.060 SA
BRANCH   8  11
HETATM   11  C13 UNL     1      22.146  -0.075  52.995  1.00  0.00    -0.007 A 
HETATM   12  C14 UNL     1      21.067   0.369  52.262  1.00  0.00     0.015 A 
HETATM   13  C15 UNL     1      19.758   0.009  52.360  1.00  0.00     0.024 A 
HETATM   14  C16 UNL     1      19.524  -0.934  53.344  1.00  0.00     0.034 A 
HETATM   15 CL1  UNL     1      17.877  -1.501  53.589  1.00  0.00    -0.084 Cl
HETATM   16  C17 UNL     1      20.563  -1.437  54.132  1.00  0.00     0.024 A 
HETATM   17  C18 UNL     1      21.878  -1.012  53.963  1.00  0.00     0.015 A 
ENDBRANCH   8  11
ENDBRANCH   5   6
BRANCH   1  18
HETATM   18  C1  UNL     1      23.574   5.024  51.557  1.00  0.00     0.258 C 
HETATM   19  O1  UNL     1      22.953   4.798  52.588  1.00  0.00    -0.305 OA
ENDBRANCH   1  18
BRANCH   3  20
HETATM   20  C5  UNL     1      26.735   5.442  48.823  1.00  0.00    -0.010 A 
HETATM   21  C6  UNL     1      26.404   6.698  48.365  1.00  0.00     0.015 A 
HETATM   22  C7  UNL     1      27.406   7.400  47.732  1.00  0.00     0.020 A 
HETATM   23  C8  UNL     1      28.695   6.890  47.552  1.00  0.00     0.011 A 
HETATM   24 BR1  UNL     1      30.039   7.914  46.673  1.00  0.00    -0.051 Br
HETATM   25  C9  UNL     1      28.984   5.641  48.019  1.00  0.00     0.020 A 
HETATM   26  C10 UNL     1      28.014   4.897  48.661  1.00  0.00     0.015 A 
ENDBRANCH   3  20
TORSDOF 4
ENDMDL
MODEL 2
REMARK VINA RESULT:      -8.4      3.277      4.540
REMARK  4 active torsions:
REMARK  status: ('A' for Active; 'I' for Inactive)
REMARK    1  A    between atoms: C1_2  and  C2_3 
REMARK    2  A    between atoms: C4_5  and  C5_6 
REMARK    3  A    between atoms: N2_14  and  C11_15 
REMARK    4  A    between atoms: C12_17  and  C13_18 
ROOT
HETATM    1  C2  UNL     1      23.885   4.493  50.214  1.00  0.00     0.179 C 
HETATM    2  C3  UNL     1      24.422   5.111  48.945  1.00  0.00     0.096 C 
HETATM    3  C4  UNL     1      25.882   5.106  49.206  1.00  0.00     0.067 C 
HETATM    4  N1  UNL     1      26.163   4.267  50.162  1.00  0.00    -0.173 NA
HETATM    5  N2  UNL     1      24.999   3.660  50.617  1.00  0.00    -0.234 N 
ENDROOT
BRANCH   5   6
HETATM    6  C11 UNL     1      24.818   2.453  51.371  1.00  0.00     0.190 A 
HETATM    7  N3  UNL     1      25.745   1.782  51.696  1.00  0.00    -0.222 NA
HETATM    8  C12 UNL     1      25.729   0.660  52.369  1.00  0.00     0.076 A 
HETATM    9  C19 UNL     1      24.393   0.209  52.749  1.00  0.00     0.086 A 
HETATM   10  S1  UNL     1      23.283   1.557  52.033  1.00  0.00    -0.060 SA
BRANCH   8  11
HETATM   11  C13 UNL     1      26.895  -0.121  52.758  1.00  0.00    -0.007 A 
HETATM   12  C14 UNL     1      27.983   0.519  53.311  1.00  0.00     0.015 A 
HETATM   13  C15 UNL     1      29.161  -0.009  53.740  1.00  0.00     0.024 A 
HETATM   14  C16 UNL     1      29.235  -1.380  53.579  1.00  0.00     0.034 A 
HETATM   15 CL1  UNL     1      30.700  -2.207  54.091  1.00  0.00    -0.084 Cl
HETATM   16  C17 UNL     1      28.177  -2.106  53.027  1.00  0.00     0.024 A 
HETATM   17  C18 UNL     1      27.002  -1.483  52.614  1.00  0.00     0.015 A 
ENDBRANCH   8  11
ENDBRANCH   5   6
BRANCH   1  18
HETATM   18  C1  UNL     1      23.746   5.548  51.260  1.00  0.00     0.258 C 
HETATM   19  O1  UNL     1      22.680   6.129  51.425  1.00  0.00    -0.305 OA
ENDBRANCH   1  18
BRANCH   3  20
HETATM   20  C5  UNL     1      26.922   5.873  48.531  1.00  0.00    -0.010 A 
HETATM   21  C6  UNL     1      26.607   7.081  47.951  1.00  0.00     0.015 A 
HETATM   22  C7  UNL     1      27.645   7.753  47.342  1.00  0.00     0.020 A 
HETATM   23  C8  UNL     1      28.951   7.259  47.302  1.00  0.00     0.011 A 
HETATM   24 BR1  UNL     1      30.343   8.240  46.449  1.00  0.00    -0.051 Br
HETATM   25  C9  UNL     1      29.223   6.057  47.888  1.00  0.00     0.020 A 
HETATM   26  C10 UNL     1      28.218   5.344  48.511  1.00  0.00     0.015 A 
ENDBRANCH   3  20
TORSDOF 4
ENDMDL
MODEL 3
REMARK VINA RESULT:      -8.2      3.929      5.186
REMARK  4 active torsions:
REMARK  status: ('A' for Active; 'I' for Inactive)
REMARK    1  A    between atoms: C1_2  and  C2_3 
REMARK    2  A    between atoms: C4_5  and  C5_6 
REMARK    3  A    between atoms: N2_14  and  C11_15 
REMARK    4  A    between atoms: C12_17  and  C13_18 
ROOT
HETATM    1  C2  UNL     1      23.478   3.687  50.874  1.00  0.00     0.179 C 
HETATM    2  C3  UNL     1      24.763   2.952  50.576  1.00  0.00     0.096 C 
HETATM    3  C4  UNL     1      24.857   2.032  51.735  1.00  0.00     0.067 C 
HETATM    4  N1  UNL     1      23.693   1.916  52.310  1.00  0.00    -0.173 NA
HETATM    5  N2  UNL     1      22.755   2.694  51.642  1.00  0.00    -0.234 N 
ENDROOT
BRANCH   5   6
HETATM    6  C11 UNL     1      21.322   2.632  51.656  1.00  0.00     0.190 A 
HETATM    7  N3  UNL     1      20.749   1.633  51.957  1.00  0.00    -0.222 NA
HETATM    8  C12 UNL     1      19.459   1.429  52.002  1.00  0.00     0.076 A 
HETATM    9  C19 UNL     1      18.655   2.592  51.632  1.00  0.00     0.086 A 
HETATM   10  S1  UNL     1      19.967   3.894  51.247  1.00  0.00    -0.060 SA
BRANCH   8  11
HETATM   11  C13 UNL     1      18.801   0.190  52.391  1.00  0.00    -0.007 A 
HETATM   12  C14 UNL     1      19.438  -0.668  53.260  1.00  0.00     0.015 A 
HETATM   13  C15 UNL     1      19.013  -1.865  53.750  1.00  0.00     0.024 A 
HETATM   14  C16 UNL     1      17.763  -2.232  53.285  1.00  0.00     0.034 A 
HETATM   15 CL1  UNL     1      17.078  -3.756  53.833  1.00  0.00    -0.084 Cl
HETATM   16  C17 UNL     1      17.049  -1.419  52.401  1.00  0.00     0.024 A 
HETATM   17  C18 UNL     1      17.561  -0.205  51.949  1.00  0.00     0.015 A 
ENDBRANCH   8  11
ENDBRANCH   5   6
BRANCH   1  18
HETATM   18  C1  UNL     1      23.758   4.819  51.805  1.00  0.00     0.258 C 
HETATM   19  O1  UNL     1      23.645   5.980  51.429  1.00  0.00    -0.305 OA
ENDBRANCH   1  18
BRANCH   3  20
HETATM   20  C5  UNL     1      26.025   1.308  52.220  1.00  0.00    -0.010 A 
HETATM   21  C6  UNL     1      26.024  -0.069  52.209  1.00  0.00     0.015 A 
HETATM   22  C7  UNL     1      27.168  -0.683  52.672  1.00  0.00     0.020 A 
HETATM   23  C8  UNL     1      28.279   0.029  53.133  1.00  0.00     0.011 A 
HETATM   24 BR1  UNL     1      29.833  -0.879  53.755  1.00  0.00    -0.051 Br
HETATM   25  C9  UNL     1      28.240   1.393  53.130  1.00  0.00     0.020 A 
HETATM   26  C10 UNL     1      27.118   2.055  52.675  1.00  0.00     0.015 A 
ENDBRANCH   3  20
TORSDOF 4
ENDMDL
MODEL 4
REMARK VINA RESULT:      -8.2      2.242      3.001
REMARK  4 active torsions:
REMARK  status: ('A' for Active; 'I' for Inactive)
REMARK    1  A    between atoms: C1_2  and  C2_3 
REMARK    2  A    between atoms: C4_5  and  C5_6 
REMARK    3  A    between atoms: N2_14  and  C11_15 
REMARK    4  A    between atoms: C12_17  and  C13_18 
ROOT
HETATM    1  C2  UNL     1      23.689   6.025  49.119  1.00  0.00     0.179 C 
HETATM    2  C3  UNL     1      24.773   6.751  48.357  1.00  0.00     0.096 C 
HETATM    3  C4  UNL     1      25.966   5.933  48.681  1.00  0.00     0.067 C 
HETATM    4  N1  UNL     1      25.600   4.762  49.119  1.00  0.00    -0.173 NA
HETATM    5  N2  UNL     1      24.213   4.675  49.136  1.00  0.00    -0.234 N 
ENDROOT
BRANCH   5   6
HETATM    6  C11 UNL     1      23.358   3.523  49.187  1.00  0.00     0.190 A 
HETATM    7  N3  UNL     1      23.312   2.829  50.152  1.00  0.00    -0.222 NA
HETATM    8  C12 UNL     1      22.595   1.751  50.334  1.00  0.00     0.076 A 
HETATM    9  C19 UNL     1      21.763   1.386  49.190  1.00  0.00     0.086 A 
HETATM   10  S1  UNL     1      22.165   2.741  47.938  1.00  0.00    -0.060 SA
BRANCH   8  11
HETATM   11  C13 UNL     1      22.560   0.940  51.543  1.00  0.00    -0.007 A 
HETATM   12  C14 UNL     1      23.690   0.844  52.324  1.00  0.00     0.015 A 
HETATM   13  C15 UNL     1      23.877   0.150  53.480  1.00  0.00     0.024 A 
HETATM   14  C16 UNL     1      22.752  -0.541  53.890  1.00  0.00     0.034 A 
HETATM   15 CL1  UNL     1      22.839  -1.484  55.371  1.00  0.00    -0.084 Cl
HETATM   16  C17 UNL     1      21.564  -0.497  53.155  1.00  0.00     0.024 A 
HETATM   17  C18 UNL     1      21.459   0.242  51.979  1.00  0.00     0.015 A 
ENDBRANCH   8  11
ENDBRANCH   5   6
BRANCH   1  18
HETATM   18  C1  UNL     1      23.680   6.493  50.536  1.00  0.00     0.258 C 
HETATM   19  O1  UNL     1      22.692   6.329  51.241  1.00  0.00    -0.305 OA
ENDBRANCH   1  18
BRANCH   3  20
HETATM   20  C5  UNL     1      27.371   6.293  48.543  1.00  0.00    -0.010 A 
HETATM   21  C6  UNL     1      28.310   5.304  48.350  1.00  0.00     0.015 A 
HETATM   22  C7  UNL     1      29.617   5.721  48.217  1.00  0.00     0.020 A 
HETATM   23  C8  UNL     1      29.994   7.066  48.271  1.00  0.00     0.011 A 
HETATM   24 BR1  UNL     1      31.818   7.579  48.074  1.00  0.00    -0.051 Br
HETATM   25  C9  UNL     1      29.034   8.016  48.465  1.00  0.00     0.020 A 
HETATM   26  C10 UNL     1      27.711   7.649  48.604  1.00  0.00     0.015 A 
ENDBRANCH   3  20
TORSDOF 4
ENDMDL
MODEL 5
REMARK VINA RESULT:      -8.0      5.059      9.445
REMARK  4 active torsions:
REMARK  status: ('A' for Active; 'I' for Inactive)
REMARK    1  A    between atoms: C1_2  and  C2_3 
REMARK    2  A    between atoms: C4_5  and  C5_6 
REMARK    3  A    between atoms: N2_14  and  C11_15 
REMARK    4  A    between atoms: C12_17  and  C13_18 
ROOT
HETATM    1  C2  UNL     1      24.475   2.580  51.620  1.00  0.00     0.179 C 
HETATM    2  C3  UNL     1      23.804   1.228  51.677  1.00  0.00     0.096 C 
HETATM    3  C4  UNL     1      22.372   1.607  51.729  1.00  0.00     0.067 C 
HETATM    4  N1  UNL     1      22.219   2.836  51.322  1.00  0.00    -0.173 NA
HETATM    5  N2  UNL     1      23.451   3.377  50.977  1.00  0.00    -0.234 N 
ENDROOT
BRANCH   5   6
HETATM    6  C11 UNL     1      23.766   4.519  50.168  1.00  0.00     0.190 A 
HETATM    7  N3  UNL     1      24.875   4.718  49.784  1.00  0.00    -0.222 NA
HETATM    8  C12 UNL     1      25.307   5.714  49.055  1.00  0.00     0.076 A 
HETATM    9  C19 UNL     1      24.273   6.680  48.689  1.00  0.00     0.086 A 
HETATM   10  S1  UNL     1      22.730   5.961  49.503  1.00  0.00    -0.060 SA
BRANCH   8  11
HETATM   11  C13 UNL     1      26.675   5.909  48.596  1.00  0.00    -0.007 A 
HETATM   12  C14 UNL     1      27.028   7.109  48.017  1.00  0.00     0.015 A 
HETATM   13  C15 UNL     1      28.234   7.500  47.523  1.00  0.00     0.024 A 
HETATM   14  C16 UNL     1      29.212   6.528  47.638  1.00  0.00     0.034 A 
HETATM   15 CL1  UNL     1      30.827   6.890  47.044  1.00  0.00    -0.084 Cl
HETATM   16  C17 UNL     1      28.937   5.285  48.213  1.00  0.00     0.024 A 
HETATM   17  C18 UNL     1      27.670   4.967  48.695  1.00  0.00     0.015 A 
ENDBRANCH   8  11
ENDBRANCH   5   6
BRANCH   1  18
HETATM   18  C1  UNL     1      24.623   3.119  53.004  1.00  0.00     0.258 C 
HETATM   19  O1  UNL     1      25.259   2.501  53.850  1.00  0.00    -0.305 OA
ENDBRANCH   1  18
BRANCH   3  20
HETATM   20  C5  UNL     1      21.237   0.790  52.139  1.00  0.00    -0.010 A 
HETATM   21  C6  UNL     1      21.289   0.104  53.332  1.00  0.00     0.015 A 
HETATM   22  C7  UNL     1      20.174  -0.637  53.658  1.00  0.00     0.020 A 
HETATM   23  C8  UNL     1      19.042  -0.706  52.841  1.00  0.00     0.011 A 
HETATM   24 BR1  UNL     1      17.529  -1.745  53.351  1.00  0.00    -0.051 Br
HETATM   25  C9  UNL     1      19.029  -0.013  51.665  1.00  0.00     0.020 A 
HETATM   26  C10 UNL     1      20.121   0.745  51.294  1.00  0.00     0.015 A 
ENDBRANCH   3  20
TORSDOF 4
ENDMDL
MODEL 6
REMARK VINA RESULT:      -8.0      5.170      8.689
REMARK  4 active torsions:
REMARK  status: ('A' for Active; 'I' for Inactive)
REMARK    1  A    between atoms: C1_2  and  C2_3 
REMARK    2  A    between atoms: C4_5  and  C5_6 
REMARK    3  A    between atoms: N2_14  and  C11_15 
REMARK    4  A    between atoms: C12_17  and  C13_18 
ROOT
HETATM    1  C2  UNL     1      21.126   3.397  51.630  1.00  0.00     0.179 C 
HETATM    2  C3  UNL     1      20.172   2.718  52.584  1.00  0.00     0.096 C 
HETATM    3  C4  UNL     1      20.331   1.294  52.201  1.00  0.00     0.067 C 
HETATM    4  N1  UNL     1      21.439   1.130  51.536  1.00  0.00    -0.173 NA
HETATM    5  N2  UNL     1      22.098   2.347  51.407  1.00  0.00    -0.234 N 
ENDROOT
BRANCH   5   6
HETATM    6  C11 UNL     1      23.469   2.628  51.091  1.00  0.00     0.190 A 
HETATM    7  N3  UNL     1      24.359   2.051  51.631  1.00  0.00    -0.222 NA
HETATM    8  C12 UNL     1      25.645   2.210  51.454  1.00  0.00     0.076 A 
HETATM    9  C19 UNL     1      25.991   3.229  50.466  1.00  0.00     0.086 A 
HETATM   10  S1  UNL     1      24.300   3.849  49.901  1.00  0.00    -0.060 SA
BRANCH   8  11
HETATM   11  C13 UNL     1      26.700   1.468  52.129  1.00  0.00    -0.007 A 
HETATM   12  C14 UNL     1      26.662   0.091  52.130  1.00  0.00     0.015 A 
HETATM   13  C15 UNL     1      27.533  -0.790  52.693  1.00  0.00     0.024 A 
HETATM   14  C16 UNL     1      28.587  -0.175  53.344  1.00  0.00     0.034 A 
HETATM   15 CL1  UNL     1      29.799  -1.186  54.120  1.00  0.00    -0.084 Cl
HETATM   16  C17 UNL     1      28.702   1.217  53.389  1.00  0.00     0.024 A 
HETATM   17  C18 UNL     1      27.762   2.046  52.783  1.00  0.00     0.015 A 
ENDBRANCH   8  11
ENDBRANCH   5   6
BRANCH   1  18
HETATM   18  C1  UNL     1      20.443   3.626  50.323  1.00  0.00     0.258 C 
HETATM   19  O1  UNL     1      20.779   4.554  49.597  1.00  0.00    -0.305 OA
ENDBRANCH   1  18
BRANCH   3  20
HETATM   20  C5  UNL     1      19.446   0.175  52.499  1.00  0.00    -0.010 A 
HETATM   21  C6  UNL     1      18.259   0.046  51.812  1.00  0.00     0.015 A 
HETATM   22  C7  UNL     1      17.480  -1.042  52.140  1.00  0.00     0.020 A 
HETATM   23  C8  UNL     1      17.851  -1.977  53.111  1.00  0.00     0.011 A 
HETATM   24 BR1  UNL     1      16.732  -3.465  53.514  1.00  0.00    -0.051 Br
HETATM   25  C9  UNL     1      19.034  -1.814  53.771  1.00  0.00     0.020 A 
HETATM   26  C10 UNL     1      19.850  -0.740  53.478  1.00  0.00     0.015 A 
ENDBRANCH   3  20
TORSDOF 4
ENDMDL
MODEL 7
REMARK VINA RESULT:      -7.8      4.980      8.687
REMARK  4 active torsions:
REMARK  status: ('A' for Active; 'I' for Inactive)
REMARK    1  A    between atoms: C1_2  and  C2_3 
REMARK    2  A    between atoms: C4_5  and  C5_6 
REMARK    3  A    between atoms: N2_14  and  C11_15 
REMARK    4  A    between atoms: C12_17  and  C13_18 
ROOT
HETATM    1  C2  UNL     1      23.473   3.016  51.713  1.00  0.00     0.179 C 
HETATM    2  C3  UNL     1      24.252   2.350  52.822  1.00  0.00     0.096 C 
HETATM    3  C4  UNL     1      25.550   2.084  52.157  1.00  0.00     0.067 C 
HETATM    4  N1  UNL     1      25.671   2.830  51.095  1.00  0.00    -0.173 NA
HETATM    5  N2  UNL     1      24.540   3.622  50.943  1.00  0.00    -0.234 N 
ENDROOT
BRANCH   5   6
HETATM    6  C11 UNL     1      24.344   4.819  50.176  1.00  0.00     0.190 A 
HETATM    7  N3  UNL     1      25.233   5.305  49.552  1.00  0.00    -0.222 NA
HETATM    8  C12 UNL     1      25.204   6.390  48.823  1.00  0.00     0.076 A 
HETATM    9  C19 UNL     1      23.905   7.059  48.796  1.00  0.00     0.086 A 
HETATM   10  S1  UNL     1      22.848   5.951  49.899  1.00  0.00    -0.060 SA
BRANCH   8  11
HETATM   11  C13 UNL     1      26.317   6.942  48.063  1.00  0.00    -0.007 A 
HETATM   12  C14 UNL     1      27.580   6.419  48.240  1.00  0.00     0.015 A 
HETATM   13  C15 UNL     1      28.748   6.778  47.641  1.00  0.00     0.024 A 
HETATM   14  C16 UNL     1      28.602   7.815  46.738  1.00  0.00     0.034 A 
HETATM   15 CL1  UNL     1      30.027   8.389  45.882  1.00  0.00    -0.084 Cl
HETATM   16  C17 UNL     1      27.356   8.402  46.499  1.00  0.00     0.024 A 
HETATM   17  C18 UNL     1      26.208   7.970  47.158  1.00  0.00     0.015 A 
ENDBRANCH   8  11
ENDBRANCH   5   6
BRANCH   1  18
HETATM   18  C1  UNL     1      22.862   1.972  50.839  1.00  0.00     0.258 C 
HETATM   19  O1  UNL     1      22.328   0.983  51.327  1.00  0.00    -0.305 OA
ENDBRANCH   1  18
BRANCH   3  20
HETATM   20  C5  UNL     1      26.603   1.163  52.568  1.00  0.00    -0.010 A 
HETATM   21  C6  UNL     1      26.420  -0.192  52.410  1.00  0.00     0.015 A 
HETATM   22  C7  UNL     1      27.463  -0.999  52.810  1.00  0.00     0.020 A 
HETATM   23  C8  UNL     1      28.649  -0.495  53.350  1.00  0.00     0.011 A 
HETATM   24 BR1  UNL     1      30.057  -1.664  53.879  1.00  0.00    -0.051 Br
HETATM   25  C9  UNL     1      28.792   0.854  53.493  1.00  0.00     0.020 A 
HETATM   26  C10 UNL     1      27.776   1.705  53.106  1.00  0.00     0.015 A 
ENDBRANCH   3  20
TORSDOF 4
ENDMDL
MODEL 8
REMARK VINA RESULT:      -7.6      5.178      6.359
REMARK  4 active torsions:
REMARK  status: ('A' for Active; 'I' for Inactive)
REMARK    1  A    between atoms: C1_2  and  C2_3 
REMARK    2  A    between atoms: C4_5  and  C5_6 
REMARK    3  A    between atoms: N2_14  and  C11_15 
REMARK    4  A    between atoms: C12_17  and  C13_18 
ROOT
HETATM    1  C2  UNL     1      21.616   1.365  50.343  1.00  0.00     0.179 C 
HETATM    2  C3  UNL     1      21.792   2.651  49.571  1.00  0.00     0.096 C 
HETATM    3  C4  UNL     1      21.473   3.665  50.604  1.00  0.00     0.067 C 
HETATM    4  N1  UNL     1      21.559   3.138  51.792  1.00  0.00    -0.173 NA
HETATM    5  N2  UNL     1      21.921   1.800  51.690  1.00  0.00    -0.234 N 
ENDROOT
BRANCH   5   6
HETATM    6  C11 UNL     1      22.475   0.914  52.673  1.00  0.00     0.190 A 
HETATM    7  N3  UNL     1      23.640   0.673  52.702  1.00  0.00    -0.222 NA
HETATM    8  C12 UNL     1      24.277  -0.117  53.526  1.00  0.00     0.076 A 
HETATM    9  C19 UNL     1      23.421  -0.766  54.516  1.00  0.00     0.086 A 
HETATM   10  S1  UNL     1      21.710  -0.097  54.084  1.00  0.00    -0.060 SA
BRANCH   8  11
HETATM   11  C13 UNL     1      25.712  -0.370  53.533  1.00  0.00    -0.007 A 
HETATM   12  C14 UNL     1      26.508   0.286  54.446  1.00  0.00     0.015 A 
HETATM   13  C15 UNL     1      27.854   0.202  54.625  1.00  0.00     0.024 A 
HETATM   14  C16 UNL     1      28.468  -0.675  53.749  1.00  0.00     0.034 A 
HETATM   15 CL1  UNL     1      30.210  -0.892  53.862  1.00  0.00    -0.084 Cl
HETATM   16  C17 UNL     1      27.733  -1.380  52.793  1.00  0.00     0.024 A 
HETATM   17  C18 UNL     1      26.353  -1.234  52.678  1.00  0.00     0.015 A 
ENDBRANCH   8  11
ENDBRANCH   5   6
BRANCH   1  18
HETATM   18  C1  UNL     1      20.174   0.978  50.340  1.00  0.00     0.258 C 
HETATM   19  O1  UNL     1      19.439   1.313  49.419  1.00  0.00    -0.305 OA
ENDBRANCH   1  18
BRANCH   3  20
HETATM   20  C5  UNL     1      21.125   5.068  50.414  1.00  0.00    -0.010 A 
HETATM   21  C6  UNL     1      21.900   6.046  50.996  1.00  0.00     0.015 A 
HETATM   22  C7  UNL     1      21.515   7.348  50.763  1.00  0.00     0.020 A 
HETATM   23  C8  UNL     1      20.406   7.685  49.983  1.00  0.00     0.011 A 
HETATM   24 BR1  UNL     1      19.929   9.506  49.693  1.00  0.00    -0.051 Br
HETATM   25  C9  UNL     1      19.662   6.687  49.424  1.00  0.00     0.020 A 
HETATM   26  C10 UNL     1      20.006   5.366  49.627  1.00  0.00     0.015 A 
ENDBRANCH   3  20
TORSDOF 4
ENDMDL
MODEL 9
REMARK VINA RESULT:      -7.6      5.096      8.443
REMARK  4 active torsions:
REMARK  status: ('A' for Active; 'I' for Inactive)
REMARK    1  A    between atoms: C1_2  and  C2_3 
REMARK    2  A    between atoms: C4_5  and  C5_6 
REMARK    3  A    between atoms: N2_14  and  C11_15 
REMARK    4  A    between atoms: C12_17  and  C13_18 
ROOT
HETATM    1  C2  UNL     1      22.789   2.726  51.529  1.00  0.00     0.179 C 
HETATM    2  C3  UNL     1      23.535   1.869  52.524  1.00  0.00     0.096 C 
HETATM    3  C4  UNL     1      24.945   2.182  52.189  1.00  0.00     0.067 C 
HETATM    4  N1  UNL     1      25.008   3.291  51.507  1.00  0.00    -0.173 NA
HETATM    5  N2  UNL     1      23.731   3.806  51.323  1.00  0.00    -0.234 N 
ENDROOT
BRANCH   5   6
HETATM    6  C11 UNL     1      23.310   5.132  50.971  1.00  0.00     0.190 A 
HETATM    7  N3  UNL     1      24.091   5.955  50.615  1.00  0.00    -0.222 NA
HETATM    8  C12 UNL     1      23.855   7.196  50.276  1.00  0.00     0.076 A 
HETATM    9  C19 UNL     1      22.448   7.581  50.359  1.00  0.00     0.086 A 
HETATM   10  S1  UNL     1      21.619   5.992  50.951  1.00  0.00    -0.060 SA
BRANCH   8  11
HETATM   11  C13 UNL     1      24.846   8.166  49.831  1.00  0.00    -0.007 A 
HETATM   12  C14 UNL     1      26.117   8.123  50.361  1.00  0.00     0.015 A 
HETATM   13  C15 UNL     1      27.185   8.923  50.092  1.00  0.00     0.024 A 
HETATM   14  C16 UNL     1      26.912   9.900  49.153  1.00  0.00     0.034 A 
HETATM   15 CL1  UNL     1      28.197  11.011  48.700  1.00  0.00    -0.084 Cl
HETATM   16  C17 UNL     1      25.648  10.013  48.566  1.00  0.00     0.024 A 
HETATM   17  C18 UNL     1      24.609   9.148  48.900  1.00  0.00     0.015 A 
ENDBRANCH   8  11
ENDBRANCH   5   6
BRANCH   1  18
HETATM   18  C1  UNL     1      22.686   2.001  50.229  1.00  0.00     0.258 C 
HETATM   19  O1  UNL     1      21.672   2.082  49.546  1.00  0.00    -0.305 OA
ENDBRANCH   1  18
BRANCH   3  20
HETATM   20  C5  UNL     1      26.144   1.433  52.543  1.00  0.00    -0.010 A 
HETATM   21  C6  UNL     1      27.242   2.102  53.037  1.00  0.00     0.015 A 
HETATM   22  C7  UNL     1      28.334   1.326  53.360  1.00  0.00     0.020 A 
HETATM   23  C8  UNL     1      28.352  -0.063  53.204  1.00  0.00     0.011 A 
HETATM   24 BR1  UNL     1      29.892  -1.081  53.675  1.00  0.00    -0.051 Br
HETATM   25  C9  UNL     1      27.245  -0.689  52.710  1.00  0.00     0.020 A 
HETATM   26  C10 UNL     1      26.125   0.044  52.372  1.00  0.00     0.015 A 
ENDBRANCH   3  20
TORSDOF 4
ENDMDL
