MODEL 1
REMARK VINA RESULT:      -7.2      0.000      0.000
REMARK  3 active torsions:
REMARK  status: ('A' for Active; 'I' for Inactive)
REMARK    1  A    between atoms: O1_2  and  C2_3 
REMARK    2  A    between atoms: C9_12  and  N3_13 
REMARK    3  A    between atoms: N3_13  and  C10_14 
ROOT
HETATM    1  C2  UNL     1      24.185  -0.186  53.549  1.00  0.00     0.096 C 
HETATM    2  C3  UNL     1      25.251  -0.590  54.325  1.00  0.00     0.058 C 
HETATM    3  C4  UNL     1      26.154  -0.062  55.205  1.00  0.00     0.121 C 
HETATM    4  N1  UNL     1      27.026   0.945  55.110  1.00  0.00    -0.254 NA
HETATM    5  C5  UNL     1      28.297   0.759  54.725  1.00  0.00     0.232 C 
HETATM    6  N2  UNL     1      28.072   0.731  53.417  1.00  0.00    -0.254 NA
HETATM    7  C6  UNL     1      27.855   1.881  52.717  1.00  0.00     0.118 C 
HETATM    8  C7  UNL     1      26.862   1.504  51.816  1.00  0.00     0.022 C 
HETATM    9  C8  UNL     1      25.799   0.596  51.878  1.00  0.00     0.034 C 
HETATM   10  C9  UNL     1      24.522   0.515  52.408  1.00  0.00     0.066 C 
ENDROOT
BRANCH  10  11
HETATM   11  N3  UNL     1      23.654   1.272  51.572  1.00  0.00    -0.354 N 
HETATM   12  H10 UNL     1      22.973   0.808  50.936  1.00  0.00     0.166 HD
BRANCH  11  13
HETATM   13  C10 UNL     1      23.709   2.676  51.595  1.00  0.00     0.034 A 
HETATM   14  C11 UNL     1      23.514   3.416  52.742  1.00  0.00     0.032 A 
HETATM   15  C12 UNL     1      23.568   4.805  52.769  1.00  0.00     0.046 A 
HETATM   16  C13 UNL     1      23.829   5.496  51.593  1.00  0.00     0.138 A 
HETATM   17  F1  UNL     1      23.896   6.844  51.544  1.00  0.00    -0.204 F 
HETATM   18  C14 UNL     1      24.034   4.805  50.403  1.00  0.00     0.074 A 
HETATM   19 CL1  UNL     1      24.370   5.592  48.869  1.00  0.00    -0.081 Cl
HETATM   20  C15 UNL     1      23.964   3.416  50.463  1.00  0.00     0.056 A 
ENDBRANCH  11  13
ENDBRANCH  10  11
BRANCH   1  21
HETATM   21  O1  UNL     1      22.821  -0.374  53.734  1.00  0.00    -0.354 OA
HETATM   22  C1  UNL     1      22.250  -1.021  54.829  1.00  0.00     0.210 C 
ENDBRANCH   1  21
TORSDOF 3
ENDMDL
MODEL 2
REMARK VINA RESULT:      -7.2      2.009      2.433
REMARK  3 active torsions:
REMARK  status: ('A' for Active; 'I' for Inactive)
REMARK    1  A    between atoms: O1_2  and  C2_3 
REMARK    2  A    between atoms: C9_12  and  N3_13 
REMARK    3  A    between atoms: N3_13  and  C10_14 
ROOT
HETATM    1  C2  UNL     1      23.812   0.296  53.424  1.00  0.00     0.096 C 
HETATM    2  C3  UNL     1      24.853  -0.472  53.901  1.00  0.00     0.058 C 
HETATM    3  C4  UNL     1      25.871  -0.393  54.810  1.00  0.00     0.121 C 
HETATM    4  N1  UNL     1      26.871   0.479  54.974  1.00  0.00    -0.254 NA
HETATM    5  C5  UNL     1      28.078   0.297  54.419  1.00  0.00     0.232 C 
HETATM    6  N2  UNL     1      27.776   0.755  53.211  1.00  0.00    -0.254 NA
HETATM    7  C6  UNL     1      27.685   2.094  52.971  1.00  0.00     0.118 C 
HETATM    8  C7  UNL     1      26.598   2.173  52.103  1.00  0.00     0.022 C 
HETATM    9  C8  UNL     1      25.423   1.428  51.962  1.00  0.00     0.034 C 
HETATM   10  C9  UNL     1      24.180   1.310  52.561  1.00  0.00     0.066 C 
ENDROOT
BRANCH  10  11
HETATM   11  N3  UNL     1      23.381   2.407  52.128  1.00  0.00    -0.354 N 
HETATM   12  H10 UNL     1      23.094   3.160  52.786  1.00  0.00     0.166 HD
BRANCH  11  13
HETATM   13  C10 UNL     1      22.965   2.482  50.788  1.00  0.00     0.034 A 
HETATM   14  C11 UNL     1      22.307   1.453  50.148  1.00  0.00     0.032 A 
HETATM   15  C12 UNL     1      21.894   1.523  48.822  1.00  0.00     0.046 A 
HETATM   16  C13 UNL     1      22.148   2.678  48.093  1.00  0.00     0.138 A 
HETATM   17  F1  UNL     1      21.777   2.817  46.802  1.00  0.00    -0.204 F 
HETATM   18  C14 UNL     1      22.808   3.751  48.685  1.00  0.00     0.074 A 
HETATM   19 CL1  UNL     1      23.172   5.249  47.843  1.00  0.00    -0.081 Cl
HETATM   20  C15 UNL     1      23.187   3.599  50.016  1.00  0.00     0.056 A 
ENDBRANCH  11  13
ENDBRANCH  10  11
BRANCH   1  21
HETATM   21  O1  UNL     1      22.449   0.211  53.673  1.00  0.00    -0.354 OA
HETATM   22  C1  UNL     1      21.863  -0.657  54.594  1.00  0.00     0.210 C 
ENDBRANCH   1  21
TORSDOF 3
ENDMDL
MODEL 3
REMARK VINA RESULT:      -7.1      3.308      4.549
REMARK  3 active torsions:
REMARK  status: ('A' for Active; 'I' for Inactive)
REMARK    1  A    between atoms: O1_2  and  C2_3 
REMARK    2  A    between atoms: C9_12  and  N3_13 
REMARK    3  A    between atoms: N3_13  and  C10_14 
ROOT
HETATM    1  C2  UNL     1      25.178   2.098  53.299  1.00  0.00     0.096 C 
HETATM    2  C3  UNL     1      26.372   2.264  53.970  1.00  0.00     0.058 C 
HETATM    3  C4  UNL     1      27.714   2.280  53.712  1.00  0.00     0.121 C 
HETATM    4  N1  UNL     1      28.535   1.395  53.139  1.00  0.00    -0.254 NA
HETATM    5  C5  UNL     1      29.211   0.480  53.849  1.00  0.00     0.232 C 
HETATM    6  N2  UNL     1      28.225  -0.399  53.969  1.00  0.00    -0.254 NA
HETATM    7  C6  UNL     1      27.883  -1.216  52.931  1.00  0.00     0.118 C 
HETATM    8  C7  UNL     1      26.493  -1.252  53.019  1.00  0.00     0.022 C 
HETATM    9  C8  UNL     1      25.530  -0.325  53.432  1.00  0.00     0.034 C 
HETATM   10  C9  UNL     1      24.880   0.797  52.945  1.00  0.00     0.066 C 
ENDROOT
BRANCH  10  11
HETATM   11  N3  UNL     1      23.877   0.358  52.035  1.00  0.00    -0.354 N 
HETATM   12  H10 UNL     1      24.085   0.221  51.024  1.00  0.00     0.166 HD
BRANCH  11  13
HETATM   13  C10 UNL     1      22.575   0.102  52.498  1.00  0.00     0.034 A 
HETATM   14  C11 UNL     1      22.312  -0.396  53.757  1.00  0.00     0.032 A 
HETATM   15  C12 UNL     1      21.025  -0.651  54.219  1.00  0.00     0.046 A 
HETATM   16  C13 UNL     1      19.943  -0.397  53.387  1.00  0.00     0.138 A 
HETATM   17  F1  UNL     1      18.667  -0.619  53.768  1.00  0.00    -0.204 F 
HETATM   18  C14 UNL     1      20.145   0.107  52.105  1.00  0.00     0.074 A 
HETATM   19 CL1  UNL     1      18.840   0.459  50.984  1.00  0.00    -0.081 Cl
HETATM   20  C15 UNL     1      21.464   0.334  51.720  1.00  0.00     0.056 A 
ENDBRANCH  11  13
ENDBRANCH  10  11
BRANCH   1  21
HETATM   21  O1  UNL     1      24.224   3.035  52.923  1.00  0.00    -0.354 OA
HETATM   22  C1  UNL     1      24.294   3.821  51.773  1.00  0.00     0.210 C 
ENDBRANCH   1  21
TORSDOF 3
ENDMDL
MODEL 4
REMARK VINA RESULT:      -7.1      3.672      6.335
REMARK  3 active torsions:
REMARK  status: ('A' for Active; 'I' for Inactive)
REMARK    1  A    between atoms: O1_2  and  C2_3 
REMARK    2  A    between atoms: C9_12  and  N3_13 
REMARK    3  A    between atoms: N3_13  and  C10_14 
ROOT
HETATM    1  C2  UNL     1      23.079   1.419  51.236  1.00  0.00     0.096 C 
HETATM    2  C3  UNL     1      21.860   0.972  50.769  1.00  0.00     0.058 C 
HETATM    3  C4  UNL     1      20.527   1.218  50.945  1.00  0.00     0.121 C 
HETATM    4  N1  UNL     1      19.743   1.221  52.027  1.00  0.00    -0.254 NA
HETATM    5  C5  UNL     1      19.062   0.136  52.422  1.00  0.00     0.232 C 
HETATM    6  N2  UNL     1      20.061  -0.467  53.054  1.00  0.00    -0.254 NA
HETATM    7  C6  UNL     1      20.453  -0.059  54.295  1.00  0.00     0.118 C 
HETATM    8  C7  UNL     1      21.840  -0.175  54.228  1.00  0.00     0.022 C 
HETATM    9  C8  UNL     1      22.770  -0.024  53.194  1.00  0.00     0.034 C 
HETATM   10  C9  UNL     1      23.414   0.991  52.505  1.00  0.00     0.066 C 
ENDROOT
BRANCH  10  11
HETATM   11  N3  UNL     1      24.456   1.490  53.338  1.00  0.00    -0.354 N 
HETATM   12  H10 UNL     1      24.299   2.299  53.974  1.00  0.00     0.166 HD
BRANCH  11  13
HETATM   13  C10 UNL     1      25.725   0.889  53.306  1.00  0.00     0.034 A 
HETATM   14  C11 UNL     1      25.946  -0.369  52.787  1.00  0.00     0.032 A 
HETATM   15  C12 UNL     1      27.201  -0.969  52.755  1.00  0.00     0.046 A 
HETATM   16  C13 UNL     1      28.294  -0.281  53.266  1.00  0.00     0.138 A 
HETATM   17  F1  UNL     1      29.540  -0.800  53.268  1.00  0.00    -0.204 F 
HETATM   18  C14 UNL     1      28.133   0.993  53.804  1.00  0.00     0.074 A 
HETATM   19 CL1  UNL     1      29.455   1.936  54.472  1.00  0.00    -0.081 Cl
HETATM   20  C15 UNL     1      26.845   1.520  53.797  1.00  0.00     0.056 A 
ENDBRANCH  11  13
ENDBRANCH  10  11
BRANCH   1  21
HETATM   21  O1  UNL     1      24.025   2.234  50.629  1.00  0.00    -0.354 OA
HETATM   22  C1  UNL     1      23.836   3.583  50.328  1.00  0.00     0.210 C 
ENDBRANCH   1  21
TORSDOF 3
ENDMDL
MODEL 5
REMARK VINA RESULT:      -6.9      3.779      6.382
REMARK  3 active torsions:
REMARK  status: ('A' for Active; 'I' for Inactive)
REMARK    1  A    between atoms: O1_2  and  C2_3 
REMARK    2  A    between atoms: C9_12  and  N3_13 
REMARK    3  A    between atoms: N3_13  and  C10_14 
ROOT
HETATM    1  C2  UNL     1      24.125   2.164  51.163  1.00  0.00     0.096 C 
HETATM    2  C3  UNL     1      22.962   1.880  50.478  1.00  0.00     0.058 C 
HETATM    3  C4  UNL     1      21.631   2.187  50.519  1.00  0.00     0.121 C 
HETATM    4  N1  UNL     1      20.707   2.075  51.478  1.00  0.00    -0.254 NA
HETATM    5  C5  UNL     1      19.927   0.991  51.599  1.00  0.00     0.232 C 
HETATM    6  N2  UNL     1      20.800   0.230  52.246  1.00  0.00    -0.254 NA
HETATM    7  C6  UNL     1      21.037   0.410  53.577  1.00  0.00     0.118 C 
HETATM    8  C7  UNL     1      22.413   0.211  53.670  1.00  0.00     0.022 C 
HETATM    9  C8  UNL     1      23.482   0.457  52.802  1.00  0.00     0.034 C 
HETATM   10  C9  UNL     1      24.262   1.521  52.377  1.00  0.00     0.066 C 
ENDROOT
BRANCH  10  11
HETATM   11  N3  UNL     1      25.202   1.810  53.407  1.00  0.00    -0.354 N 
HETATM   12  H10 UNL     1      24.975   2.475  54.175  1.00  0.00     0.166 HD
BRANCH  11  13
HETATM   13  C10 UNL     1      26.464   1.194  53.395  1.00  0.00     0.034 A 
HETATM   14  C11 UNL     1      27.637   1.881  53.625  1.00  0.00     0.032 A 
HETATM   15  C12 UNL     1      28.889   1.275  53.614  1.00  0.00     0.046 A 
HETATM   16  C13 UNL     1      28.980  -0.087  53.360  1.00  0.00     0.138 A 
HETATM   17  F1  UNL     1      30.160  -0.743  53.333  1.00  0.00    -0.204 F 
HETATM   18  C14 UNL     1      27.831  -0.836  53.120  1.00  0.00     0.074 A 
HETATM   19 CL1  UNL     1      27.848  -2.560  52.791  1.00  0.00    -0.081 Cl
HETATM   20  C15 UNL     1      26.618  -0.152  53.150  1.00  0.00     0.056 A 
ENDBRANCH  11  13
ENDBRANCH  10  11
BRANCH   1  21
HETATM   21  O1  UNL     1      25.184   2.997  50.825  1.00  0.00    -0.354 OA
HETATM   22  C1  UNL     1      25.303   3.677  49.613  1.00  0.00     0.210 C 
ENDBRANCH   1  21
TORSDOF 3
ENDMDL
MODEL 6
REMARK VINA RESULT:      -6.7      2.493      4.141
REMARK  3 active torsions:
REMARK  status: ('A' for Active; 'I' for Inactive)
REMARK    1  A    between atoms: O1_2  and  C2_3 
REMARK    2  A    between atoms: C9_12  and  N3_13 
REMARK    3  A    between atoms: N3_13  and  C10_14 
ROOT
HETATM    1  C2  UNL     1      24.628   0.986  52.363  1.00  0.00     0.096 C 
HETATM    2  C3  UNL     1      24.242   0.299  53.495  1.00  0.00     0.058 C 
HETATM    3  C4  UNL     1      23.487  -0.786  53.844  1.00  0.00     0.121 C 
HETATM    4  N1  UNL     1      22.214  -1.116  53.606  1.00  0.00    -0.254 NA
HETATM    5  C5  UNL     1      21.223  -0.807  54.454  1.00  0.00     0.232 C 
HETATM    6  N2  UNL     1      21.050   0.447  54.059  1.00  0.00    -0.254 NA
HETATM    7  C6  UNL     1      20.377   0.734  52.908  1.00  0.00     0.118 C 
HETATM    8  C7  UNL     1      21.111   1.796  52.384  1.00  0.00     0.022 C 
HETATM    9  C8  UNL     1      22.466   2.141  52.422  1.00  0.00     0.034 C 
HETATM   10  C9  UNL     1      23.654   1.787  51.802  1.00  0.00     0.066 C 
ENDROOT
BRANCH  10  11
HETATM   11  N3  UNL     1      23.670   2.393  50.513  1.00  0.00    -0.354 N 
HETATM   12  H10 UNL     1      23.211   1.940  49.696  1.00  0.00     0.166 HD
BRANCH  11  13
HETATM   13  C10 UNL     1      24.317   3.627  50.329  1.00  0.00     0.034 A 
HETATM   14  C11 UNL     1      23.815   4.817  50.811  1.00  0.00     0.032 A 
HETATM   15  C12 UNL     1      24.452   6.040  50.629  1.00  0.00     0.046 A 
HETATM   16  C13 UNL     1      25.652   6.082  49.931  1.00  0.00     0.138 A 
HETATM   17  F1  UNL     1      26.326   7.232  49.717  1.00  0.00    -0.204 F 
HETATM   18  C14 UNL     1      26.209   4.913  49.421  1.00  0.00     0.074 A 
HETATM   19 CL1  UNL     1      27.721   4.869  48.527  1.00  0.00    -0.081 Cl
HETATM   20  C15 UNL     1      25.508   3.732  49.647  1.00  0.00     0.056 A 
ENDBRANCH  11  13
ENDBRANCH  10  11
BRANCH   1  21
HETATM   21  O1  UNL     1      25.847   1.000  51.696  1.00  0.00    -0.354 OA
HETATM   22  C1  UNL     1      27.031   1.518  52.219  1.00  0.00     0.210 C 
ENDBRANCH   1  21
TORSDOF 3
ENDMDL
MODEL 7
REMARK VINA RESULT:      -6.6      3.523      6.154
REMARK  3 active torsions:
REMARK  status: ('A' for Active; 'I' for Inactive)
REMARK    1  A    between atoms: O1_2  and  C2_3 
REMARK    2  A    between atoms: C9_12  and  N3_13 
REMARK    3  A    between atoms: N3_13  and  C10_14 
ROOT
HETATM    1  C2  UNL     1      22.895   4.074  51.244  1.00  0.00     0.096 C 
HETATM    2  C3  UNL     1      21.542   4.264  51.434  1.00  0.00     0.058 C 
HETATM    3  C4  UNL     1      20.539   3.836  52.258  1.00  0.00     0.121 C 
HETATM    4  N1  UNL     1      20.080   2.619  52.565  1.00  0.00    -0.254 NA
HETATM    5  C5  UNL     1      19.068   2.045  51.898  1.00  0.00     0.232 C 
HETATM    6  N2  UNL     1      19.780   1.598  50.871  1.00  0.00    -0.254 NA
HETATM    7  C6  UNL     1      20.555   0.483  50.986  1.00  0.00     0.118 C 
HETATM    8  C7  UNL     1      21.687   0.822  50.247  1.00  0.00     0.022 C 
HETATM    9  C8  UNL     1      22.353   2.028  50.006  1.00  0.00     0.034 C 
HETATM   10  C9  UNL     1      23.241   2.879  50.644  1.00  0.00     0.066 C 
ENDROOT
BRANCH  10  11
HETATM   11  N3  UNL     1      24.538   2.297  50.561  1.00  0.00    -0.354 N 
HETATM   12  H10 UNL     1      25.041   2.222  49.653  1.00  0.00     0.166 HD
BRANCH  11  13
HETATM   13  C10 UNL     1      25.161   1.810  51.723  1.00  0.00     0.034 A 
HETATM   14  C11 UNL     1      24.593   0.848  52.531  1.00  0.00     0.032 A 
HETATM   15  C12 UNL     1      25.206   0.364  53.681  1.00  0.00     0.046 A 
HETATM   16  C13 UNL     1      26.450   0.862  54.048  1.00  0.00     0.138 A 
HETATM   17  F1  UNL     1      27.104   0.439  55.151  1.00  0.00    -0.204 F 
HETATM   18  C14 UNL     1      27.073   1.834  53.272  1.00  0.00     0.074 A 
HETATM   19 CL1  UNL     1      28.643   2.522  53.656  1.00  0.00    -0.081 Cl
HETATM   20  C15 UNL     1      26.392   2.265  52.136  1.00  0.00     0.056 A 
ENDBRANCH  11  13
ENDBRANCH  10  11
BRANCH   1  21
HETATM   21  O1  UNL     1      23.968   4.896  51.560  1.00  0.00    -0.354 OA
HETATM   22  C1  UNL     1      24.045   6.255  51.254  1.00  0.00     0.210 C 
ENDBRANCH   1  21
TORSDOF 3
ENDMDL
MODEL 8
REMARK VINA RESULT:      -6.5      7.357      9.087
REMARK  3 active torsions:
REMARK  status: ('A' for Active; 'I' for Inactive)
REMARK    1  A    between atoms: O1_2  and  C2_3 
REMARK    2  A    between atoms: C9_12  and  N3_13 
REMARK    3  A    between atoms: N3_13  and  C10_14 
ROOT
HETATM    1  C2  UNL     1      31.145   8.045  48.632  1.00  0.00     0.096 C 
HETATM    2  C3  UNL     1      32.461   7.981  49.039  1.00  0.00     0.058 C 
HETATM    3  C4  UNL     1      33.712   7.878  48.499  1.00  0.00     0.121 C 
HETATM    4  N1  UNL     1      34.267   6.990  47.668  1.00  0.00    -0.254 NA
HETATM    5  C5  UNL     1      34.938   5.916  48.111  1.00  0.00     0.232 C 
HETATM    6  N2  UNL     1      33.883   5.147  48.348  1.00  0.00    -0.254 NA
HETATM    7  C6  UNL     1      33.227   4.523  47.328  1.00  0.00     0.118 C 
HETATM    8  C7  UNL     1      31.892   4.635  47.713  1.00  0.00     0.022 C 
HETATM    9  C8  UNL     1      31.173   5.602  48.424  1.00  0.00     0.034 C 
HETATM   10  C9  UNL     1      30.602   6.846  48.213  1.00  0.00     0.066 C 
ENDROOT
BRANCH  10  11
HETATM   11  N3  UNL     1      29.383   6.651  47.502  1.00  0.00    -0.354 N 
HETATM   12  H10 UNL     1      29.342   6.737  46.466  1.00  0.00     0.166 HD
BRANCH  11  13
HETATM   13  C10 UNL     1      28.207   6.340  48.204  1.00  0.00     0.034 A 
HETATM   14  C11 UNL     1      27.309   7.297  48.626  1.00  0.00     0.032 A 
HETATM   15  C12 UNL     1      26.144   6.993  49.321  1.00  0.00     0.046 A 
HETATM   16  C13 UNL     1      25.855   5.666  49.612  1.00  0.00     0.138 A 
HETATM   17  F1  UNL     1      24.743   5.296  50.283  1.00  0.00    -0.204 F 
HETATM   18  C14 UNL     1      26.723   4.654  49.211  1.00  0.00     0.074 A 
HETATM   19 CL1  UNL     1      26.440   2.951  49.533  1.00  0.00    -0.081 Cl
HETATM   20  C15 UNL     1      27.867   5.044  48.520  1.00  0.00     0.056 A 
ENDBRANCH  11  13
ENDBRANCH  10  11
BRANCH   1  21
HETATM   21  O1  UNL     1      30.277   9.127  48.576  1.00  0.00    -0.354 OA
HETATM   22  C1  UNL     1      30.657  10.459  48.738  1.00  0.00     0.210 C 
ENDBRANCH   1  21
TORSDOF 3
ENDMDL
MODEL 9
REMARK VINA RESULT:      -6.4      2.452      3.842
REMARK  3 active torsions:
REMARK  status: ('A' for Active; 'I' for Inactive)
REMARK    1  A    between atoms: O1_2  and  C2_3 
REMARK    2  A    between atoms: C9_12  and  N3_13 
REMARK    3  A    between atoms: N3_13  and  C10_14 
ROOT
HETATM    1  C2  UNL     1      25.982   2.488  50.668  1.00  0.00     0.096 C 
HETATM    2  C3  UNL     1      26.748   1.816  51.597  1.00  0.00     0.058 C 
HETATM    3  C4  UNL     1      26.996   0.536  52.009  1.00  0.00     0.121 C 
HETATM    4  N1  UNL     1      26.197  -0.444  52.442  1.00  0.00    -0.254 NA
HETATM    5  C5  UNL     1      25.932  -0.631  53.743  1.00  0.00     0.232 C 
HETATM    6  N2  UNL     1      24.985   0.291  53.854  1.00  0.00    -0.254 NA
HETATM    7  C6  UNL     1      23.722   0.059  53.394  1.00  0.00     0.118 C 
HETATM    8  C7  UNL     1      23.366   1.292  52.849  1.00  0.00     0.022 C 
HETATM    9  C8  UNL     1      24.089   2.309  52.216  1.00  0.00     0.034 C 
HETATM   10  C9  UNL     1      24.639   2.585  50.975  1.00  0.00     0.066 C 
ENDROOT
BRANCH  10  11
HETATM   11  N3  UNL     1      23.581   2.976  50.106  1.00  0.00    -0.354 N 
HETATM   12  H10 UNL     1      23.287   2.377  49.307  1.00  0.00     0.166 HD
BRANCH  11  13
HETATM   13  C10 UNL     1      22.913   4.193  50.321  1.00  0.00     0.034 A 
HETATM   14  C11 UNL     1      21.542   4.287  50.435  1.00  0.00     0.032 A 
HETATM   15  C12 UNL     1      20.878   5.490  50.646  1.00  0.00     0.046 A 
HETATM   16  C13 UNL     1      21.615   6.663  50.750  1.00  0.00     0.138 A 
HETATM   17  F1  UNL     1      21.038   7.866  50.955  1.00  0.00    -0.204 F 
HETATM   18  C14 UNL     1      23.002   6.632  50.644  1.00  0.00     0.074 A 
HETATM   19 CL1  UNL     1      24.016   8.061  50.762  1.00  0.00    -0.081 Cl
HETATM   20  C15 UNL     1      23.589   5.387  50.432  1.00  0.00     0.056 A 
ENDBRANCH  11  13
ENDBRANCH  10  11
BRANCH   1  21
HETATM   21  O1  UNL     1      26.348   3.085  49.469  1.00  0.00    -0.354 OA
HETATM   22  C1  UNL     1      26.933   4.346  49.356  1.00  0.00     0.210 C 
ENDBRANCH   1  21
TORSDOF 3
ENDMDL
