MODEL 1
REMARK VINA RESULT:      -7.4      0.000      0.000
REMARK  7 active torsions:
REMARK  status: ('A' for Active; 'I' for Inactive)
REMARK    1  A    between atoms: C3_5  and  C4_6 
REMARK    2  A    between atoms: C9_13  and  N4_14 
REMARK    3  A    between atoms: N4_14  and  C10_15 
REMARK    4  A    between atoms: C10_15  and  N5_17 
REMARK    5  A    between atoms: N5_17  and  C11_18 
REMARK    6  A    between atoms: C11_18  and  C12_19 
REMARK    7  A    between atoms: C12_19  and  N6_20 
ROOT
HETATM    1  C4  UNL     1      24.862  -0.132  54.100  1.00  0.00     0.078 A 
HETATM    2  N2  UNL     1      25.099  -0.978  55.153  1.00  0.00    -0.243 NA
HETATM    3  C5  UNL     1      24.156  -1.646  55.823  1.00  0.00     0.234 A 
HETATM    4  N3  UNL     1      22.847  -1.554  55.526  1.00  0.00    -0.241 NA
HETATM    5  C6  UNL     1      22.501  -0.736  54.493  1.00  0.00     0.070 A 
HETATM    6  C7  UNL     1      21.175  -0.618  54.163  1.00  0.00     0.035 A 
HETATM    7  C8  UNL     1      20.871   0.218  53.113  1.00  0.00     0.032 A 
HETATM    8  C9  UNL     1      21.819   0.932  52.389  1.00  0.00     0.035 A 
HETATM    9  C17 UNL     1      23.117   0.745  52.799  1.00  0.00     0.045 A 
HETATM   10  C18 UNL     1      23.508  -0.067  53.832  1.00  0.00     0.022 A 
ENDROOT
BRANCH   8  11
HETATM   11  N4  UNL     1      21.514   1.797  51.308  1.00  0.00    -0.333 N 
HETATM   12  H7  UNL     1      21.897   1.533  50.389  1.00  0.00     0.168 HD
BRANCH  11  13
HETATM   13  C10 UNL     1      20.748   2.986  51.315  1.00  0.00     0.172 C 
HETATM   14  S1  UNL     1      19.140   3.275  51.518  1.00  0.00    -0.041 SA
BRANCH  13  15
HETATM   15  N5  UNL     1      21.429   4.246  51.111  1.00  0.00    -0.365 N 
HETATM   16  H8  UNL     1      21.225   4.984  50.418  1.00  0.00     0.161 HD
BRANCH  15  17
HETATM   17  C11 UNL     1      22.561   4.548  51.985  1.00  0.00     0.152 C 
BRANCH  17  18
HETATM   18  C12 UNL     1      23.781   5.000  51.235  1.00  0.00     0.292 C 
BRANCH  18  19
HETATM   19  N6  UNL     1      24.372   4.040  50.371  1.00  0.00     0.094 N 
HETATM   20  C13 UNL     1      25.178   3.032  50.962  1.00  0.00     0.298 C 
HETATM   21  C14 UNL     1      26.630   3.062  50.638  1.00  0.00     0.198 C 
HETATM   22  O1  UNL     1      26.948   3.532  49.381  1.00  0.00    -0.388 OA
HETATM   23  C15 UNL     1      26.435   4.841  49.301  1.00  0.00     0.198 C 
HETATM   24  C16 UNL     1      24.933   4.682  49.230  1.00  0.00     0.298 C 
ENDBRANCH  18  19
ENDBRANCH  17  18
ENDBRANCH  15  17
ENDBRANCH  13  15
ENDBRANCH  11  13
ENDBRANCH   8  11
BRANCH   1  25
HETATM   25  C3  UNL     1      25.967   0.517  53.471  1.00  0.00     0.198 A 
HETATM   26  C1  UNL     1      27.137  -0.160  52.935  1.00  0.00     0.137 A 
HETATM   27  F1  UNL     1      26.992  -1.252  52.115  1.00  0.00    -0.207 F 
HETATM   28  C2  UNL     1      28.011   0.706  53.501  1.00  0.00     0.124 A 
HETATM   29  N1  UNL     1      26.890   1.365  54.138  1.00  0.00    -0.381 N 
HETATM   30  H2  UNL     1      27.124   2.160  54.801  1.00  0.00     0.160 HD
ENDBRANCH   1  25
TORSDOF 7
ENDMDL
MODEL 2
REMARK VINA RESULT:      -7.4      1.536      1.909
REMARK  7 active torsions:
REMARK  status: ('A' for Active; 'I' for Inactive)
REMARK    1  A    between atoms: C3_5  and  C4_6 
REMARK    2  A    between atoms: C9_13  and  N4_14 
REMARK    3  A    between atoms: N4_14  and  C10_15 
REMARK    4  A    between atoms: C10_15  and  N5_17 
REMARK    5  A    between atoms: N5_17  and  C11_18 
REMARK    6  A    between atoms: C11_18  and  C12_19 
REMARK    7  A    between atoms: C12_19  and  N6_20 
ROOT
HETATM    1  C4  UNL     1      24.656  -0.326  53.811  1.00  0.00     0.078 A 
HETATM    2  N2  UNL     1      25.103  -0.888  54.980  1.00  0.00    -0.243 NA
HETATM    3  C5  UNL     1      24.323  -1.468  55.895  1.00  0.00     0.234 A 
HETATM    4  N3  UNL     1      22.987  -1.562  55.761  1.00  0.00    -0.241 NA
HETATM    5  C6  UNL     1      22.438  -1.032  54.633  1.00  0.00     0.070 A 
HETATM    6  C7  UNL     1      21.079  -1.110  54.463  1.00  0.00     0.035 A 
HETATM    7  C8  UNL     1      20.567  -0.564  53.309  1.00  0.00     0.032 A 
HETATM    8  C9  UNL     1      21.341   0.050  52.330  1.00  0.00     0.035 A 
HETATM    9  C17 UNL     1      22.690   0.076  52.595  1.00  0.00     0.045 A 
HETATM   10  C18 UNL     1      23.283  -0.444  53.716  1.00  0.00     0.022 A 
ENDROOT
BRANCH   8  11
HETATM   11  N4  UNL     1      20.822   0.618  51.139  1.00  0.00    -0.333 N 
HETATM   12  H7  UNL     1      20.611  -0.038  50.374  1.00  0.00     0.168 HD
BRANCH  11  13
HETATM   13  C10 UNL     1      20.549   1.976  50.853  1.00  0.00     0.172 C 
HETATM   14  S1  UNL     1      19.728   3.144  51.671  1.00  0.00    -0.041 SA
BRANCH  13  15
HETATM   15  N5  UNL     1      21.053   2.534  49.617  1.00  0.00    -0.365 N 
HETATM   16  H8  UNL     1      20.548   3.089  48.908  1.00  0.00     0.161 HD
BRANCH  15  17
HETATM   17  C11 UNL     1      22.460   2.302  49.298  1.00  0.00     0.152 C 
BRANCH  17  18
HETATM   18  C12 UNL     1      23.212   3.566  48.993  1.00  0.00     0.292 C 
BRANCH  18  19
HETATM   19  N6  UNL     1      23.972   4.112  50.061  1.00  0.00     0.094 N 
HETATM   20  C13 UNL     1      24.266   3.261  51.160  1.00  0.00     0.298 C 
HETATM   21  C14 UNL     1      23.639   3.613  52.463  1.00  0.00     0.198 C 
HETATM   22  O1  UNL     1      23.444   4.962  52.683  1.00  0.00    -0.388 OA
HETATM   23  C15 UNL     1      22.619   5.422  51.640  1.00  0.00     0.198 C 
HETATM   24  C16 UNL     1      23.485   5.407  50.402  1.00  0.00     0.298 C 
ENDBRANCH  18  19
ENDBRANCH  17  18
ENDBRANCH  15  17
ENDBRANCH  13  15
ENDBRANCH  11  13
ENDBRANCH   8  11
BRANCH   1  25
HETATM   25  C3  UNL     1      25.603   0.259  52.917  1.00  0.00     0.198 A 
HETATM   26  C1  UNL     1      26.812  -0.392  52.440  1.00  0.00     0.137 A 
HETATM   27  F1  UNL     1      26.761  -1.673  51.943  1.00  0.00    -0.207 F 
HETATM   28  C2  UNL     1      27.594   0.689  52.666  1.00  0.00     0.124 A 
HETATM   29  N1  UNL     1      26.444   1.356  53.239  1.00  0.00    -0.381 N 
HETATM   30  H2  UNL     1      26.613   2.320  53.650  1.00  0.00     0.160 HD
ENDBRANCH   1  25
TORSDOF 7
ENDMDL
MODEL 3
REMARK VINA RESULT:      -7.3      2.742      3.680
REMARK  7 active torsions:
REMARK  status: ('A' for Active; 'I' for Inactive)
REMARK    1  A    between atoms: C3_5  and  C4_6 
REMARK    2  A    between atoms: C9_13  and  N4_14 
REMARK    3  A    between atoms: N4_14  and  C10_15 
REMARK    4  A    between atoms: C10_15  and  N5_17 
REMARK    5  A    between atoms: N5_17  and  C11_18 
REMARK    6  A    between atoms: C11_18  and  C12_19 
REMARK    7  A    between atoms: C12_19  and  N6_20 
ROOT
HETATM    1  C4  UNL     1      25.828   0.089  53.879  1.00  0.00     0.078 A 
HETATM    2  N2  UNL     1      25.407  -0.821  54.816  1.00  0.00    -0.243 NA
HETATM    3  C5  UNL     1      24.138  -1.188  55.007  1.00  0.00     0.234 A 
HETATM    4  N3  UNL     1      23.118  -0.690  54.283  1.00  0.00    -0.241 NA
HETATM    5  C6  UNL     1      23.427   0.224  53.322  1.00  0.00     0.070 A 
HETATM    6  C7  UNL     1      22.413   0.752  52.565  1.00  0.00     0.035 A 
HETATM    7  C8  UNL     1      22.771   1.671  51.605  1.00  0.00     0.032 A 
HETATM    8  C9  UNL     1      24.078   2.082  51.373  1.00  0.00     0.035 A 
HETATM    9  C17 UNL     1      25.019   1.495  52.184  1.00  0.00     0.045 A 
HETATM   10  C18 UNL     1      24.751   0.572  53.162  1.00  0.00     0.022 A 
ENDROOT
BRANCH   8  11
HETATM   11  N4  UNL     1      24.455   3.031  50.389  1.00  0.00    -0.333 N 
HETATM   12  H7  UNL     1      24.540   2.680  49.424  1.00  0.00     0.168 HD
BRANCH  11  13
HETATM   13  C10 UNL     1      24.734   4.408  50.548  1.00  0.00     0.172 C 
HETATM   14  S1  UNL     1      23.842   5.666  51.124  1.00  0.00    -0.041 SA
BRANCH  13  15
HETATM   15  N5  UNL     1      26.037   4.898  50.154  1.00  0.00    -0.365 N 
HETATM   16  H8  UNL     1      26.933   4.824  50.660  1.00  0.00     0.161 HD
BRANCH  15  17
HETATM   17  C11 UNL     1      26.133   5.595  48.873  1.00  0.00     0.152 C 
BRANCH  17  18
HETATM   18  C12 UNL     1      27.517   6.101  48.580  1.00  0.00     0.292 C 
BRANCH  18  19
HETATM   19  N6  UNL     1      27.620   7.479  48.251  1.00  0.00     0.094 N 
HETATM   20  C13 UNL     1      28.916   8.058  48.246  1.00  0.00     0.298 C 
HETATM   21  C14 UNL     1      29.190   9.090  49.283  1.00  0.00     0.198 C 
HETATM   22  O1  UNL     1      28.107   9.857  49.658  1.00  0.00    -0.388 OA
HETATM   23  C15 UNL     1      27.134   8.965  50.147  1.00  0.00     0.198 C 
HETATM   24  C16 UNL     1      26.617   8.225  48.935  1.00  0.00     0.298 C 
ENDBRANCH  18  19
ENDBRANCH  17  18
ENDBRANCH  15  17
ENDBRANCH  13  15
ENDBRANCH  11  13
ENDBRANCH   8  11
BRANCH   1  25
HETATM   25  C3  UNL     1      27.221   0.386  53.781  1.00  0.00     0.198 A 
HETATM   26  C1  UNL     1      28.283  -0.604  53.705  1.00  0.00     0.137 A 
HETATM   27  F1  UNL     1      28.191  -1.654  52.824  1.00  0.00    -0.207 F 
HETATM   28  C2  UNL     1      29.056   0.020  54.625  1.00  0.00     0.124 A 
HETATM   29  N1  UNL     1      27.992   0.985  54.811  1.00  0.00    -0.381 N 
HETATM   30  H2  UNL     1      28.145   1.717  55.564  1.00  0.00     0.160 HD
ENDBRANCH   1  25
TORSDOF 7
ENDMDL
MODEL 4
REMARK VINA RESULT:      -7.3      2.289      3.074
REMARK  7 active torsions:
REMARK  status: ('A' for Active; 'I' for Inactive)
REMARK    1  A    between atoms: C3_5  and  C4_6 
REMARK    2  A    between atoms: C9_13  and  N4_14 
REMARK    3  A    between atoms: N4_14  and  C10_15 
REMARK    4  A    between atoms: C10_15  and  N5_17 
REMARK    5  A    between atoms: N5_17  and  C11_18 
REMARK    6  A    between atoms: C11_18  and  C12_19 
REMARK    7  A    between atoms: C12_19  and  N6_20 
ROOT
HETATM    1  C4  UNL     1      25.431  -0.300  54.341  1.00  0.00     0.078 A 
HETATM    2  N2  UNL     1      25.161  -1.151  55.383  1.00  0.00    -0.243 NA
HETATM    3  C5  UNL     1      23.943  -1.579  55.722  1.00  0.00     0.234 A 
HETATM    4  N3  UNL     1      22.830  -1.212  55.061  1.00  0.00    -0.241 NA
HETATM    5  C6  UNL     1      22.987  -0.365  54.006  1.00  0.00     0.070 A 
HETATM    6  C7  UNL     1      21.874   0.031  53.309  1.00  0.00     0.035 A 
HETATM    7  C8  UNL     1      22.078   0.885  52.250  1.00  0.00     0.032 A 
HETATM    8  C9  UNL     1      23.327   1.357  51.862  1.00  0.00     0.035 A 
HETATM    9  C17 UNL     1      24.376   0.901  52.625  1.00  0.00     0.045 A 
HETATM   10  C18 UNL     1      24.263   0.051  53.693  1.00  0.00     0.022 A 
ENDROOT
BRANCH   8  11
HETATM   11  N4  UNL     1      23.547   2.239  50.774  1.00  0.00    -0.333 N 
HETATM   12  H7  UNL     1      23.078   1.999  49.889  1.00  0.00     0.168 HD
BRANCH  11  13
HETATM   13  C10 UNL     1      24.328   3.418  50.735  1.00  0.00     0.172 C 
HETATM   14  S1  UNL     1      25.367   4.029  49.614  1.00  0.00    -0.041 SA
BRANCH  13  15
HETATM   15  N5  UNL     1      24.263   4.326  51.859  1.00  0.00    -0.365 N 
HETATM   16  H8  UNL     1      25.028   4.646  52.473  1.00  0.00     0.161 HD
BRANCH  15  17
HETATM   17  C11 UNL     1      22.956   4.885  52.198  1.00  0.00     0.152 C 
BRANCH  17  18
HETATM   18  C12 UNL     1      22.474   5.903  51.204  1.00  0.00     0.292 C 
BRANCH  18  19
HETATM   19  N6  UNL     1      21.217   5.636  50.599  1.00  0.00     0.094 N 
HETATM   20  C13 UNL     1      20.490   4.509  51.065  1.00  0.00     0.298 C 
HETATM   21  C14 UNL     1      20.308   3.388  50.104  1.00  0.00     0.198 C 
HETATM   22  O1  UNL     1      20.214   3.753  48.776  1.00  0.00    -0.388 OA
HETATM   23  C15 UNL     1      21.406   4.434  48.464  1.00  0.00     0.198 C 
HETATM   24  C16 UNL     1      21.314   5.760  49.183  1.00  0.00     0.298 C 
ENDBRANCH  18  19
ENDBRANCH  17  18
ENDBRANCH  15  17
ENDBRANCH  13  15
ENDBRANCH  11  13
ENDBRANCH   8  11
BRANCH   1  25
HETATM   25  C3  UNL     1      26.785   0.075  54.087  1.00  0.00     0.198 A 
HETATM   26  C1  UNL     1      27.624  -0.483  53.039  1.00  0.00     0.137 A 
HETATM   27  F1  UNL     1      27.150  -0.588  51.753  1.00  0.00    -0.207 F 
HETATM   28  C2  UNL     1      28.690  -0.655  53.856  1.00  0.00     0.124 A 
HETATM   29  N1  UNL     1      27.873  -0.193  54.959  1.00  0.00    -0.381 N 
HETATM   30  H2  UNL     1      28.323  -0.213  55.920  1.00  0.00     0.160 HD
ENDBRANCH   1  25
TORSDOF 7
ENDMDL
MODEL 5
REMARK VINA RESULT:      -7.3      1.812      2.181
REMARK  7 active torsions:
REMARK  status: ('A' for Active; 'I' for Inactive)
REMARK    1  A    between atoms: C3_5  and  C4_6 
REMARK    2  A    between atoms: C9_13  and  N4_14 
REMARK    3  A    between atoms: N4_14  and  C10_15 
REMARK    4  A    between atoms: C10_15  and  N5_17 
REMARK    5  A    between atoms: N5_17  and  C11_18 
REMARK    6  A    between atoms: C11_18  and  C12_19 
REMARK    7  A    between atoms: C12_19  and  N6_20 
ROOT
HETATM    1  C4  UNL     1      25.195  -0.400  54.349  1.00  0.00     0.078 A 
HETATM    2  N2  UNL     1      25.006  -1.222  55.431  1.00  0.00    -0.243 NA
HETATM    3  C5  UNL     1      23.822  -1.679  55.846  1.00  0.00     0.234 A 
HETATM    4  N3  UNL     1      22.665  -1.370  55.231  1.00  0.00    -0.241 NA
HETATM    5  C6  UNL     1      22.740  -0.556  54.142  1.00  0.00     0.070 A 
HETATM    6  C7  UNL     1      21.581  -0.221  53.490  1.00  0.00     0.035 A 
HETATM    7  C8  UNL     1      21.703   0.603  52.394  1.00  0.00     0.032 A 
HETATM    8  C9  UNL     1      22.914   1.101  51.928  1.00  0.00     0.035 A 
HETATM    9  C17 UNL     1      24.015   0.707  52.651  1.00  0.00     0.045 A 
HETATM   10  C18 UNL     1      23.984  -0.110  53.751  1.00  0.00     0.022 A 
ENDROOT
BRANCH   8  11
HETATM   11  N4  UNL     1      23.048   1.953  50.802  1.00  0.00    -0.333 N 
HETATM   12  H7  UNL     1      23.963   2.410  50.681  1.00  0.00     0.168 HD
BRANCH  11  13
HETATM   13  C10 UNL     1      22.090   2.265  49.810  1.00  0.00     0.172 C 
HETATM   14  S1  UNL     1      21.885   1.753  48.259  1.00  0.00    -0.041 SA
BRANCH  13  15
HETATM   15  N5  UNL     1      21.047   3.214  50.133  1.00  0.00    -0.365 N 
HETATM   16  H8  UNL     1      20.055   3.203  49.846  1.00  0.00     0.161 HD
BRANCH  15  17
HETATM   17  C11 UNL     1      21.408   4.349  50.979  1.00  0.00     0.152 C 
BRANCH  17  18
HETATM   18  C12 UNL     1      22.147   5.426  50.237  1.00  0.00     0.292 C 
BRANCH  18  19
HETATM   19  N6  UNL     1      23.164   6.098  50.966  1.00  0.00     0.094 N 
HETATM   20  C13 UNL     1      23.313   7.494  50.751  1.00  0.00     0.298 C 
HETATM   21  C14 UNL     1      24.575   7.938  50.100  1.00  0.00     0.198 C 
HETATM   22  O1  UNL     1      25.689   7.174  50.380  1.00  0.00    -0.388 OA
HETATM   23  C15 UNL     1      25.393   5.865  49.956  1.00  0.00     0.198 C 
HETATM   24  C16 UNL     1      24.371   5.342  50.940  1.00  0.00     0.298 C 
ENDBRANCH  18  19
ENDBRANCH  17  18
ENDBRANCH  15  17
ENDBRANCH  13  15
ENDBRANCH  11  13
ENDBRANCH   8  11
BRANCH   1  25
HETATM   25  C3  UNL     1      26.520   0.011  54.015  1.00  0.00     0.198 A 
HETATM   26  C1  UNL     1      27.341  -0.587  52.973  1.00  0.00     0.137 A 
HETATM   27  F1  UNL     1      26.823  -0.799  51.718  1.00  0.00    -0.207 F 
HETATM   28  C2  UNL     1      28.444  -0.658  53.755  1.00  0.00     0.124 A 
HETATM   29  N1  UNL     1      27.651  -0.153  54.857  1.00  0.00    -0.381 N 
HETATM   30  H2  UNL     1      28.138  -0.087  55.798  1.00  0.00     0.160 HD
ENDBRANCH   1  25
TORSDOF 7
ENDMDL
MODEL 6
REMARK VINA RESULT:      -7.3      2.361      2.909
REMARK  7 active torsions:
REMARK  status: ('A' for Active; 'I' for Inactive)
REMARK    1  A    between atoms: C3_5  and  C4_6 
REMARK    2  A    between atoms: C9_13  and  N4_14 
REMARK    3  A    between atoms: N4_14  and  C10_15 
REMARK    4  A    between atoms: C10_15  and  N5_17 
REMARK    5  A    between atoms: N5_17  and  C11_18 
REMARK    6  A    between atoms: C11_18  and  C12_19 
REMARK    7  A    between atoms: C12_19  and  N6_20 
ROOT
HETATM    1  C4  UNL     1      25.415  -0.247  54.268  1.00  0.00     0.078 A 
HETATM    2  N2  UNL     1      25.085  -1.092  55.296  1.00  0.00    -0.243 NA
HETATM    3  C5  UNL     1      23.846  -1.500  55.581  1.00  0.00     0.234 A 
HETATM    4  N3  UNL     1      22.770  -1.113  54.872  1.00  0.00    -0.241 NA
HETATM    5  C6  UNL     1      22.987  -0.269  53.825  1.00  0.00     0.070 A 
HETATM    6  C7  UNL     1      21.914   0.145  53.080  1.00  0.00     0.035 A 
HETATM    7  C8  UNL     1      22.179   0.996  52.032  1.00  0.00     0.032 A 
HETATM    8  C9  UNL     1      23.452   1.446  51.699  1.00  0.00     0.035 A 
HETATM    9  C17 UNL     1      24.458   0.972  52.507  1.00  0.00     0.045 A 
HETATM   10  C18 UNL     1      24.283   0.124  53.569  1.00  0.00     0.022 A 
ENDROOT
BRANCH   8  11
HETATM   11  N4  UNL     1      23.734   2.324  50.623  1.00  0.00    -0.333 N 
HETATM   12  H7  UNL     1      23.162   2.206  49.774  1.00  0.00     0.168 HD
BRANCH  11  13
HETATM   13  C10 UNL     1      24.702   3.353  50.551  1.00  0.00     0.172 C 
HETATM   14  S1  UNL     1      26.115   3.497  49.720  1.00  0.00    -0.041 SA
BRANCH  13  15
HETATM   15  N5  UNL     1      24.490   4.555  51.329  1.00  0.00    -0.365 N 
HETATM   16  H8  UNL     1      24.713   4.727  52.322  1.00  0.00     0.161 HD
BRANCH  15  17
HETATM   17  C11 UNL     1      23.882   5.697  50.650  1.00  0.00     0.152 C 
BRANCH  17  18
HETATM   18  C12 UNL     1      24.431   7.017  51.110  1.00  0.00     0.292 C 
BRANCH  18  19
HETATM   19  N6  UNL     1      24.850   7.909  50.087  1.00  0.00     0.094 N 
HETATM   20  C13 UNL     1      24.205   7.811  48.826  1.00  0.00     0.298 C 
HETATM   21  C14 UNL     1      25.039   7.351  47.683  1.00  0.00     0.198 C 
HETATM   22  O1  UNL     1      26.370   7.710  47.737  1.00  0.00    -0.388 OA
HETATM   23  C15 UNL     1      26.885   7.163  48.928  1.00  0.00     0.198 C 
HETATM   24  C16 UNL     1      26.272   7.977  50.044  1.00  0.00     0.298 C 
ENDBRANCH  18  19
ENDBRANCH  17  18
ENDBRANCH  15  17
ENDBRANCH  13  15
ENDBRANCH  11  13
ENDBRANCH   8  11
BRANCH   1  25
HETATM   25  C3  UNL     1      26.785   0.105  54.074  1.00  0.00     0.198 A 
HETATM   26  C1  UNL     1      27.651  -0.445  53.043  1.00  0.00     0.137 A 
HETATM   27  F1  UNL     1      27.224  -0.506  51.738  1.00  0.00    -0.207 F 
HETATM   28  C2  UNL     1      28.682  -0.661  53.894  1.00  0.00     0.124 A 
HETATM   29  N1  UNL     1      27.834  -0.209  54.978  1.00  0.00    -0.381 N 
HETATM   30  H2  UNL     1      28.247  -0.264  55.954  1.00  0.00     0.160 HD
ENDBRANCH   1  25
TORSDOF 7
ENDMDL
MODEL 7
REMARK VINA RESULT:      -7.1      2.685      5.037
REMARK  7 active torsions:
REMARK  status: ('A' for Active; 'I' for Inactive)
REMARK    1  A    between atoms: C3_5  and  C4_6 
REMARK    2  A    between atoms: C9_13  and  N4_14 
REMARK    3  A    between atoms: N4_14  and  C10_15 
REMARK    4  A    between atoms: C10_15  and  N5_17 
REMARK    5  A    between atoms: N5_17  and  C11_18 
REMARK    6  A    between atoms: C11_18  and  C12_19 
REMARK    7  A    between atoms: C12_19  and  N6_20 
ROOT
HETATM    1  C4  UNL     1      24.363  -0.071  53.297  1.00  0.00     0.078 A 
HETATM    2  N2  UNL     1      25.367  -0.895  53.736  1.00  0.00    -0.243 NA
HETATM    3  C5  UNL     1      26.649  -0.793  53.378  1.00  0.00     0.234 A 
HETATM    4  N3  UNL     1      27.097   0.151  52.529  1.00  0.00    -0.241 NA
HETATM    5  C6  UNL     1      26.178   1.024  52.031  1.00  0.00     0.070 A 
HETATM    6  C7  UNL     1      26.598   1.999  51.164  1.00  0.00     0.035 A 
HETATM    7  C8  UNL     1      25.637   2.860  50.687  1.00  0.00     0.032 A 
HETATM    8  C9  UNL     1      24.291   2.791  51.032  1.00  0.00     0.035 A 
HETATM    9  C17 UNL     1      23.974   1.779  51.906  1.00  0.00     0.045 A 
HETATM   10  C18 UNL     1      24.866   0.880  52.430  1.00  0.00     0.022 A 
ENDROOT
BRANCH   8  11
HETATM   11  N4  UNL     1      23.294   3.671  50.543  1.00  0.00    -0.333 N 
HETATM   12  H7  UNL     1      22.922   4.358  51.214  1.00  0.00     0.168 HD
BRANCH  11  13
HETATM   13  C10 UNL     1      22.731   3.739  49.247  1.00  0.00     0.172 C 
HETATM   14  S1  UNL     1      22.163   4.992  48.343  1.00  0.00    -0.041 SA
BRANCH  13  15
HETATM   15  N5  UNL     1      22.589   2.513  48.492  1.00  0.00    -0.365 N 
HETATM   16  H8  UNL     1      23.324   1.948  48.038  1.00  0.00     0.161 HD
BRANCH  15  17
HETATM   17  C11 UNL     1      21.241   1.975  48.332  1.00  0.00     0.152 C 
BRANCH  17  18
HETATM   18  C12 UNL     1      20.791   1.152  49.505  1.00  0.00     0.292 C 
BRANCH  18  19
HETATM   19  N6  UNL     1      19.684   1.661  50.235  1.00  0.00     0.094 N 
HETATM   20  C13 UNL     1      19.232   2.969  49.916  1.00  0.00     0.298 C 
HETATM   21  C14 UNL     1      19.403   4.009  50.966  1.00  0.00     0.198 C 
HETATM   22  O1  UNL     1      19.311   3.560  52.268  1.00  0.00    -0.388 OA
HETATM   23  C15 UNL     1      20.312   2.583  52.425  1.00  0.00     0.198 C 
HETATM   24  C16 UNL     1      19.843   1.390  51.625  1.00  0.00     0.298 C 
ENDBRANCH  18  19
ENDBRANCH  17  18
ENDBRANCH  15  17
ENDBRANCH  13  15
ENDBRANCH  11  13
ENDBRANCH   8  11
BRANCH   1  25
HETATM   25  C3  UNL     1      23.032  -0.291  53.764  1.00  0.00     0.198 A 
HETATM   26  C1  UNL     1      22.664  -1.204  54.835  1.00  0.00     0.137 A 
HETATM   27  F1  UNL     1      23.346  -1.184  56.028  1.00  0.00    -0.207 F 
HETATM   28  C2  UNL     1      21.631  -1.743  54.146  1.00  0.00     0.124 A 
HETATM   29  N1  UNL     1      22.008  -0.924  53.013  1.00  0.00    -0.381 N 
HETATM   30  H2  UNL     1      21.450  -1.067  52.121  1.00  0.00     0.160 HD
ENDBRANCH   1  25
TORSDOF 7
ENDMDL
MODEL 8
REMARK VINA RESULT:      -7.0      1.850      2.356
REMARK  7 active torsions:
REMARK  status: ('A' for Active; 'I' for Inactive)
REMARK    1  A    between atoms: C3_5  and  C4_6 
REMARK    2  A    between atoms: C9_13  and  N4_14 
REMARK    3  A    between atoms: N4_14  and  C10_15 
REMARK    4  A    between atoms: C10_15  and  N5_17 
REMARK    5  A    between atoms: N5_17  and  C11_18 
REMARK    6  A    between atoms: C11_18  and  C12_19 
REMARK    7  A    between atoms: C12_19  and  N6_20 
ROOT
HETATM    1  C4  UNL     1      25.908   0.591  53.689  1.00  0.00     0.078 A 
HETATM    2  N2  UNL     1      26.055  -0.283  54.737  1.00  0.00    -0.243 NA
HETATM    3  C5  UNL     1      25.084  -1.056  55.228  1.00  0.00     0.234 A 
HETATM    4  N3  UNL     1      23.832  -1.057  54.734  1.00  0.00    -0.241 NA
HETATM    5  C6  UNL     1      23.577  -0.222  53.688  1.00  0.00     0.070 A 
HETATM    6  C7  UNL     1      22.313  -0.197  53.159  1.00  0.00     0.035 A 
HETATM    7  C8  UNL     1      22.100   0.660  52.104  1.00  0.00     0.032 A 
HETATM    8  C9  UNL     1      23.081   1.483  51.561  1.00  0.00     0.035 A 
HETATM    9  C17 UNL     1      24.313   1.382  52.163  1.00  0.00     0.045 A 
HETATM   10  C18 UNL     1      24.611   0.557  53.215  1.00  0.00     0.022 A 
ENDROOT
BRANCH   8  11
HETATM   11  N4  UNL     1      22.870   2.370  50.476  1.00  0.00    -0.333 N 
HETATM   12  H7  UNL     1      23.022   1.984  49.534  1.00  0.00     0.168 HD
BRANCH  11  13
HETATM   13  C10 UNL     1      22.475   3.728  50.508  1.00  0.00     0.172 C 
HETATM   14  S1  UNL     1      22.453   4.855  51.708  1.00  0.00    -0.041 SA
BRANCH  13  15
HETATM   15  N5  UNL     1      21.980   4.331  49.289  1.00  0.00    -0.365 N 
HETATM   16  H8  UNL     1      21.318   3.939  48.600  1.00  0.00     0.161 HD
BRANCH  15  17
HETATM   17  C11 UNL     1      22.457   5.671  48.959  1.00  0.00     0.152 C 
BRANCH  17  18
HETATM   18  C12 UNL     1      23.792   5.669  48.270  1.00  0.00     0.292 C 
BRANCH  18  19
HETATM   19  N6  UNL     1      24.845   6.337  48.950  1.00  0.00     0.094 N 
HETATM   20  C13 UNL     1      25.477   7.419  48.282  1.00  0.00     0.298 C 
HETATM   21  C14 UNL     1      26.901   7.225  47.897  1.00  0.00     0.198 C 
HETATM   22  O1  UNL     1      27.642   6.426  48.743  1.00  0.00    -0.388 OA
HETATM   23  C15 UNL     1      27.002   5.173  48.772  1.00  0.00     0.198 C 
HETATM   24  C16 UNL     1      25.724   5.389  49.549  1.00  0.00     0.298 C 
ENDBRANCH  18  19
ENDBRANCH  17  18
ENDBRANCH  15  17
ENDBRANCH  13  15
ENDBRANCH  11  13
ENDBRANCH   8  11
BRANCH   1  25
HETATM   25  C3  UNL     1      27.035   1.356  53.263  1.00  0.00     0.198 A 
HETATM   26  C1  UNL     1      28.424   0.960  53.429  1.00  0.00     0.137 A 
HETATM   27  F1  UNL     1      28.833  -0.303  53.071  1.00  0.00    -0.207 F 
HETATM   28  C2  UNL     1      28.812   2.173  53.886  1.00  0.00     0.124 A 
HETATM   29  N1  UNL     1      27.428   2.596  53.831  1.00  0.00    -0.381 N 
HETATM   30  H2  UNL     1      27.218   3.573  54.192  1.00  0.00     0.160 HD
ENDBRANCH   1  25
TORSDOF 7
ENDMDL
MODEL 9
REMARK VINA RESULT:      -6.9      2.816      3.827
REMARK  7 active torsions:
REMARK  status: ('A' for Active; 'I' for Inactive)
REMARK    1  A    between atoms: C3_5  and  C4_6 
REMARK    2  A    between atoms: C9_13  and  N4_14 
REMARK    3  A    between atoms: N4_14  and  C10_15 
REMARK    4  A    between atoms: C10_15  and  N5_17 
REMARK    5  A    between atoms: N5_17  and  C11_18 
REMARK    6  A    between atoms: C11_18  and  C12_19 
REMARK    7  A    between atoms: C12_19  and  N6_20 
ROOT
HETATM    1  C4  UNL     1      24.759   0.873  53.329  1.00  0.00     0.078 A 
HETATM    2  N2  UNL     1      24.209  -0.383  53.374  1.00  0.00    -0.243 NA
HETATM    3  C5  UNL     1      22.932  -0.666  53.107  1.00  0.00     0.234 A 
HETATM    4  N3  UNL     1      22.033   0.273  52.759  1.00  0.00    -0.241 NA
HETATM    5  C6  UNL     1      22.477   1.559  52.686  1.00  0.00     0.070 A 
HETATM    6  C7  UNL     1      21.589   2.543  52.334  1.00  0.00     0.035 A 
HETATM    7  C8  UNL     1      22.080   3.826  52.271  1.00  0.00     0.032 A 
HETATM    8  C9  UNL     1      23.400   4.167  52.541  1.00  0.00     0.035 A 
HETATM    9  C17 UNL     1      24.209   3.110  52.884  1.00  0.00     0.045 A 
HETATM   10  C18 UNL     1      23.803   1.803  52.970  1.00  0.00     0.022 A 
ENDROOT
BRANCH   8  11
HETATM   11  N4  UNL     1      23.914   5.487  52.481  1.00  0.00    -0.333 N 
HETATM   12  H7  UNL     1      24.221   5.899  53.374  1.00  0.00     0.168 HD
BRANCH  11  13
HETATM   13  C10 UNL     1      24.066   6.327  51.353  1.00  0.00     0.172 C 
HETATM   14  S1  UNL     1      25.207   6.409  50.170  1.00  0.00    -0.041 SA
BRANCH  13  15
HETATM   15  N5  UNL     1      23.068   7.347  51.114  1.00  0.00    -0.365 N 
HETATM   16  H8  UNL     1      23.153   8.370  51.221  1.00  0.00     0.161 HD
BRANCH  15  17
HETATM   17  C11 UNL     1      21.752   6.906  50.657  1.00  0.00     0.152 C 
BRANCH  17  18
HETATM   18  C12 UNL     1      21.745   6.455  49.225  1.00  0.00     0.292 C 
BRANCH  18  19
HETATM   19  N6  UNL     1      21.660   5.053  49.013  1.00  0.00     0.094 N 
HETATM   20  C13 UNL     1      22.505   4.485  48.024  1.00  0.00     0.298 C 
HETATM   21  C14 UNL     1      21.838   3.916  46.822  1.00  0.00     0.198 C 
HETATM   22  O1  UNL     1      20.588   3.372  47.037  1.00  0.00    -0.388 OA
HETATM   23  C15 UNL     1      19.787   4.406  47.559  1.00  0.00     0.198 C 
HETATM   24  C16 UNL     1      20.296   4.643  48.962  1.00  0.00     0.298 C 
ENDBRANCH  18  19
ENDBRANCH  17  18
ENDBRANCH  15  17
ENDBRANCH  13  15
ENDBRANCH  11  13
ENDBRANCH   8  11
BRANCH   1  25
HETATM   25  C3  UNL     1      26.144   1.033  53.636  1.00  0.00     0.198 A 
HETATM   26  C1  UNL     1      27.185   0.065  53.328  1.00  0.00     0.137 A 
HETATM   27  F1  UNL     1      27.271  -0.485  52.072  1.00  0.00    -0.207 F 
HETATM   28  C2  UNL     1      27.750   0.144  54.556  1.00  0.00     0.124 A 
HETATM   29  N1  UNL     1      26.683   1.042  54.949  1.00  0.00    -0.381 N 
HETATM   30  H2  UNL     1      26.681   1.356  55.963  1.00  0.00     0.160 HD
ENDBRANCH   1  25
TORSDOF 7
ENDMDL
