MODEL 1
REMARK VINA RESULT:      -7.7      0.000      0.000
REMARK  4 active torsions:
REMARK  status: ('A' for Active; 'I' for Inactive)
REMARK    1  A    between atoms: C1_2  and  C2_3 
REMARK    2  A    between atoms: C2_3  and  N1_4 
REMARK    3  A    between atoms: C6_8  and  N2_9 
REMARK    4  A    between atoms: N2_9  and  C7_10 
ROOT
HETATM    1  N1  UNL     1      23.428   0.049  52.846  1.00  0.00     0.100 N 
HETATM    2  C3  UNL     1      23.044   1.279  52.177  1.00  0.00     0.301 C 
HETATM    3  C4  UNL     1      24.178   1.782  51.328  1.00  0.00     0.016 C 
HETATM    4  C5  UNL     1      25.309   1.904  52.014  1.00  0.00     0.012 A 
HETATM    5  C6  UNL     1      26.462   2.378  51.284  1.00  0.00     0.137 A 
HETATM    6  N3  UNL     1      27.583   2.486  51.957  1.00  0.00    -0.224 NA
HETATM    7  C13 UNL     1      27.540   2.123  53.348  1.00  0.00     0.229 A 
HETATM    8  N4  UNL     1      26.546   1.705  54.040  1.00  0.00    -0.271 NA
HETATM    9  C14 UNL     1      25.270   1.548  53.439  1.00  0.00     0.174 A 
HETATM   10  C15 UNL     1      24.575   0.239  53.706  1.00  0.00     0.305 C 
ENDROOT
BRANCH   5  11
HETATM   11  N2  UNL     1      26.512   2.731  49.915  1.00  0.00    -0.340 N 
HETATM   12  H7  UNL     1      26.505   1.918  49.261  1.00  0.00     0.167 HD
BRANCH  11  13
HETATM   13  C7  UNL     1      26.571   4.039  49.389  1.00  0.00     0.035 A 
HETATM   14  C8  UNL     1      25.408   4.818  49.474  1.00  0.00     0.032 A 
HETATM   15  C9  UNL     1      25.305   6.106  49.007  1.00  0.00     0.046 A 
HETATM   16  C10 UNL     1      26.383   6.701  48.417  1.00  0.00     0.138 A 
HETATM   17  F1  UNL     1      26.235   7.968  47.974  1.00  0.00    -0.204 F 
HETATM   18  C11 UNL     1      27.557   5.987  48.305  1.00  0.00     0.074 A 
HETATM   19 CL1  UNL     1      28.941   6.711  47.563  1.00  0.00    -0.081 Cl
HETATM   20  C12 UNL     1      27.594   4.699  48.793  1.00  0.00     0.056 A 
ENDBRANCH  11  13
ENDBRANCH   5  11
BRANCH   1  21
HETATM   21  C2  UNL     1      22.354  -0.475  53.624  1.00  0.00     0.341 C 
BRANCH  21  22
HETATM   22  C1  UNL     1      22.790  -1.041  54.926  1.00  0.00     0.261 C 
HETATM   23  O1  UNL     1      22.561  -2.066  55.511  1.00  0.00    -0.305 OA
ENDBRANCH  21  22
ENDBRANCH   1  21
TORSDOF 4
ENDMDL
MODEL 2
REMARK VINA RESULT:      -7.4      4.884      5.942
REMARK  4 active torsions:
REMARK  status: ('A' for Active; 'I' for Inactive)
REMARK    1  A    between atoms: C1_2  and  C2_3 
REMARK    2  A    between atoms: C2_3  and  N1_4 
REMARK    3  A    between atoms: C6_8  and  N2_9 
REMARK    4  A    between atoms: N2_9  and  C7_10 
ROOT
HETATM    1  N1  UNL     1      20.219   0.667  51.964  1.00  0.00     0.100 N 
HETATM    2  C3  UNL     1      21.247   1.692  51.947  1.00  0.00     0.301 C 
HETATM    3  C4  UNL     1      22.604   1.067  52.111  1.00  0.00     0.016 C 
HETATM    4  C5  UNL     1      22.677   0.289  53.185  1.00  0.00     0.012 A 
HETATM    5  C6  UNL     1      23.943  -0.363  53.430  1.00  0.00     0.137 A 
HETATM    6  N3  UNL     1      24.011  -1.143  54.483  1.00  0.00    -0.224 NA
HETATM    7  C13 UNL     1      22.818  -1.260  55.279  1.00  0.00     0.229 A 
HETATM    8  N4  UNL     1      21.679  -0.701  55.109  1.00  0.00    -0.271 NA
HETATM    9  C14 UNL     1      21.467   0.174  54.012  1.00  0.00     0.174 A 
HETATM   10  C15 UNL     1      20.218  -0.073  53.207  1.00  0.00     0.305 C 
ENDROOT
BRANCH   5  11
HETATM   11  N2  UNL     1      25.116  -0.256  52.647  1.00  0.00    -0.340 N 
HETATM   12  H7  UNL     1      25.009  -0.589  51.664  1.00  0.00     0.167 HD
BRANCH  11  13
HETATM   13  C7  UNL     1      26.365   0.241  53.075  1.00  0.00     0.035 A 
HETATM   14  C8  UNL     1      26.425   1.591  53.449  1.00  0.00     0.032 A 
HETATM   15  C9  UNL     1      27.564   2.222  53.885  1.00  0.00     0.046 A 
HETATM   16  C10 UNL     1      28.735   1.524  53.974  1.00  0.00     0.138 A 
HETATM   17  F1  UNL     1      29.828   2.186  54.407  1.00  0.00    -0.204 F 
HETATM   18  C11 UNL     1      28.741   0.191  53.621  1.00  0.00     0.074 A 
HETATM   19 CL1  UNL     1      30.205  -0.723  53.722  1.00  0.00    -0.081 Cl
HETATM   20  C12 UNL     1      27.563  -0.382  53.191  1.00  0.00     0.056 A 
ENDBRANCH  11  13
ENDBRANCH   5  11
BRANCH   1  21
HETATM   21  C2  UNL     1      18.924   1.229  51.765  1.00  0.00     0.341 C 
BRANCH  21  22
HETATM   22  C1  UNL     1      18.930   2.712  51.679  1.00  0.00     0.261 C 
HETATM   23  O1  UNL     1      18.176   3.574  52.045  1.00  0.00    -0.305 OA
ENDBRANCH  21  22
ENDBRANCH   1  21
TORSDOF 4
ENDMDL
MODEL 3
REMARK VINA RESULT:      -7.4      3.023      4.469
REMARK  4 active torsions:
REMARK  status: ('A' for Active; 'I' for Inactive)
REMARK    1  A    between atoms: C1_2  and  C2_3 
REMARK    2  A    between atoms: C2_3  and  N1_4 
REMARK    3  A    between atoms: C6_8  and  N2_9 
REMARK    4  A    between atoms: N2_9  and  C7_10 
ROOT
HETATM    1  N1  UNL     1      27.100   0.561  54.050  1.00  0.00     0.100 N 
HETATM    2  C3  UNL     1      27.005   0.262  52.632  1.00  0.00     0.301 C 
HETATM    3  C4  UNL     1      25.699   0.765  52.084  1.00  0.00     0.016 C 
HETATM    4  C5  UNL     1      24.654   0.317  52.773  1.00  0.00     0.012 A 
HETATM    5  C6  UNL     1      23.350   0.748  52.326  1.00  0.00     0.137 A 
HETATM    6  N3  UNL     1      22.318   0.317  53.014  1.00  0.00    -0.224 NA
HETATM    7  C13 UNL     1      22.601  -0.539  54.135  1.00  0.00     0.229 A 
HETATM    8  N4  UNL     1      23.734  -0.953  54.566  1.00  0.00    -0.271 NA
HETATM    9  C14 UNL     1      24.933  -0.569  53.912  1.00  0.00     0.174 A 
HETATM   10  C15 UNL     1      26.035  -0.061  54.805  1.00  0.00     0.305 C 
ENDROOT
BRANCH   5  11
HETATM   11  N2  UNL     1      23.066   1.594  51.228  1.00  0.00    -0.340 N 
HETATM   12  H7  UNL     1      22.594   1.118  50.429  1.00  0.00     0.167 HD
BRANCH  11  13
HETATM   13  C7  UNL     1      23.361   2.970  51.135  1.00  0.00     0.035 A 
HETATM   14  C8  UNL     1      23.151   3.752  52.279  1.00  0.00     0.032 A 
HETATM   15  C9  UNL     1      23.388   5.103  52.346  1.00  0.00     0.046 A 
HETATM   16  C10 UNL     1      23.860   5.764  51.248  1.00  0.00     0.138 A 
HETATM   17  F1  UNL     1      24.079   7.091  51.361  1.00  0.00    -0.204 F 
HETATM   18  C11 UNL     1      24.089   5.050  50.091  1.00  0.00     0.074 A 
HETATM   19 CL1  UNL     1      24.687   5.856  48.683  1.00  0.00    -0.081 Cl
HETATM   20  C12 UNL     1      23.830   3.697  50.090  1.00  0.00     0.056 A 
ENDBRANCH  11  13
ENDBRANCH   5  11
BRANCH   1  21
HETATM   21  C2  UNL     1      28.350   0.135  54.587  1.00  0.00     0.341 C 
BRANCH  21  22
HETATM   22  C1  UNL     1      29.384   1.201  54.595  1.00  0.00     0.261 C 
HETATM   23  O1  UNL     1      29.347   2.403  54.617  1.00  0.00    -0.305 OA
ENDBRANCH  21  22
ENDBRANCH   1  21
TORSDOF 4
ENDMDL
MODEL 4
REMARK VINA RESULT:      -7.1      4.517      6.324
REMARK  4 active torsions:
REMARK  status: ('A' for Active; 'I' for Inactive)
REMARK    1  A    between atoms: C1_2  and  C2_3 
REMARK    2  A    between atoms: C2_3  and  N1_4 
REMARK    3  A    between atoms: C6_8  and  N2_9 
REMARK    4  A    between atoms: N2_9  and  C7_10 
ROOT
HETATM    1  N1  UNL     1      21.880   3.345  51.167  1.00  0.00     0.100 N 
HETATM    2  C3  UNL     1      22.211   1.961  51.455  1.00  0.00     0.301 C 
HETATM    3  C4  UNL     1      23.612   1.864  51.992  1.00  0.00     0.016 C 
HETATM    4  C5  UNL     1      24.500   2.447  51.194  1.00  0.00     0.012 A 
HETATM    5  C6  UNL     1      25.879   2.411  51.625  1.00  0.00     0.137 A 
HETATM    6  N3  UNL     1      26.756   2.999  50.845  1.00  0.00    -0.224 NA
HETATM    7  C13 UNL     1      26.247   3.612  49.646  1.00  0.00     0.229 A 
HETATM    8  N4  UNL     1      25.042   3.665  49.219  1.00  0.00    -0.271 NA
HETATM    9  C14 UNL     1      23.991   3.063  49.961  1.00  0.00     0.174 A 
HETATM   10  C15 UNL     1      22.771   3.918  50.183  1.00  0.00     0.305 C 
ENDROOT
BRANCH   5  11
HETATM   11  N2  UNL     1      26.384   1.816  52.805  1.00  0.00    -0.340 N 
HETATM   12  H7  UNL     1      26.235   2.382  53.669  1.00  0.00     0.167 HD
BRANCH  11  13
HETATM   13  C7  UNL     1      27.045   0.574  52.898  1.00  0.00     0.035 A 
HETATM   14  C8  UNL     1      26.343  -0.561  52.469  1.00  0.00     0.032 A 
HETATM   15  C9  UNL     1      26.848  -1.839  52.498  1.00  0.00     0.046 A 
HETATM   16  C10 UNL     1      28.111  -2.059  52.969  1.00  0.00     0.138 A 
HETATM   17  F1  UNL     1      28.564  -3.330  52.979  1.00  0.00    -0.204 F 
HETATM   18  C11 UNL     1      28.852  -0.981  53.406  1.00  0.00     0.074 A 
HETATM   19 CL1  UNL     1      30.456  -1.224  54.008  1.00  0.00    -0.081 Cl
HETATM   20  C12 UNL     1      28.288   0.274  53.350  1.00  0.00     0.056 A 
ENDBRANCH  11  13
ENDBRANCH   5  11
BRANCH   1  21
HETATM   21  C2  UNL     1      20.540   3.471  50.699  1.00  0.00     0.341 C 
BRANCH  21  22
HETATM   22  C1  UNL     1      19.534   3.522  51.792  1.00  0.00     0.261 C 
HETATM   23  O1  UNL     1      18.335   3.599  51.822  1.00  0.00    -0.305 OA
ENDBRANCH  21  22
ENDBRANCH   1  21
TORSDOF 4
ENDMDL
MODEL 5
REMARK VINA RESULT:      -7.1      3.636      4.843
REMARK  4 active torsions:
REMARK  status: ('A' for Active; 'I' for Inactive)
REMARK    1  A    between atoms: C1_2  and  C2_3 
REMARK    2  A    between atoms: C2_3  and  N1_4 
REMARK    3  A    between atoms: C6_8  and  N2_9 
REMARK    4  A    between atoms: N2_9  and  C7_10 
ROOT
HETATM    1  N1  UNL     1      26.707   0.326  53.567  1.00  0.00     0.100 N 
HETATM    2  C3  UNL     1      26.431   0.559  52.161  1.00  0.00     0.301 C 
HETATM    3  C4  UNL     1      25.176   1.373  52.007  1.00  0.00     0.016 C 
HETATM    4  C5  UNL     1      24.144   0.836  52.649  1.00  0.00     0.012 A 
HETATM    5  C6  UNL     1      22.888   1.547  52.566  1.00  0.00     0.137 A 
HETATM    6  N3  UNL     1      21.871   1.025  53.211  1.00  0.00    -0.224 NA
HETATM    7  C13 UNL     1      22.119  -0.198  53.927  1.00  0.00     0.229 A 
HETATM    8  N4  UNL     1      23.206  -0.867  54.026  1.00  0.00    -0.271 NA
HETATM    9  C14 UNL     1      24.384  -0.421  53.372  1.00  0.00     0.174 A 
HETATM   10  C15 UNL     1      25.632  -0.393  54.215  1.00  0.00     0.305 C 
ENDROOT
BRANCH   5  11
HETATM   11  N2  UNL     1      22.641   2.752  51.868  1.00  0.00    -0.340 N 
HETATM   12  H7  UNL     1      22.513   3.586  52.483  1.00  0.00     0.167 HD
BRANCH  11  13
HETATM   13  C7  UNL     1      22.557   2.907  50.469  1.00  0.00     0.035 A 
HETATM   14  C8  UNL     1      22.232   1.771  49.715  1.00  0.00     0.032 A 
HETATM   15  C9  UNL     1      22.114   1.759  48.347  1.00  0.00     0.046 A 
HETATM   16  C10 UNL     1      22.318   2.909  47.638  1.00  0.00     0.138 A 
HETATM   17  F1  UNL     1      22.191   2.849  46.296  1.00  0.00    -0.204 F 
HETATM   18  C11 UNL     1      22.641   4.061  48.323  1.00  0.00     0.074 A 
HETATM   19 CL1  UNL     1      22.906   5.534  47.457  1.00  0.00    -0.081 Cl
HETATM   20  C12 UNL     1      22.744   4.005  49.696  1.00  0.00     0.056 A 
ENDBRANCH  11  13
ENDBRANCH   5  11
BRANCH   1  21
HETATM   21  C2  UNL     1      27.918  -0.406  53.743  1.00  0.00     0.341 C 
BRANCH  21  22
HETATM   22  C1  UNL     1      28.917   0.300  54.585  1.00  0.00     0.261 C 
HETATM   23  O1  UNL     1      28.969   1.393  55.084  1.00  0.00    -0.305 OA
ENDBRANCH  21  22
ENDBRANCH   1  21
TORSDOF 4
ENDMDL
MODEL 6
REMARK VINA RESULT:      -7.0      2.545      3.912
REMARK  4 active torsions:
REMARK  status: ('A' for Active; 'I' for Inactive)
REMARK    1  A    between atoms: C1_2  and  C2_3 
REMARK    2  A    between atoms: C2_3  and  N1_4 
REMARK    3  A    between atoms: C6_8  and  N2_9 
REMARK    4  A    between atoms: N2_9  and  C7_10 
ROOT
HETATM    1  N1  UNL     1      27.796   0.626  54.310  1.00  0.00     0.100 N 
HETATM    2  C3  UNL     1      27.878   1.327  53.041  1.00  0.00     0.301 C 
HETATM    3  C4  UNL     1      26.680   2.219  52.865  1.00  0.00     0.016 C 
HETATM    4  C5  UNL     1      25.534   1.563  53.014  1.00  0.00     0.012 A 
HETATM    5  C6  UNL     1      24.322   2.334  52.867  1.00  0.00     0.137 A 
HETATM    6  N3  UNL     1      23.189   1.691  53.028  1.00  0.00    -0.224 NA
HETATM    7  C13 UNL     1      23.281   0.287  53.331  1.00  0.00     0.229 A 
HETATM    8  N4  UNL     1      24.326  -0.441  53.465  1.00  0.00    -0.271 NA
HETATM    9  C14 UNL     1      25.619   0.126  53.311  1.00  0.00     0.174 A 
HETATM   10  C15 UNL     1      26.613  -0.201  54.394  1.00  0.00     0.305 C 
ENDROOT
BRANCH   5  11
HETATM   11  N2  UNL     1      24.226   3.715  52.575  1.00  0.00    -0.340 N 
HETATM   12  H7  UNL     1      24.148   4.328  53.416  1.00  0.00     0.167 HD
BRANCH  11  13
HETATM   13  C7  UNL     1      24.225   4.301  51.293  1.00  0.00     0.035 A 
HETATM   14  C8  UNL     1      22.989   4.422  50.642  1.00  0.00     0.032 A 
HETATM   15  C9  UNL     1      22.824   4.967  49.392  1.00  0.00     0.046 A 
HETATM   16  C10 UNL     1      23.910   5.434  48.706  1.00  0.00     0.138 A 
HETATM   17  F1  UNL     1      23.699   5.961  47.482  1.00  0.00    -0.204 F 
HETATM   18  C11 UNL     1      25.154   5.344  49.294  1.00  0.00     0.074 A 
HETATM   19 CL1  UNL     1      26.549   5.925  48.454  1.00  0.00    -0.081 Cl
HETATM   20  C12 UNL     1      25.251   4.785  50.550  1.00  0.00     0.056 A 
ENDBRANCH  11  13
ENDBRANCH   5  11
BRANCH   1  21
HETATM   21  C2  UNL     1      28.943  -0.193  54.524  1.00  0.00     0.341 C 
BRANCH  21  22
HETATM   22  C1  UNL     1      29.138  -1.223  53.471  1.00  0.00     0.261 C 
HETATM   23  O1  UNL     1      29.249  -2.420  53.482  1.00  0.00    -0.305 OA
ENDBRANCH  21  22
ENDBRANCH   1  21
TORSDOF 4
ENDMDL
MODEL 7
REMARK VINA RESULT:      -7.0      5.379      7.348
REMARK  4 active torsions:
REMARK  status: ('A' for Active; 'I' for Inactive)
REMARK    1  A    between atoms: C1_2  and  C2_3 
REMARK    2  A    between atoms: C2_3  and  N1_4 
REMARK    3  A    between atoms: C6_8  and  N2_9 
REMARK    4  A    between atoms: N2_9  and  C7_10 
ROOT
HETATM    1  N1  UNL     1      26.745   0.459  53.581  1.00  0.00     0.100 N 
HETATM    2  C3  UNL     1      25.593  -0.299  54.037  1.00  0.00     0.301 C 
HETATM    3  C4  UNL     1      24.426  -0.071  53.118  1.00  0.00     0.016 C 
HETATM    4  C5  UNL     1      24.156   1.220  52.953  1.00  0.00     0.012 A 
HETATM    5  C6  UNL     1      23.050   1.545  52.082  1.00  0.00     0.137 A 
HETATM    6  N3  UNL     1      22.791   2.819  51.907  1.00  0.00    -0.224 NA
HETATM    7  C13 UNL     1      23.636   3.752  52.605  1.00  0.00     0.229 A 
HETATM    8  N4  UNL     1      24.620   3.516  53.390  1.00  0.00    -0.271 NA
HETATM    9  C14 UNL     1      25.005   2.179  53.673  1.00  0.00     0.174 A 
HETATM   10  C15 UNL     1      26.476   1.880  53.551  1.00  0.00     0.305 C 
ENDROOT
BRANCH   5  11
HETATM   11  N2  UNL     1      22.221   0.632  51.389  1.00  0.00    -0.340 N 
HETATM   12  H7  UNL     1      22.651   0.229  50.528  1.00  0.00     0.167 HD
BRANCH  11  13
HETATM   13  C7  UNL     1      20.915   0.244  51.754  1.00  0.00     0.035 A 
HETATM   14  C8  UNL     1      20.739  -0.288  53.039  1.00  0.00     0.032 A 
HETATM   15  C9  UNL     1      19.533  -0.712  53.541  1.00  0.00     0.046 A 
HETATM   16  C10 UNL     1      18.409  -0.627  52.770  1.00  0.00     0.138 A 
HETATM   17  F1  UNL     1      17.247  -1.055  53.306  1.00  0.00    -0.204 F 
HETATM   18  C11 UNL     1      18.517  -0.111  51.496  1.00  0.00     0.074 A 
HETATM   19 CL1  UNL     1      17.114   0.012  50.493  1.00  0.00    -0.081 Cl
HETATM   20  C12 UNL     1      19.756   0.296  51.052  1.00  0.00     0.056 A 
ENDBRANCH  11  13
ENDBRANCH   5  11
BRANCH   1  21
HETATM   21  C2  UNL     1      27.881   0.226  54.410  1.00  0.00     0.341 C 
BRANCH  21  22
HETATM   22  C1  UNL     1      28.849  -0.739  53.828  1.00  0.00     0.261 C 
HETATM   23  O1  UNL     1      28.780  -1.890  53.485  1.00  0.00    -0.305 OA
ENDBRANCH  21  22
ENDBRANCH   1  21
TORSDOF 4
ENDMDL
MODEL 8
REMARK VINA RESULT:      -6.9      1.995      3.102
REMARK  4 active torsions:
REMARK  status: ('A' for Active; 'I' for Inactive)
REMARK    1  A    between atoms: C1_2  and  C2_3 
REMARK    2  A    between atoms: C2_3  and  N1_4 
REMARK    3  A    between atoms: C6_8  and  N2_9 
REMARK    4  A    between atoms: N2_9  and  C7_10 
ROOT
HETATM    1  N1  UNL     1      21.924   0.720  53.106  1.00  0.00     0.100 N 
HETATM    2  C3  UNL     1      23.369   0.593  53.035  1.00  0.00     0.301 C 
HETATM    3  C4  UNL     1      23.961   1.798  52.360  1.00  0.00     0.016 C 
HETATM    4  C5  UNL     1      23.410   2.037  51.174  1.00  0.00     0.012 A 
HETATM    5  C6  UNL     1      23.909   3.179  50.444  1.00  0.00     0.137 A 
HETATM    6  N3  UNL     1      23.355   3.424  49.280  1.00  0.00    -0.224 NA
HETATM    7  C13 UNL     1      22.314   2.525  48.858  1.00  0.00     0.229 A 
HETATM    8  N4  UNL     1      21.842   1.500  49.463  1.00  0.00    -0.271 NA
HETATM    9  C14 UNL     1      22.354   1.116  50.730  1.00  0.00     0.174 A 
HETATM   10  C15 UNL     1      21.328   0.829  51.794  1.00  0.00     0.305 C 
ENDROOT
BRANCH   5  11
HETATM   11  N2  UNL     1      24.928   4.069  50.857  1.00  0.00    -0.340 N 
HETATM   12  H7  UNL     1      25.049   4.134  51.891  1.00  0.00     0.167 HD
BRANCH  11  13
HETATM   13  C7  UNL     1      25.755   4.843  50.016  1.00  0.00     0.035 A 
HETATM   14  C8  UNL     1      26.850   4.199  49.423  1.00  0.00     0.032 A 
HETATM   15  C9  UNL     1      27.746   4.814  48.583  1.00  0.00     0.046 A 
HETATM   16  C10 UNL     1      27.595   6.138  48.281  1.00  0.00     0.138 A 
HETATM   17  F1  UNL     1      28.500   6.699  47.452  1.00  0.00    -0.204 F 
HETATM   18  C11 UNL     1      26.536   6.827  48.833  1.00  0.00     0.074 A 
HETATM   19 CL1  UNL     1      26.314   8.503  48.472  1.00  0.00    -0.081 Cl
HETATM   20  C12 UNL     1      25.673   6.151  49.668  1.00  0.00     0.056 A 
ENDBRANCH  11  13
ENDBRANCH   5  11
BRANCH   1  21
HETATM   21  C2  UNL     1      21.340  -0.390  53.784  1.00  0.00     0.341 C 
BRANCH  21  22
HETATM   22  C1  UNL     1      22.321  -1.195  54.556  1.00  0.00     0.261 C 
HETATM   23  O1  UNL     1      22.227  -2.016  55.429  1.00  0.00    -0.305 OA
ENDBRANCH  21  22
ENDBRANCH   1  21
TORSDOF 4
ENDMDL
MODEL 9
REMARK VINA RESULT:      -6.8      4.345      6.823
REMARK  4 active torsions:
REMARK  status: ('A' for Active; 'I' for Inactive)
REMARK    1  A    between atoms: C1_2  and  C2_3 
REMARK    2  A    between atoms: C2_3  and  N1_4 
REMARK    3  A    between atoms: C6_8  and  N2_9 
REMARK    4  A    between atoms: N2_9  and  C7_10 
ROOT
HETATM    1  N1  UNL     1      23.794   3.942  51.012  1.00  0.00     0.100 N 
HETATM    2  C3  UNL     1      23.817   4.054  52.459  1.00  0.00     0.301 C 
HETATM    3  C4  UNL     1      24.048   2.703  53.078  1.00  0.00     0.016 C 
HETATM    4  C5  UNL     1      23.179   1.794  52.648  1.00  0.00     0.012 A 
HETATM    5  C6  UNL     1      23.320   0.459  53.183  1.00  0.00     0.137 A 
HETATM    6  N3  UNL     1      22.471  -0.443  52.749  1.00  0.00    -0.224 NA
HETATM    7  C13 UNL     1      21.493  -0.001  51.790  1.00  0.00     0.229 A 
HETATM    8  N4  UNL     1      21.324   1.166  51.293  1.00  0.00    -0.271 NA
HETATM    9  C14 UNL     1      22.168   2.240  51.679  1.00  0.00     0.174 A 
HETATM   10  C15 UNL     1      22.742   3.062  50.555  1.00  0.00     0.305 C 
ENDROOT
BRANCH   5  11
HETATM   11  N2  UNL     1      24.283   0.019  54.120  1.00  0.00    -0.340 N 
HETATM   12  H7  UNL     1      23.900  -0.180  55.070  1.00  0.00     0.167 HD
BRANCH  11  13
HETATM   13  C7  UNL     1      25.661  -0.163  53.881  1.00  0.00     0.035 A 
HETATM   14  C8  UNL     1      26.036  -1.245  53.073  1.00  0.00     0.032 A 
HETATM   15  C9  UNL     1      27.335  -1.555  52.750  1.00  0.00     0.046 A 
HETATM   16  C10 UNL     1      28.356  -0.782  53.228  1.00  0.00     0.138 A 
HETATM   17  F1  UNL     1      29.615  -1.125  52.884  1.00  0.00    -0.204 F 
HETATM   18  C11 UNL     1      28.051   0.298  54.028  1.00  0.00     0.074 A 
HETATM   19 CL1  UNL     1      29.319   1.297  54.649  1.00  0.00    -0.081 Cl
HETATM   20  C12 UNL     1      26.728   0.554  54.314  1.00  0.00     0.056 A 
ENDBRANCH  11  13
ENDBRANCH   5  11
BRANCH   1  21
HETATM   21  C2  UNL     1      23.622   5.217  50.397  1.00  0.00     0.341 C 
BRANCH  21  22
HETATM   22  C1  UNL     1      24.351   5.356  49.110  1.00  0.00     0.261 C 
HETATM   23  O1  UNL     1      25.508   5.494  48.813  1.00  0.00    -0.305 OA
ENDBRANCH  21  22
ENDBRANCH   1  21
TORSDOF 4
ENDMDL
