MODEL 1
REMARK VINA RESULT:      -7.5      0.000      0.000
REMARK  8 active torsions:
REMARK  status: ('A' for Active; 'I' for Inactive)
REMARK    1  A    between atoms: C3_3  and  C4_4 
REMARK    2  A    between atoms: C4_4  and  C5_5 
REMARK    3  A    between atoms: C5_5  and  O1_6 
REMARK    4  A    between atoms: O1_6  and  C6_7 
REMARK    5  A    between atoms: C9_10  and  N1_11 
REMARK    6  A    between atoms: C9_10  and  N2_12 
REMARK    7  A    between atoms: N2_12  and  C10_13 
REMARK    8  A    between atoms: C19_24  and  O2_25 
ROOT
HETATM    1  C1  UNL     1      29.356  -2.387  53.225  1.00  0.00     0.012 C 
HETATM    2  C2  UNL     1      29.428  -1.216  53.506  1.00  0.00    -0.117 C 
HETATM    3  C3  UNL     1      29.515   0.218  53.866  1.00  0.00     0.095 C 
ENDROOT
BRANCH   3   4
HETATM    4  C4  UNL     1      28.469   1.010  53.110  1.00  0.00     0.039 C 
BRANCH   4   5
HETATM    5  C5  UNL     1      27.938   2.155  53.934  1.00  0.00     0.176 C 
BRANCH   5   6
HETATM    6  O1  UNL     1      26.628   1.860  54.293  1.00  0.00    -0.348 OA
BRANCH   6   7
HETATM    7  C6  UNL     1      25.523   1.821  53.472  1.00  0.00     0.103 A 
HETATM    8  C7  UNL     1      25.170   2.910  52.805  1.00  0.00     0.057 A 
HETATM    9  C8  UNL     1      24.005   2.905  51.927  1.00  0.00     0.039 A 
HETATM   10  C9  UNL     1      23.588   3.943  51.229  1.00  0.00     0.112 C 
HETATM   11  C16 UNL     1      23.267   1.629  51.840  1.00  0.00     0.067 A 
HETATM   12  N3  UNL     1      22.219   1.475  51.104  1.00  0.00    -0.293 NA
HETATM   13  C18 UNL     1      23.724   0.471  52.611  1.00  0.00     0.071 A 
HETATM   14  C17 UNL     1      21.479   0.250  50.997  1.00  0.00     0.178 C 
HETATM   15  C19 UNL     1      24.779   0.547  53.381  1.00  0.00     0.103 A 
BRANCH  10  16
HETATM   16  N1  UNL     1      22.459   3.975  50.363  1.00  0.00    -0.385 N 
HETATM   17  H9  UNL     1      22.604   3.830  49.325  1.00  0.00     0.157 HD
HETATM   18  H10 UNL     1      21.432   4.113  50.444  1.00  0.00     0.157 HD
ENDBRANCH  10  16
BRANCH  10  19
HETATM   19  N2  UNL     1      24.314   5.161  51.328  1.00  0.00    -0.342 N 
HETATM   20  H11 UNL     1      24.094   5.766  52.147  1.00  0.00     0.167 HD
BRANCH  19  21
HETATM   21  C10 UNL     1      25.287   5.533  50.362  1.00  0.00     0.035 A 
HETATM   22  C11 UNL     1      25.944   4.548  49.657  1.00  0.00     0.029 A 
HETATM   23  C12 UNL     1      26.881   4.968  48.730  1.00  0.00     0.004 A 
HETATM   24  C13 UNL     1      27.184   6.310  48.479  1.00  0.00     0.024 A 
HETATM   25  C14 UNL     1      26.488   7.246  49.218  1.00  0.00     0.036 A 
HETATM   26 CL1  UNL     1      26.876   8.943  48.895  1.00  0.00    -0.084 Cl
HETATM   27  C15 UNL     1      25.539   6.873  50.161  1.00  0.00     0.053 A 
ENDBRANCH  19  21
ENDBRANCH  10  19
BRANCH  15  28
HETATM   28  O2  UNL     1      25.235  -0.547  54.129  1.00  0.00    -0.353 OA
HETATM   29  C20 UNL     1      24.539  -1.009  55.270  1.00  0.00     0.210 C 
ENDBRANCH  15  28
ENDBRANCH   6   7
ENDBRANCH   5   6
ENDBRANCH   4   5
ENDBRANCH   3   4
TORSDOF 8
ENDMDL
MODEL 2
REMARK VINA RESULT:      -7.2      1.971      2.503
REMARK  8 active torsions:
REMARK  status: ('A' for Active; 'I' for Inactive)
REMARK    1  A    between atoms: C3_3  and  C4_4 
REMARK    2  A    between atoms: C4_4  and  C5_5 
REMARK    3  A    between atoms: C5_5  and  O1_6 
REMARK    4  A    between atoms: O1_6  and  C6_7 
REMARK    5  A    between atoms: C9_10  and  N1_11 
REMARK    6  A    between atoms: C9_10  and  N2_12 
REMARK    7  A    between atoms: N2_12  and  C10_13 
REMARK    8  A    between atoms: C19_24  and  O2_25 
ROOT
HETATM    1  C1  UNL     1      29.999  -0.936  53.561  1.00  0.00     0.012 C 
HETATM    2  C2  UNL     1      29.286   0.036  53.610  1.00  0.00    -0.117 C 
HETATM    3  C3  UNL     1      28.415   1.231  53.684  1.00  0.00     0.095 C 
ENDROOT
BRANCH   3   4
HETATM    4  C4  UNL     1      27.015   0.886  53.221  1.00  0.00     0.039 C 
BRANCH   4   5
HETATM    5  C5  UNL     1      26.037   1.987  53.541  1.00  0.00     0.176 C 
BRANCH   5   6
HETATM    6  O1  UNL     1      24.752   1.501  53.332  1.00  0.00    -0.348 OA
BRANCH   6   7
HETATM    7  C6  UNL     1      23.649   2.205  52.903  1.00  0.00     0.103 A 
HETATM    8  C7  UNL     1      23.785   3.475  52.550  1.00  0.00     0.057 A 
HETATM    9  C8  UNL     1      22.639   4.251  52.092  1.00  0.00     0.039 A 
HETATM   10  C9  UNL     1      22.689   5.517  51.723  1.00  0.00     0.112 C 
HETATM   11  C16 UNL     1      21.348   3.536  52.052  1.00  0.00     0.067 A 
HETATM   12  N3  UNL     1      20.250   4.093  51.668  1.00  0.00    -0.293 NA
HETATM   13  C18 UNL     1      21.283   2.131  52.459  1.00  0.00     0.071 A 
HETATM   14  C17 UNL     1      18.979   3.426  51.617  1.00  0.00     0.178 C 
HETATM   15  C19 UNL     1      22.354   1.495  52.860  1.00  0.00     0.103 A 
BRANCH  10  16
HETATM   16  N1  UNL     1      21.594   6.305  51.271  1.00  0.00    -0.385 N 
HETATM   17  H9  UNL     1      21.430   7.254  51.709  1.00  0.00     0.157 HD
HETATM   18  H10 UNL     1      20.828   6.227  50.574  1.00  0.00     0.157 HD
ENDBRANCH  10  16
BRANCH  10  19
HETATM   19  N2  UNL     1      23.943   6.186  51.770  1.00  0.00    -0.342 N 
HETATM   20  H11 UNL     1      24.299   6.437  52.717  1.00  0.00     0.167 HD
BRANCH  19  21
HETATM   21  C10 UNL     1      24.670   6.496  50.590  1.00  0.00     0.035 A 
HETATM   22  C11 UNL     1      24.359   7.642  49.892  1.00  0.00     0.029 A 
HETATM   23  C12 UNL     1      25.099   7.893  48.750  1.00  0.00     0.004 A 
HETATM   24  C13 UNL     1      26.122   7.061  48.285  1.00  0.00     0.024 A 
HETATM   25  C14 UNL     1      26.384   5.930  49.032  1.00  0.00     0.036 A 
HETATM   26 CL1  UNL     1      27.680   4.881  48.437  1.00  0.00    -0.084 Cl
HETATM   27  C15 UNL     1      25.668   5.635  50.184  1.00  0.00     0.053 A 
ENDBRANCH  19  21
ENDBRANCH  10  19
BRANCH  15  28
HETATM   28  O2  UNL     1      22.317   0.150  53.256  1.00  0.00    -0.353 OA
HETATM   29  C20 UNL     1      21.100  -0.563  53.351  1.00  0.00     0.210 C 
ENDBRANCH  15  28
ENDBRANCH   6   7
ENDBRANCH   5   6
ENDBRANCH   4   5
ENDBRANCH   3   4
TORSDOF 8
ENDMDL
MODEL 3
REMARK VINA RESULT:      -7.1      2.509      5.253
REMARK  8 active torsions:
REMARK  status: ('A' for Active; 'I' for Inactive)
REMARK    1  A    between atoms: C3_3  and  C4_4 
REMARK    2  A    between atoms: C4_4  and  C5_5 
REMARK    3  A    between atoms: C5_5  and  O1_6 
REMARK    4  A    between atoms: O1_6  and  C6_7 
REMARK    5  A    between atoms: C9_10  and  N1_11 
REMARK    6  A    between atoms: C9_10  and  N2_12 
REMARK    7  A    between atoms: N2_12  and  C10_13 
REMARK    8  A    between atoms: C19_24  and  O2_25 
ROOT
HETATM    1  C1  UNL     1      22.319   3.919  48.036  1.00  0.00     0.012 C 
HETATM    2  C2  UNL     1      21.312   3.284  48.235  1.00  0.00    -0.117 C 
HETATM    3  C3  UNL     1      20.069   2.518  48.483  1.00  0.00     0.095 C 
ENDROOT
BRANCH   3   4
HETATM    4  C4  UNL     1      20.372   1.289  49.315  1.00  0.00     0.039 C 
BRANCH   4   5
HETATM    5  C5  UNL     1      20.597   1.642  50.763  1.00  0.00     0.176 C 
BRANCH   5   6
HETATM    6  O1  UNL     1      21.426   0.676  51.321  1.00  0.00    -0.348 OA
BRANCH   6   7
HETATM    7  C6  UNL     1      22.693   0.851  51.831  1.00  0.00     0.103 A 
HETATM    8  C7  UNL     1      23.557   1.613  51.177  1.00  0.00     0.057 A 
HETATM    9  C8  UNL     1      24.907   1.821  51.688  1.00  0.00     0.039 A 
HETATM   10  C9  UNL     1      25.826   2.563  51.099  1.00  0.00     0.112 C 
HETATM   11  C16 UNL     1      25.232   1.137  52.955  1.00  0.00     0.067 A 
HETATM   12  N3  UNL     1      26.384   1.229  53.526  1.00  0.00    -0.293 NA
HETATM   13  C18 UNL     1      24.218   0.313  53.615  1.00  0.00     0.071 A 
HETATM   14  C17 UNL     1      26.732   0.578  54.757  1.00  0.00     0.178 C 
HETATM   15  C19 UNL     1      23.024   0.169  53.099  1.00  0.00     0.103 A 
BRANCH  10  16
HETATM   16  N1  UNL     1      27.150   2.789  51.567  1.00  0.00    -0.385 N 
HETATM   17  H9  UNL     1      27.373   3.700  52.056  1.00  0.00     0.157 HD
HETATM   18  H10 UNL     1      28.058   2.285  51.576  1.00  0.00     0.157 HD
ENDBRANCH  10  16
BRANCH  10  19
HETATM   19  N2  UNL     1      25.491   3.213  49.879  1.00  0.00    -0.342 N 
HETATM   20  H11 UNL     1      25.055   2.619  49.142  1.00  0.00     0.167 HD
BRANCH  19  21
HETATM   21  C10 UNL     1      25.739   4.596  49.676  1.00  0.00     0.035 A 
HETATM   22  C11 UNL     1      26.817   4.979  48.906  1.00  0.00     0.029 A 
HETATM   23  C12 UNL     1      27.010   6.339  48.742  1.00  0.00     0.004 A 
HETATM   24  C13 UNL     1      26.186   7.318  49.305  1.00  0.00     0.024 A 
HETATM   25  C14 UNL     1      25.124   6.867  50.064  1.00  0.00     0.036 A 
HETATM   26 CL1  UNL     1      24.084   8.112  50.772  1.00  0.00    -0.084 Cl
HETATM   27  C15 UNL     1      24.889   5.512  50.257  1.00  0.00     0.053 A 
ENDBRANCH  19  21
ENDBRANCH  10  19
BRANCH  15  28
HETATM   28  O2  UNL     1      22.037  -0.616  53.712  1.00  0.00    -0.353 OA
HETATM   29  C20 UNL     1      21.168  -0.085  54.693  1.00  0.00     0.210 C 
ENDBRANCH  15  28
ENDBRANCH   6   7
ENDBRANCH   5   6
ENDBRANCH   4   5
ENDBRANCH   3   4
TORSDOF 8
ENDMDL
MODEL 4
REMARK VINA RESULT:      -6.9      3.392      6.717
REMARK  8 active torsions:
REMARK  status: ('A' for Active; 'I' for Inactive)
REMARK    1  A    between atoms: C3_3  and  C4_4 
REMARK    2  A    between atoms: C4_4  and  C5_5 
REMARK    3  A    between atoms: C5_5  and  O1_6 
REMARK    4  A    between atoms: O1_6  and  C6_7 
REMARK    5  A    between atoms: C9_10  and  N1_11 
REMARK    6  A    between atoms: C9_10  and  N2_12 
REMARK    7  A    between atoms: N2_12  and  C10_13 
REMARK    8  A    between atoms: C19_24  and  O2_25 
ROOT
HETATM    1  C1  UNL     1      21.721   5.528  51.435  1.00  0.00     0.012 C 
HETATM    2  C2  UNL     1      22.836   5.945  51.242  1.00  0.00    -0.117 C 
HETATM    3  C3  UNL     1      24.201   6.471  51.009  1.00  0.00     0.095 C 
ENDROOT
BRANCH   3   4
HETATM    4  C4  UNL     1      24.707   6.025  49.652  1.00  0.00     0.039 C 
BRANCH   4   5
HETATM    5  C5  UNL     1      25.548   4.779  49.757  1.00  0.00     0.176 C 
BRANCH   5   6
HETATM    6  O1  UNL     1      24.811   3.715  49.252  1.00  0.00    -0.348 OA
BRANCH   6   7
HETATM    7  C6  UNL     1      23.963   2.880  49.944  1.00  0.00     0.103 A 
HETATM    8  C7  UNL     1      24.382   2.311  51.065  1.00  0.00     0.057 A 
HETATM    9  C8  UNL     1      23.511   1.420  51.824  1.00  0.00     0.039 A 
HETATM   10  C9  UNL     1      23.851   0.816  52.946  1.00  0.00     0.112 C 
HETATM   11  C16 UNL     1      22.162   1.205  51.265  1.00  0.00     0.067 A 
HETATM   12  N3  UNL     1      21.284   0.445  51.826  1.00  0.00    -0.293 NA
HETATM   13  C18 UNL     1      21.776   1.872  50.020  1.00  0.00     0.071 A 
HETATM   14  C17 UNL     1      19.965   0.214  51.309  1.00  0.00     0.178 C 
HETATM   15  C19 UNL     1      22.610   2.659  49.390  1.00  0.00     0.103 A 
BRANCH  10  16
HETATM   16  N1  UNL     1      23.030  -0.057  53.713  1.00  0.00    -0.385 N 
HETATM   17  H9  UNL     1      22.782  -1.007  53.317  1.00  0.00     0.157 HD
HETATM   18  H10 UNL     1      22.548  -0.048  54.633  1.00  0.00     0.157 HD
ENDBRANCH  10  16
BRANCH  10  19
HETATM   19  N2  UNL     1      25.156   1.038  53.466  1.00  0.00    -0.342 N 
HETATM   20  H11 UNL     1      25.298   1.924  53.997  1.00  0.00     0.167 HD
BRANCH  19  21
HETATM   21  C10 UNL     1      26.208   0.105  53.272  1.00  0.00     0.035 A 
HETATM   22  C11 UNL     1      25.913  -1.141  52.762  1.00  0.00     0.029 A 
HETATM   23  C12 UNL     1      26.977  -2.011  52.595  1.00  0.00     0.004 A 
HETATM   24  C13 UNL     1      28.302  -1.692  52.909  1.00  0.00     0.024 A 
HETATM   25  C14 UNL     1      28.528  -0.427  53.414  1.00  0.00     0.036 A 
HETATM   26 CL1  UNL     1      30.207  -0.030  53.809  1.00  0.00    -0.084 Cl
HETATM   27  C15 UNL     1      27.493   0.480  53.601  1.00  0.00     0.053 A 
ENDBRANCH  19  21
ENDBRANCH  10  19
BRANCH  15  28
HETATM   28  O2  UNL     1      22.264   3.308  48.197  1.00  0.00    -0.353 OA
HETATM   29  C20 UNL     1      21.063   4.043  48.071  1.00  0.00     0.210 C 
ENDBRANCH  15  28
ENDBRANCH   6   7
ENDBRANCH   5   6
ENDBRANCH   4   5
ENDBRANCH   3   4
TORSDOF 8
ENDMDL
MODEL 5
REMARK VINA RESULT:      -6.9      2.854      5.256
REMARK  8 active torsions:
REMARK  status: ('A' for Active; 'I' for Inactive)
REMARK    1  A    between atoms: C3_3  and  C4_4 
REMARK    2  A    between atoms: C4_4  and  C5_5 
REMARK    3  A    between atoms: C5_5  and  O1_6 
REMARK    4  A    between atoms: O1_6  and  C6_7 
REMARK    5  A    between atoms: C9_10  and  N1_11 
REMARK    6  A    between atoms: C9_10  and  N2_12 
REMARK    7  A    between atoms: N2_12  and  C10_13 
REMARK    8  A    between atoms: C19_24  and  O2_25 
ROOT
HETATM    1  C1  UNL     1      21.152   0.982  49.197  1.00  0.00     0.012 C 
HETATM    2  C2  UNL     1      20.719   1.762  50.009  1.00  0.00    -0.117 C 
HETATM    3  C3  UNL     1      20.201   2.726  51.008  1.00  0.00     0.095 C 
ENDROOT
BRANCH   3   4
HETATM    4  C4  UNL     1      19.534   1.986  52.149  1.00  0.00     0.039 C 
BRANCH   4   5
HETATM    5  C5  UNL     1      20.294   0.739  52.520  1.00  0.00     0.176 C 
BRANCH   5   6
HETATM    6  O1  UNL     1      21.344   1.104  53.354  1.00  0.00    -0.348 OA
BRANCH   6   7
HETATM    7  C6  UNL     1      22.693   0.983  53.105  1.00  0.00     0.103 A 
HETATM    8  C7  UNL     1      23.361   2.020  52.620  1.00  0.00     0.057 A 
HETATM    9  C8  UNL     1      24.790   1.927  52.345  1.00  0.00     0.039 A 
HETATM   10  C9  UNL     1      25.526   2.911  51.863  1.00  0.00     0.112 C 
HETATM   11  C16 UNL     1      25.422   0.626  52.638  1.00  0.00     0.067 A 
HETATM   12  N3  UNL     1      26.676   0.397  52.446  1.00  0.00    -0.293 NA
HETATM   13  C18 UNL     1      24.612  -0.470  53.174  1.00  0.00     0.071 A 
HETATM   14  C17 UNL     1      27.322  -0.856  52.720  1.00  0.00     0.178 C 
HETATM   15  C19 UNL     1      23.332  -0.317  53.397  1.00  0.00     0.103 A 
BRANCH  10  16
HETATM   16  N1  UNL     1      26.920   2.857  51.583  1.00  0.00    -0.385 N 
HETATM   17  H9  UNL     1      27.543   3.639  51.930  1.00  0.00     0.157 HD
HETATM   18  H10 UNL     1      27.581   2.225  51.091  1.00  0.00     0.157 HD
ENDBRANCH  10  16
BRANCH  10  19
HETATM   19  N2  UNL     1      24.896   4.155  51.588  1.00  0.00    -0.342 N 
HETATM   20  H11 UNL     1      25.107   4.936  52.245  1.00  0.00     0.167 HD
BRANCH  19  21
HETATM   21  C10 UNL     1      24.026   4.325  50.479  1.00  0.00     0.035 A 
HETATM   22  C11 UNL     1      24.249   3.591  49.334  1.00  0.00     0.029 A 
HETATM   23  C12 UNL     1      23.371   3.797  48.284  1.00  0.00     0.004 A 
HETATM   24  C13 UNL     1      22.296   4.691  48.330  1.00  0.00     0.024 A 
HETATM   25  C14 UNL     1      22.129   5.393  49.507  1.00  0.00     0.036 A 
HETATM   26 CL1  UNL     1      20.766   6.521  49.558  1.00  0.00    -0.084 Cl
HETATM   27  C15 UNL     1      22.984   5.221  50.587  1.00  0.00     0.053 A 
ENDBRANCH  19  21
ENDBRANCH  10  19
BRANCH  15  28
HETATM   28  O2  UNL     1      22.537  -1.352  53.908  1.00  0.00    -0.353 OA
HETATM   29  C20 UNL     1      22.492  -1.642  55.291  1.00  0.00     0.210 C 
ENDBRANCH  15  28
ENDBRANCH   6   7
ENDBRANCH   5   6
ENDBRANCH   4   5
ENDBRANCH   3   4
TORSDOF 8
ENDMDL
MODEL 6
REMARK VINA RESULT:      -6.8      3.258      6.168
REMARK  8 active torsions:
REMARK  status: ('A' for Active; 'I' for Inactive)
REMARK    1  A    between atoms: C3_3  and  C4_4 
REMARK    2  A    between atoms: C4_4  and  C5_5 
REMARK    3  A    between atoms: C5_5  and  O1_6 
REMARK    4  A    between atoms: O1_6  and  C6_7 
REMARK    5  A    between atoms: C9_10  and  N1_11 
REMARK    6  A    between atoms: C9_10  and  N2_12 
REMARK    7  A    between atoms: N2_12  and  C10_13 
REMARK    8  A    between atoms: C19_24  and  O2_25 
ROOT
HETATM    1  C1  UNL     1      29.412  -0.661  53.708  1.00  0.00     0.012 C 
HETATM    2  C2  UNL     1      28.996   0.467  53.616  1.00  0.00    -0.117 C 
HETATM    3  C3  UNL     1      28.491   1.856  53.517  1.00  0.00     0.095 C 
ENDROOT
BRANCH   3   4
HETATM    4  C4  UNL     1      27.016   1.851  53.175  1.00  0.00     0.039 C 
BRANCH   4   5
HETATM    5  C5  UNL     1      26.788   1.587  51.708  1.00  0.00     0.176 C 
BRANCH   5   6
HETATM    6  O1  UNL     1      26.376   2.773  51.113  1.00  0.00    -0.348 OA
BRANCH   6   7
HETATM    7  C6  UNL     1      25.111   3.094  50.672  1.00  0.00     0.103 A 
HETATM    8  C7  UNL     1      24.146   2.190  50.752  1.00  0.00     0.057 A 
HETATM    9  C8  UNL     1      22.795   2.495  50.294  1.00  0.00     0.039 A 
HETATM   10  C9  UNL     1      21.780   1.653  50.339  1.00  0.00     0.112 C 
HETATM   11  C16 UNL     1      22.588   3.850  49.748  1.00  0.00     0.067 A 
HETATM   12  N3  UNL     1      21.449   4.262  49.306  1.00  0.00    -0.293 NA
HETATM   13  C18 UNL     1      23.709   4.791  49.695  1.00  0.00     0.071 A 
HETATM   14  C17 UNL     1      21.214   5.572  48.769  1.00  0.00     0.178 C 
HETATM   15  C19 UNL     1      24.897   4.449  50.124  1.00  0.00     0.103 A 
BRANCH  10  16
HETATM   16  N1  UNL     1      20.451   1.915  49.903  1.00  0.00    -0.385 N 
HETATM   17  H9  UNL     1      20.154   1.589  48.941  1.00  0.00     0.157 HD
HETATM   18  H10 UNL     1      19.598   2.376  50.274  1.00  0.00     0.157 HD
ENDBRANCH  10  16
BRANCH  10  19
HETATM   19  N2  UNL     1      22.002   0.353  50.869  1.00  0.00    -0.342 N 
HETATM   20  H11 UNL     1      22.297  -0.380  50.190  1.00  0.00     0.167 HD
BRANCH  19  21
HETATM   21  C10 UNL     1      21.831   0.068  52.250  1.00  0.00     0.035 A 
HETATM   22  C11 UNL     1      20.593   0.259  52.825  1.00  0.00     0.029 A 
HETATM   23  C12 UNL     1      20.484  -0.034  54.173  1.00  0.00     0.004 A 
HETATM   24  C13 UNL     1      21.542  -0.503  54.958  1.00  0.00     0.024 A 
HETATM   25  C14 UNL     1      22.755  -0.673  54.319  1.00  0.00     0.036 A 
HETATM   26 CL1  UNL     1      24.089  -1.268  55.318  1.00  0.00    -0.084 Cl
HETATM   27  C15 UNL     1      22.913  -0.393  52.969  1.00  0.00     0.053 A 
ENDBRANCH  19  21
ENDBRANCH  10  19
BRANCH  15  28
HETATM   28  O2  UNL     1      25.986   5.332  50.083  1.00  0.00    -0.353 OA
HETATM   29  C20 UNL     1      26.499   5.823  48.860  1.00  0.00     0.210 C 
ENDBRANCH  15  28
ENDBRANCH   6   7
ENDBRANCH   5   6
ENDBRANCH   4   5
ENDBRANCH   3   4
TORSDOF 8
ENDMDL
MODEL 7
REMARK VINA RESULT:      -6.6      3.737      6.657
REMARK  8 active torsions:
REMARK  status: ('A' for Active; 'I' for Inactive)
REMARK    1  A    between atoms: C3_3  and  C4_4 
REMARK    2  A    between atoms: C4_4  and  C5_5 
REMARK    3  A    between atoms: C5_5  and  O1_6 
REMARK    4  A    between atoms: O1_6  and  C6_7 
REMARK    5  A    between atoms: C9_10  and  N1_11 
REMARK    6  A    between atoms: C9_10  and  N2_12 
REMARK    7  A    between atoms: N2_12  and  C10_13 
REMARK    8  A    between atoms: C19_24  and  O2_25 
ROOT
HETATM    1  C1  UNL     1      27.147  -1.510  52.762  1.00  0.00     0.012 C 
HETATM    2  C2  UNL     1      26.548  -0.474  52.617  1.00  0.00    -0.117 C 
HETATM    3  C3  UNL     1      25.799   0.792  52.438  1.00  0.00     0.095 C 
ENDROOT
BRANCH   3   4
HETATM    4  C4  UNL     1      26.376   1.579  51.279  1.00  0.00     0.039 C 
BRANCH   4   5
HETATM    5  C5  UNL     1      25.826   2.981  51.234  1.00  0.00     0.176 C 
BRANCH   5   6
HETATM    6  O1  UNL     1      25.531   3.289  49.911  1.00  0.00    -0.348 OA
BRANCH   6   7
HETATM    7  C6  UNL     1      24.300   3.595  49.376  1.00  0.00     0.103 A 
HETATM    8  C7  UNL     1      23.343   2.678  49.380  1.00  0.00     0.057 A 
HETATM    9  C8  UNL     1      22.027   2.968  48.822  1.00  0.00     0.039 A 
HETATM   10  C9  UNL     1      21.023   2.113  48.787  1.00  0.00     0.112 C 
HETATM   11  C16 UNL     1      21.844   4.323  48.265  1.00  0.00     0.067 A 
HETATM   12  N3  UNL     1      20.737   4.721  47.740  1.00  0.00    -0.293 NA
HETATM   13  C18 UNL     1      22.954   5.278  48.300  1.00  0.00     0.071 A 
HETATM   14  C17 UNL     1      20.526   6.030  47.190  1.00  0.00     0.178 C 
HETATM   15  C19 UNL     1      24.110   4.950  48.817  1.00  0.00     0.103 A 
BRANCH  10  16
HETATM   16  N1  UNL     1      19.728   2.359  48.252  1.00  0.00    -0.385 N 
HETATM   17  H9  UNL     1      19.524   3.301  47.816  1.00  0.00     0.157 HD
HETATM   18  H10 UNL     1      18.829   1.848  48.149  1.00  0.00     0.157 HD
ENDBRANCH  10  16
BRANCH  10  19
HETATM   19  N2  UNL     1      21.221   0.813  49.329  1.00  0.00    -0.342 N 
HETATM   20  H11 UNL     1      21.656   0.109  48.696  1.00  0.00     0.167 HD
BRANCH  19  21
HETATM   21  C10 UNL     1      20.846   0.492  50.661  1.00  0.00     0.035 A 
HETATM   22  C11 UNL     1      19.510   0.493  51.000  1.00  0.00     0.029 A 
HETATM   23  C12 UNL     1      19.202   0.174  52.310  1.00  0.00     0.004 A 
HETATM   24  C13 UNL     1      20.158  -0.142  53.281  1.00  0.00     0.024 A 
HETATM   25  C14 UNL     1      21.478  -0.125  52.875  1.00  0.00     0.036 A 
HETATM   26 CL1  UNL     1      22.682  -0.527  54.109  1.00  0.00    -0.084 Cl
HETATM   27  C15 UNL     1      21.835   0.189  51.571  1.00  0.00     0.053 A 
ENDBRANCH  19  21
ENDBRANCH  10  19
BRANCH  15  28
HETATM   28  O2  UNL     1      25.187   5.847  48.861  1.00  0.00    -0.353 OA
HETATM   29  C20 UNL     1      25.227   7.001  48.046  1.00  0.00     0.210 C 
ENDBRANCH  15  28
ENDBRANCH   6   7
ENDBRANCH   5   6
ENDBRANCH   4   5
ENDBRANCH   3   4
TORSDOF 8
ENDMDL
MODEL 8
REMARK VINA RESULT:      -6.6      3.875      7.134
REMARK  8 active torsions:
REMARK  status: ('A' for Active; 'I' for Inactive)
REMARK    1  A    between atoms: C3_3  and  C4_4 
REMARK    2  A    between atoms: C4_4  and  C5_5 
REMARK    3  A    between atoms: C5_5  and  O1_6 
REMARK    4  A    between atoms: O1_6  and  C6_7 
REMARK    5  A    between atoms: C9_10  and  N1_11 
REMARK    6  A    between atoms: C9_10  and  N2_12 
REMARK    7  A    between atoms: N2_12  and  C10_13 
REMARK    8  A    between atoms: C19_24  and  O2_25 
ROOT
HETATM    1  C1  UNL     1      22.810   6.971  45.173  1.00  0.00     0.012 C 
HETATM    2  C2  UNL     1      22.758   6.673  46.341  1.00  0.00    -0.117 C 
HETATM    3  C3  UNL     1      22.684   6.319  47.777  1.00  0.00     0.095 C 
ENDROOT
BRANCH   3   4
HETATM    4  C4  UNL     1      24.078   6.196  48.356  1.00  0.00     0.039 C 
BRANCH   4   5
HETATM    5  C5  UNL     1      24.067   5.474  49.679  1.00  0.00     0.176 C 
BRANCH   5   6
HETATM    6  O1  UNL     1      23.302   4.322  49.538  1.00  0.00    -0.348 OA
BRANCH   6   7
HETATM    7  C6  UNL     1      23.025   3.377  50.500  1.00  0.00     0.103 A 
HETATM    8  C7  UNL     1      23.974   2.532  50.874  1.00  0.00     0.057 A 
HETATM    9  C8  UNL     1      23.716   1.518  51.890  1.00  0.00     0.039 A 
HETATM   10  C9  UNL     1      24.604   0.641  52.317  1.00  0.00     0.112 C 
HETATM   11  C16 UNL     1      22.353   1.503  52.457  1.00  0.00     0.067 A 
HETATM   12  N3  UNL     1      21.980   0.664  53.362  1.00  0.00    -0.293 NA
HETATM   13  C18 UNL     1      21.361   2.473  51.989  1.00  0.00     0.071 A 
HETATM   14  C17 UNL     1      20.663   0.623  53.934  1.00  0.00     0.178 C 
HETATM   15  C19 UNL     1      21.662   3.357  51.072  1.00  0.00     0.103 A 
BRANCH  10  16
HETATM   16  N1  UNL     1      24.389  -0.360  53.305  1.00  0.00    -0.385 N 
HETATM   17  H9  UNL     1      24.157  -1.344  52.995  1.00  0.00     0.157 HD
HETATM   18  H10 UNL     1      24.389  -0.429  54.342  1.00  0.00     0.157 HD
ENDBRANCH  10  16
BRANCH  10  19
HETATM   19  N2  UNL     1      25.911   0.674  51.758  1.00  0.00    -0.342 N 
HETATM   20  H11 UNL     1      25.978   0.525  50.729  1.00  0.00     0.167 HD
BRANCH  19  21
HETATM   21  C10 UNL     1      27.062   0.899  52.558  1.00  0.00     0.035 A 
HETATM   22  C11 UNL     1      27.307   2.167  53.040  1.00  0.00     0.029 A 
HETATM   23  C12 UNL     1      28.443   2.327  53.814  1.00  0.00     0.004 A 
HETATM   24  C13 UNL     1      29.330   1.291  54.122  1.00  0.00     0.024 A 
HETATM   25  C14 UNL     1      29.026   0.046  53.609  1.00  0.00     0.036 A 
HETATM   26 CL1  UNL     1      30.152  -1.261  54.004  1.00  0.00    -0.084 Cl
HETATM   27  C15 UNL     1      27.898  -0.164  52.827  1.00  0.00     0.053 A 
ENDBRANCH  19  21
ENDBRANCH  10  19
BRANCH  15  28
HETATM   28  O2  UNL     1      20.729   4.294  50.607  1.00  0.00    -0.353 OA
HETATM   29  C20 UNL     1      19.357   4.203  50.935  1.00  0.00     0.210 C 
ENDBRANCH  15  28
ENDBRANCH   6   7
ENDBRANCH   5   6
ENDBRANCH   4   5
ENDBRANCH   3   4
TORSDOF 8
ENDMDL
MODEL 9
REMARK VINA RESULT:      -6.6      4.026      6.798
REMARK  8 active torsions:
REMARK  status: ('A' for Active; 'I' for Inactive)
REMARK    1  A    between atoms: C3_3  and  C4_4 
REMARK    2  A    between atoms: C4_4  and  C5_5 
REMARK    3  A    between atoms: C5_5  and  O1_6 
REMARK    4  A    between atoms: O1_6  and  C6_7 
REMARK    5  A    between atoms: C9_10  and  N1_11 
REMARK    6  A    between atoms: C9_10  and  N2_12 
REMARK    7  A    between atoms: N2_12  and  C10_13 
REMARK    8  A    between atoms: C19_24  and  O2_25 
ROOT
HETATM    1  C1  UNL     1      22.451   2.175  48.434  1.00  0.00     0.012 C 
HETATM    2  C2  UNL     1      22.763   3.338  48.505  1.00  0.00    -0.117 C 
HETATM    3  C3  UNL     1      23.156   4.764  48.583  1.00  0.00     0.095 C 
ENDROOT
BRANCH   3   4
HETATM    4  C4  UNL     1      23.406   5.158  50.024  1.00  0.00     0.039 C 
BRANCH   4   5
HETATM    5  C5  UNL     1      22.321   6.065  50.546  1.00  0.00     0.176 C 
BRANCH   5   6
HETATM    6  O1  UNL     1      21.693   5.423  51.606  1.00  0.00    -0.348 OA
BRANCH   6   7
HETATM    7  C6  UNL     1      21.221   4.130  51.642  1.00  0.00     0.103 A 
HETATM    8  C7  UNL     1      21.929   3.197  52.263  1.00  0.00     0.057 A 
HETATM    9  C8  UNL     1      21.460   1.817  52.322  1.00  0.00     0.039 A 
HETATM   10  C9  UNL     1      22.103   0.832  52.919  1.00  0.00     0.112 C 
HETATM   11  C16 UNL     1      20.173   1.543  51.654  1.00  0.00     0.067 A 
HETATM   12  N3  UNL     1      19.635   0.371  51.624  1.00  0.00    -0.293 NA
HETATM   13  C18 UNL     1      19.453   2.631  50.989  1.00  0.00     0.071 A 
HETATM   14  C17 UNL     1      18.385   0.071  50.984  1.00  0.00     0.178 C 
HETATM   15  C19 UNL     1      19.933   3.848  50.975  1.00  0.00     0.103 A 
BRANCH  10  16
HETATM   16  N1  UNL     1      21.677  -0.524  52.996  1.00  0.00    -0.385 N 
HETATM   17  H9  UNL     1      21.526  -0.960  53.948  1.00  0.00     0.157 HD
HETATM   18  H10 UNL     1      21.448  -1.296  52.340  1.00  0.00     0.157 HD
ENDBRANCH  10  16
BRANCH  10  19
HETATM   19  N2  UNL     1      23.341   1.119  53.556  1.00  0.00    -0.342 N 
HETATM   20  H11 UNL     1      23.285   1.549  54.504  1.00  0.00     0.167 HD
BRANCH  19  21
HETATM   21  C10 UNL     1      24.586   0.837  52.934  1.00  0.00     0.035 A 
HETATM   22  C11 UNL     1      25.188   1.809  52.165  1.00  0.00     0.029 A 
HETATM   23  C12 UNL     1      26.398   1.479  51.582  1.00  0.00     0.004 A 
HETATM   24  C13 UNL     1      27.024   0.237  51.735  1.00  0.00     0.024 A 
HETATM   25  C14 UNL     1      26.369  -0.691  52.519  1.00  0.00     0.036 A 
HETATM   26 CL1  UNL     1      27.167  -2.259  52.708  1.00  0.00    -0.084 Cl
HETATM   27  C15 UNL     1      25.152  -0.406  53.123  1.00  0.00     0.053 A 
ENDBRANCH  19  21
ENDBRANCH  10  19
BRANCH  15  28
HETATM   28  O2  UNL     1      19.263   4.906  50.345  1.00  0.00    -0.353 OA
HETATM   29  C20 UNL     1      19.106   4.955  48.940  1.00  0.00     0.210 C 
ENDBRANCH  15  28
ENDBRANCH   6   7
ENDBRANCH   5   6
ENDBRANCH   4   5
ENDBRANCH   3   4
TORSDOF 8
ENDMDL
