MODEL 1
REMARK VINA RESULT:      -8.7      0.000      0.000
REMARK  7 active torsions:
REMARK  status: ('A' for Active; 'I' for Inactive)
REMARK    1  A    between atoms: N1_1  and  O1_2 
REMARK    2  A    between atoms: O1_2  and  C1_3 
REMARK    3  A    between atoms: N2_6  and  C4_7 
REMARK    4  A    between atoms: C5_8  and  N3_9 
REMARK    5  A    between atoms: C7_13  and  N6_14 
REMARK    6  A    between atoms: C8_15  and  C9_16 
REMARK    7  A    between atoms: C13_20  and  O2_21 
ROOT
HETATM    1  C4  UNL     1      23.436   1.148  52.642  1.00  0.00     0.150 A 
HETATM    2  C5  UNL     1      22.539   0.115  52.824  1.00  0.00     0.155 A 
HETATM    3  N4  UNL     1      21.549  -0.133  51.948  1.00  0.00    -0.222 NA
HETATM    4  C6  UNL     1      21.397   0.636  50.840  1.00  0.00     0.237 A 
HETATM    5  N5  UNL     1      22.266   1.653  50.642  1.00  0.00    -0.220 NA
HETATM    6  C7  UNL     1      23.269   1.922  51.511  1.00  0.00     0.183 A 
ENDROOT
BRANCH   1   7
HETATM    7  N2  UNL     1      24.511   1.530  53.459  1.00  0.00    -0.245 NA
HETATM    8  C3  UNL     1      25.627   0.898  53.358  1.00  0.00     0.041 A 
HETATM    9  C2  UNL     1      26.707   1.345  54.237  1.00  0.00     0.066 A 
HETATM   10  C15 UNL     1      25.797  -0.226  52.392  1.00  0.00     0.086 A 
HETATM   11  C1  UNL     1      27.901   0.748  54.201  1.00  0.00     0.093 A 
HETATM   12  C17 UNL     1      28.146  -0.357  53.284  1.00  0.00     0.035 A 
HETATM   13  C16 UNL     1      27.170  -0.768  52.482  1.00  0.00    -0.018 A 
BRANCH  11  14
HETATM   14  O1  UNL     1      28.901   1.194  55.046  1.00  0.00    -0.267 OA
BRANCH  14  15
HETATM   15  N1  UNL     1      29.584   2.326  54.651  1.00  0.00    -0.209 NA
HETATM   16  H1  UNL     1      30.582   2.200  54.919  1.00  0.00     0.150 HD
HETATM   17  H2  UNL     1      29.218   3.153  55.145  1.00  0.00     0.150 HD
ENDBRANCH  14  15
ENDBRANCH  11  14
ENDBRANCH   1   7
BRANCH   2  18
HETATM   18  N3  UNL     1      22.751  -0.659  54.012  1.00  0.00    -0.382 N 
HETATM   19  H4  UNL     1      22.104  -1.221  54.618  1.00  0.00     0.157 HD
HETATM   20  H5  UNL     1      23.679  -0.756  54.449  1.00  0.00     0.157 HD
ENDBRANCH   2  18
BRANCH   6  21
HETATM   21  N6  UNL     1      24.035   3.037  51.073  1.00  0.00    -0.238 NA
HETATM   22  C8  UNL     1      24.481   3.001  49.862  1.00  0.00     0.130 C 
BRANCH  22  23
HETATM   23  C9  UNL     1      25.277   4.148  49.392  1.00  0.00    -0.016 A 
HETATM   24  C10 UNL     1      24.597   5.265  48.966  1.00  0.00     0.013 A 
HETATM   25  C11 UNL     1      25.333   6.345  48.524  1.00  0.00     0.004 A 
HETATM   26  C12 UNL     1      26.692   6.323  48.503  1.00  0.00     0.036 A 
HETATM   27  C13 UNL     1      27.346   5.189  48.935  1.00  0.00     0.066 A 
HETATM   28  C14 UNL     1      26.666   4.057  49.397  1.00  0.00     0.049 A 
BRANCH  27  29
HETATM   29  O2  UNL     1      28.746   5.040  48.963  1.00  0.00    -0.361 OA
HETATM   30  H11 UNL     1      29.210   5.011  48.061  1.00  0.00     0.217 HD
ENDBRANCH  27  29
ENDBRANCH  22  23
ENDBRANCH   6  21
TORSDOF 7
ENDMDL
MODEL 2
REMARK VINA RESULT:      -8.6      2.086      5.636
REMARK  7 active torsions:
REMARK  status: ('A' for Active; 'I' for Inactive)
REMARK    1  A    between atoms: N1_1  and  O1_2 
REMARK    2  A    between atoms: O1_2  and  C1_3 
REMARK    3  A    between atoms: N2_6  and  C4_7 
REMARK    4  A    between atoms: C5_8  and  N3_9 
REMARK    5  A    between atoms: C7_13  and  N6_14 
REMARK    6  A    between atoms: C8_15  and  C9_16 
REMARK    7  A    between atoms: C13_20  and  O2_21 
ROOT
HETATM    1  C4  UNL     1      22.691   1.390  53.023  1.00  0.00     0.150 A 
HETATM    2  C5  UNL     1      21.399   0.927  52.879  1.00  0.00     0.155 A 
HETATM    3  N4  UNL     1      21.091  -0.376  52.996  1.00  0.00    -0.222 NA
HETATM    4  C6  UNL     1      22.054  -1.294  53.265  1.00  0.00     0.237 A 
HETATM    5  N5  UNL     1      23.327  -0.861  53.410  1.00  0.00    -0.220 NA
HETATM    6  C7  UNL     1      23.660   0.446  53.295  1.00  0.00     0.183 A 
ENDROOT
BRANCH   1   7
HETATM    7  N2  UNL     1      23.166   2.707  52.930  1.00  0.00    -0.245 NA
HETATM    8  C3  UNL     1      23.519   3.163  51.780  1.00  0.00     0.041 A 
HETATM    9  C2  UNL     1      24.004   4.542  51.751  1.00  0.00     0.066 A 
HETATM   10  C15 UNL     1      23.432   2.321  50.552  1.00  0.00     0.086 A 
HETATM   11  C1  UNL     1      24.392   5.100  50.601  1.00  0.00     0.093 A 
HETATM   12  C17 UNL     1      24.338   4.343  49.358  1.00  0.00     0.035 A 
HETATM   13  C16 UNL     1      23.897   3.090  49.376  1.00  0.00    -0.018 A 
BRANCH  11  14
HETATM   14  O1  UNL     1      24.847   6.407  50.607  1.00  0.00    -0.267 OA
BRANCH  14  15
HETATM   15  N1  UNL     1      24.546   7.160  51.722  1.00  0.00    -0.209 NA
HETATM   16  H1  UNL     1      24.695   8.160  51.476  1.00  0.00     0.150 HD
HETATM   17  H2  UNL     1      25.182   6.919  52.496  1.00  0.00     0.150 HD
ENDBRANCH  14  15
ENDBRANCH  11  14
ENDBRANCH   1   7
BRANCH   2  18
HETATM   18  N3  UNL     1      20.428   1.943  52.596  1.00  0.00    -0.382 N 
HETATM   19  H4  UNL     1      20.428   2.984  52.735  1.00  0.00     0.157 HD
HETATM   20  H5  UNL     1      19.513   1.731  52.172  1.00  0.00     0.157 HD
ENDBRANCH   2  18
BRANCH   6  21
HETATM   21  N6  UNL     1      25.056   0.633  53.492  1.00  0.00    -0.238 NA
HETATM   22  C8  UNL     1      25.823  -0.374  53.241  1.00  0.00     0.130 C 
BRANCH  22  23
HETATM   23  C9  UNL     1      27.272  -0.198  53.439  1.00  0.00    -0.016 A 
HETATM   24  C10 UNL     1      28.091  -1.262  53.141  1.00  0.00     0.013 A 
HETATM   25  C11 UNL     1      29.451  -1.107  53.322  1.00  0.00     0.004 A 
HETATM   26  C12 UNL     1      29.982   0.058  53.781  1.00  0.00     0.036 A 
HETATM   27  C13 UNL     1      29.135   1.107  54.071  1.00  0.00     0.066 A 
HETATM   28  C14 UNL     1      27.748   1.021  53.912  1.00  0.00     0.049 A 
BRANCH  27  29
HETATM   29  O2  UNL     1      29.559   2.360  54.552  1.00  0.00    -0.361 OA
HETATM   30  H11 UNL     1      29.488   3.136  53.901  1.00  0.00     0.217 HD
ENDBRANCH  27  29
ENDBRANCH  22  23
ENDBRANCH   6  21
TORSDOF 7
ENDMDL
MODEL 3
REMARK VINA RESULT:      -8.2      3.375      7.019
REMARK  7 active torsions:
REMARK  status: ('A' for Active; 'I' for Inactive)
REMARK    1  A    between atoms: N1_1  and  O1_2 
REMARK    2  A    between atoms: O1_2  and  C1_3 
REMARK    3  A    between atoms: N2_6  and  C4_7 
REMARK    4  A    between atoms: C5_8  and  N3_9 
REMARK    5  A    between atoms: C7_13  and  N6_14 
REMARK    6  A    between atoms: C8_15  and  C9_16 
REMARK    7  A    between atoms: C13_20  and  O2_21 
ROOT
HETATM    1  C4  UNL     1      25.130   1.680  53.273  1.00  0.00     0.150 A 
HETATM    2  C5  UNL     1      26.414   1.425  53.708  1.00  0.00     0.155 A 
HETATM    3  N4  UNL     1      26.883   0.173  53.855  1.00  0.00    -0.222 NA
HETATM    4  C6  UNL     1      26.096  -0.897  53.576  1.00  0.00     0.237 A 
HETATM    5  N5  UNL     1      24.834  -0.670  53.147  1.00  0.00    -0.220 NA
HETATM    6  C7  UNL     1      24.341   0.582  52.993  1.00  0.00     0.183 A 
ENDROOT
BRANCH   1   7
HETATM    7  N2  UNL     1      24.502   2.918  53.072  1.00  0.00    -0.245 NA
HETATM    8  C3  UNL     1      24.602   3.491  51.924  1.00  0.00     0.041 A 
HETATM    9  C2  UNL     1      23.925   4.779  51.781  1.00  0.00     0.066 A 
HETATM   10  C15 UNL     1      25.369   2.863  50.810  1.00  0.00     0.086 A 
HETATM   11  C1  UNL     1      23.973   5.445  50.625  1.00  0.00     0.093 A 
HETATM   12  C17 UNL     1      24.703   4.898  49.488  1.00  0.00     0.035 A 
HETATM   13  C16 UNL     1      25.320   3.728  49.611  1.00  0.00    -0.018 A 
BRANCH  11  14
HETATM   14  O1  UNL     1      23.323   6.661  50.521  1.00  0.00    -0.267 OA
BRANCH  14  15
HETATM   15  N1  UNL     1      23.781   7.677  51.332  1.00  0.00    -0.209 NA
HETATM   16  H1  UNL     1      23.022   7.909  52.007  1.00  0.00     0.150 HD
HETATM   17  H2  UNL     1      23.981   8.518  50.772  1.00  0.00     0.150 HD
ENDBRANCH  14  15
ENDBRANCH  11  14
ENDBRANCH   1   7
BRANCH   2  18
HETATM   18  N3  UNL     1      27.194   2.595  53.988  1.00  0.00    -0.382 N 
HETATM   19  H4  UNL     1      27.061   3.395  54.655  1.00  0.00     0.157 HD
HETATM   20  H5  UNL     1      28.079   2.798  53.501  1.00  0.00     0.157 HD
ENDBRANCH   2  18
BRANCH   6  21
HETATM   21  N6  UNL     1      22.996   0.545  52.533  1.00  0.00    -0.238 NA
HETATM   22  C8  UNL     1      22.150  -0.116  53.250  1.00  0.00     0.130 C 
BRANCH  22  23
HETATM   23  C9  UNL     1      20.752  -0.164  52.789  1.00  0.00    -0.016 A 
HETATM   24  C10 UNL     1      20.470   0.362  51.550  1.00  0.00     0.013 A 
HETATM   25  C11 UNL     1      19.163   0.321  51.109  1.00  0.00     0.004 A 
HETATM   26  C12 UNL     1      18.171  -0.220  51.863  1.00  0.00     0.036 A 
HETATM   27  C13 UNL     1      18.484  -0.739  53.102  1.00  0.00     0.066 A 
HETATM   28  C14 UNL     1      19.786  -0.733  53.614  1.00  0.00     0.049 A 
BRANCH  27  29
HETATM   29  O2  UNL     1      17.550  -1.326  53.978  1.00  0.00    -0.361 OA
HETATM   30  H11 UNL     1      17.893  -1.562  54.903  1.00  0.00     0.217 HD
ENDBRANCH  27  29
ENDBRANCH  22  23
ENDBRANCH   6  21
TORSDOF 7
ENDMDL
MODEL 4
REMARK VINA RESULT:      -8.2      2.743      6.290
REMARK  7 active torsions:
REMARK  status: ('A' for Active; 'I' for Inactive)
REMARK    1  A    between atoms: N1_1  and  O1_2 
REMARK    2  A    between atoms: O1_2  and  C1_3 
REMARK    3  A    between atoms: N2_6  and  C4_7 
REMARK    4  A    between atoms: C5_8  and  N3_9 
REMARK    5  A    between atoms: C7_13  and  N6_14 
REMARK    6  A    between atoms: C8_15  and  C9_16 
REMARK    7  A    between atoms: C13_20  and  O2_21 
ROOT
HETATM    1  C4  UNL     1      24.138   3.474  51.799  1.00  0.00     0.150 A 
HETATM    2  C5  UNL     1      23.689   4.671  51.279  1.00  0.00     0.155 A 
HETATM    3  N4  UNL     1      24.399   5.367  50.373  1.00  0.00    -0.222 NA
HETATM    4  C6  UNL     1      25.600   4.908  49.936  1.00  0.00     0.237 A 
HETATM    5  N5  UNL     1      26.058   3.737  50.433  1.00  0.00    -0.220 NA
HETATM    6  C7  UNL     1      25.360   3.021  51.346  1.00  0.00     0.183 A 
ENDROOT
BRANCH   1   7
HETATM    7  N2  UNL     1      23.517   2.641  52.742  1.00  0.00    -0.245 NA
HETATM    8  C3  UNL     1      22.647   1.783  52.340  1.00  0.00     0.041 A 
HETATM    9  C2  UNL     1      22.037   0.945  53.372  1.00  0.00     0.066 A 
HETATM   10  C15 UNL     1      22.289   1.660  50.897  1.00  0.00     0.086 A 
HETATM   11  C1  UNL     1      21.124   0.027  53.047  1.00  0.00     0.093 A 
HETATM   12  C17 UNL     1      20.721  -0.154  51.659  1.00  0.00     0.035 A 
HETATM   13  C16 UNL     1      21.271   0.602  50.716  1.00  0.00    -0.018 A 
BRANCH  11  14
HETATM   14  O1  UNL     1      20.566  -0.750  54.047  1.00  0.00    -0.267 OA
BRANCH  14  15
HETATM   15  N1  UNL     1      21.438  -1.289  54.969  1.00  0.00    -0.209 NA
HETATM   16  H1  UNL     1      22.343  -0.781  54.881  1.00  0.00     0.150 HD
HETATM   17  H2  UNL     1      21.605  -2.284  54.761  1.00  0.00     0.150 HD
ENDBRANCH  14  15
ENDBRANCH  11  14
ENDBRANCH   1   7
BRANCH   2  18
HETATM   18  N3  UNL     1      22.417   5.101  51.780  1.00  0.00    -0.382 N 
HETATM   19  H4  UNL     1      21.437   4.763  51.614  1.00  0.00     0.157 HD
HETATM   20  H5  UNL     1      22.321   5.887  52.440  1.00  0.00     0.157 HD
ENDBRANCH   2  18
BRANCH   6  21
HETATM   21  N6  UNL     1      26.059   1.836  51.704  1.00  0.00    -0.238 NA
HETATM   22  C8  UNL     1      27.113   1.976  52.436  1.00  0.00     0.130 C 
BRANCH  22  23
HETATM   23  C9  UNL     1      27.850   0.759  52.817  1.00  0.00    -0.016 A 
HETATM   24  C10 UNL     1      29.106   0.915  53.355  1.00  0.00     0.013 A 
HETATM   25  C11 UNL     1      29.804  -0.220  53.715  1.00  0.00     0.004 A 
HETATM   26  C12 UNL     1      29.280  -1.463  53.550  1.00  0.00     0.036 A 
HETATM   27  C13 UNL     1      28.019  -1.588  53.007  1.00  0.00     0.066 A 
HETATM   28  C14 UNL     1      27.254  -0.483  52.620  1.00  0.00     0.049 A 
BRANCH  27  29
HETATM   29  O2  UNL     1      27.367  -2.816  52.785  1.00  0.00    -0.361 OA
HETATM   30  H11 UNL     1      27.621  -3.576  53.408  1.00  0.00     0.217 HD
ENDBRANCH  27  29
ENDBRANCH  22  23
ENDBRANCH   6  21
TORSDOF 7
ENDMDL
MODEL 5
REMARK VINA RESULT:      -8.0      3.052      6.203
REMARK  7 active torsions:
REMARK  status: ('A' for Active; 'I' for Inactive)
REMARK    1  A    between atoms: N1_1  and  O1_2 
REMARK    2  A    between atoms: O1_2  and  C1_3 
REMARK    3  A    between atoms: N2_6  and  C4_7 
REMARK    4  A    between atoms: C5_8  and  N3_9 
REMARK    5  A    between atoms: C7_13  and  N6_14 
REMARK    6  A    between atoms: C8_15  and  C9_16 
REMARK    7  A    between atoms: C13_20  and  O2_21 
ROOT
HETATM    1  C4  UNL     1      25.080   2.737  50.934  1.00  0.00     0.150 A 
HETATM    2  C5  UNL     1      25.560   3.975  50.560  1.00  0.00     0.155 A 
HETATM    3  N4  UNL     1      24.768   5.062  50.511  1.00  0.00    -0.222 NA
HETATM    4  C6  UNL     1      23.453   4.974  50.834  1.00  0.00     0.237 A 
HETATM    5  N5  UNL     1      22.963   3.770  51.203  1.00  0.00    -0.220 NA
HETATM    6  C7  UNL     1      23.740   2.663  51.258  1.00  0.00     0.183 A 
ENDROOT
BRANCH   1   7
HETATM    7  N2  UNL     1      25.774   1.521  51.031  1.00  0.00    -0.245 NA
HETATM    8  C3  UNL     1      26.253   1.165  52.171  1.00  0.00     0.041 A 
HETATM    9  C2  UNL     1      26.965  -0.112  52.205  1.00  0.00     0.066 A 
HETATM   10  C15 UNL     1      26.083   2.017  53.383  1.00  0.00     0.086 A 
HETATM   11  C1  UNL     1      27.495  -0.562  53.344  1.00  0.00     0.093 A 
HETATM   12  C17 UNL     1      27.372   0.212  54.572  1.00  0.00     0.035 A 
HETATM   13  C16 UNL     1      26.726   1.373  54.550  1.00  0.00    -0.018 A 
BRANCH  11  14
HETATM   14  O1  UNL     1      28.162  -1.774  53.343  1.00  0.00    -0.267 OA
BRANCH  14  15
HETATM   15  N1  UNL     1      27.535  -2.824  52.706  1.00  0.00    -0.209 NA
HETATM   16  H1  UNL     1      26.659  -2.456  52.282  1.00  0.00     0.150 HD
HETATM   17  H2  UNL     1      27.282  -3.554  53.388  1.00  0.00     0.150 HD
ENDBRANCH  14  15
ENDBRANCH  11  14
ENDBRANCH   1   7
BRANCH   2  18
HETATM   18  N3  UNL     1      26.954   4.002  50.231  1.00  0.00    -0.382 N 
HETATM   19  H4  UNL     1      27.606   4.781  49.962  1.00  0.00     0.157 HD
HETATM   20  H5  UNL     1      27.537   3.152  50.224  1.00  0.00     0.157 HD
ENDBRANCH   2  18
BRANCH   6  21
HETATM   21  N6  UNL     1      22.986   1.532  51.674  1.00  0.00    -0.238 NA
HETATM   22  C8  UNL     1      22.524   1.547  52.880  1.00  0.00     0.130 C 
BRANCH  22  23
HETATM   23  C9  UNL     1      21.739   0.383  53.327  1.00  0.00    -0.016 A 
HETATM   24  C10 UNL     1      22.398  -0.602  54.024  1.00  0.00     0.013 A 
HETATM   25  C11 UNL     1      21.672  -1.696  54.448  1.00  0.00     0.004 A 
HETATM   26  C12 UNL     1      20.342  -1.812  54.193  1.00  0.00     0.036 A 
HETATM   27  C13 UNL     1      19.708  -0.809  53.491  1.00  0.00     0.066 A 
HETATM   28  C14 UNL     1      20.380   0.328  53.030  1.00  0.00     0.049 A 
BRANCH  27  29
HETATM   29  O2  UNL     1      18.339  -0.811  53.162  1.00  0.00    -0.361 OA
HETATM   30  H11 UNL     1      17.692  -0.891  53.941  1.00  0.00     0.217 HD
ENDBRANCH  27  29
ENDBRANCH  22  23
ENDBRANCH   6  21
TORSDOF 7
ENDMDL
MODEL 6
REMARK VINA RESULT:      -7.8      1.823      2.278
REMARK  7 active torsions:
REMARK  status: ('A' for Active; 'I' for Inactive)
REMARK    1  A    between atoms: N1_1  and  O1_2 
REMARK    2  A    between atoms: O1_2  and  C1_3 
REMARK    3  A    between atoms: N2_6  and  C4_7 
REMARK    4  A    between atoms: C5_8  and  N3_9 
REMARK    5  A    between atoms: C7_13  and  N6_14 
REMARK    6  A    between atoms: C8_15  and  C9_16 
REMARK    7  A    between atoms: C13_20  and  O2_21 
ROOT
HETATM    1  C4  UNL     1      23.832   1.083  52.022  1.00  0.00     0.150 A 
HETATM    2  C5  UNL     1      22.661   0.705  52.646  1.00  0.00     0.155 A 
HETATM    3  N4  UNL     1      21.619   1.545  52.776  1.00  0.00    -0.222 NA
HETATM    4  C6  UNL     1      21.685   2.811  52.291  1.00  0.00     0.237 A 
HETATM    5  N5  UNL     1      22.824   3.202  51.676  1.00  0.00    -0.220 NA
HETATM    6  C7  UNL     1      23.886   2.373  51.534  1.00  0.00     0.183 A 
ENDROOT
BRANCH   1   7
HETATM    7  N2  UNL     1      24.996   0.329  51.811  1.00  0.00    -0.245 NA
HETATM    8  C3  UNL     1      25.871   0.254  52.751  1.00  0.00     0.041 A 
HETATM    9  C2  UNL     1      27.061  -0.548  52.468  1.00  0.00     0.066 A 
HETATM   10  C15 UNL     1      25.670   0.952  54.054  1.00  0.00     0.086 A 
HETATM   11  C1  UNL     1      28.022  -0.682  53.385  1.00  0.00     0.093 A 
HETATM   12  C17 UNL     1      27.900  -0.031  54.683  1.00  0.00     0.035 A 
HETATM   13  C16 UNL     1      26.822   0.698  54.948  1.00  0.00    -0.018 A 
BRANCH  11  14
HETATM   14  O1  UNL     1      29.135  -1.447  53.086  1.00  0.00    -0.267 OA
BRANCH  14  15
HETATM   15  N1  UNL     1      29.015  -2.809  53.267  1.00  0.00    -0.209 NA
HETATM   16  H1  UNL     1      28.684  -3.218  52.368  1.00  0.00     0.150 HD
HETATM   17  H2  UNL     1      28.311  -3.011  53.991  1.00  0.00     0.150 HD
ENDBRANCH  14  15
ENDBRANCH  11  14
ENDBRANCH   1   7
BRANCH   2  18
HETATM   18  N3  UNL     1      22.653  -0.642  53.136  1.00  0.00    -0.382 N 
HETATM   19  H4  UNL     1      21.928  -1.401  53.114  1.00  0.00     0.157 HD
HETATM   20  H5  UNL     1      23.460  -1.057  53.623  1.00  0.00     0.157 HD
ENDBRANCH   2  18
BRANCH   6  21
HETATM   21  N6  UNL     1      24.951   3.025  50.855  1.00  0.00    -0.238 NA
HETATM   22  C8  UNL     1      24.713   4.206  50.389  1.00  0.00     0.130 C 
BRANCH  22  23
HETATM   23  C9  UNL     1      25.806   4.897  49.683  1.00  0.00    -0.016 A 
HETATM   24  C10 UNL     1      26.871   4.138  49.256  1.00  0.00     0.013 A 
HETATM   25  C11 UNL     1      27.899   4.775  48.593  1.00  0.00     0.004 A 
HETATM   26  C12 UNL     1      27.877   6.114  48.359  1.00  0.00     0.036 A 
HETATM   27  C13 UNL     1      26.796   6.849  48.800  1.00  0.00     0.066 A 
HETATM   28  C14 UNL     1      25.718   6.270  49.478  1.00  0.00     0.049 A 
BRANCH  27  29
HETATM   29  O2  UNL     1      26.654   8.238  48.621  1.00  0.00    -0.361 OA
HETATM   30  H11 UNL     1      27.380   8.696  48.080  1.00  0.00     0.217 HD
ENDBRANCH  27  29
ENDBRANCH  22  23
ENDBRANCH   6  21
TORSDOF 7
ENDMDL
MODEL 7
REMARK VINA RESULT:      -7.5      6.224      9.976
REMARK  7 active torsions:
REMARK  status: ('A' for Active; 'I' for Inactive)
REMARK    1  A    between atoms: N1_1  and  O1_2 
REMARK    2  A    between atoms: O1_2  and  C1_3 
REMARK    3  A    between atoms: N2_6  and  C4_7 
REMARK    4  A    between atoms: C5_8  and  N3_9 
REMARK    5  A    between atoms: C7_13  and  N6_14 
REMARK    6  A    between atoms: C8_15  and  C9_16 
REMARK    7  A    between atoms: C13_20  and  O2_21 
ROOT
HETATM    1  C4  UNL     1      32.540   6.598  48.813  1.00  0.00     0.150 A 
HETATM    2  C5  UNL     1      33.831   6.363  48.384  1.00  0.00     0.155 A 
HETATM    3  N4  UNL     1      34.198   5.192  47.833  1.00  0.00    -0.222 NA
HETATM    4  C6  UNL     1      33.298   4.188  47.679  1.00  0.00     0.237 A 
HETATM    5  N5  UNL     1      32.027   4.397  48.092  1.00  0.00    -0.220 NA
HETATM    6  C7  UNL     1      31.636   5.568  48.650  1.00  0.00     0.183 A 
ENDROOT
BRANCH   1   7
HETATM    7  N2  UNL     1      32.010   7.755  49.402  1.00  0.00    -0.245 NA
HETATM    8  C3  UNL     1      31.512   8.669  48.645  1.00  0.00     0.041 A 
HETATM    9  C2  UNL     1      30.976   9.850  49.321  1.00  0.00     0.066 A 
HETATM   10  C15 UNL     1      31.490   8.519  47.161  1.00  0.00     0.086 A 
HETATM   11  C1  UNL     1      30.439  10.849  48.617  1.00  0.00     0.093 A 
HETATM   12  C17 UNL     1      30.380  10.778  47.162  1.00  0.00     0.035 A 
HETATM   13  C16 UNL     1      30.865   9.709  46.541  1.00  0.00    -0.018 A 
BRANCH  11  14
HETATM   14  O1  UNL     1      29.940  11.952  49.286  1.00  0.00    -0.267 OA
BRANCH  14  15
HETATM   15  N1  UNL     1      28.568  12.073  49.340  1.00  0.00    -0.209 NA
HETATM   16  H1  UNL     1      28.312  12.319  50.319  1.00  0.00     0.150 HD
HETATM   17  H2  UNL     1      28.122  11.174  49.106  1.00  0.00     0.150 HD
ENDBRANCH  14  15
ENDBRANCH  11  14
ENDBRANCH   1   7
BRANCH   2  18
HETATM   18  N3  UNL     1      34.733   7.460  48.575  1.00  0.00    -0.382 N 
HETATM   19  H4  UNL     1      35.615   7.748  48.083  1.00  0.00     0.157 HD
HETATM   20  H5  UNL     1      34.592   8.170  49.307  1.00  0.00     0.157 HD
ENDBRANCH   2  18
BRANCH   6  21
HETATM   21  N6  UNL     1      30.257   5.530  48.995  1.00  0.00    -0.238 NA
HETATM   22  C8  UNL     1      29.409   5.695  48.036  1.00  0.00     0.130 C 
BRANCH  22  23
HETATM   23  C9  UNL     1      27.976   5.659  48.375  1.00  0.00    -0.016 A 
HETATM   24  C10 UNL     1      27.472   4.488  48.892  1.00  0.00     0.013 A 
HETATM   25  C11 UNL     1      26.131   4.444  49.214  1.00  0.00     0.004 A 
HETATM   26  C12 UNL     1      25.317   5.517  49.032  1.00  0.00     0.036 A 
HETATM   27  C13 UNL     1      25.851   6.678  48.511  1.00  0.00     0.066 A 
HETATM   28  C14 UNL     1      27.200   6.795  48.162  1.00  0.00     0.049 A 
BRANCH  27  29
HETATM   29  O2  UNL     1      25.115   7.855  48.274  1.00  0.00    -0.361 OA
HETATM   30  H11 UNL     1      24.428   7.810  47.528  1.00  0.00     0.217 HD
ENDBRANCH  27  29
ENDBRANCH  22  23
ENDBRANCH   6  21
TORSDOF 7
ENDMDL
MODEL 8
REMARK VINA RESULT:      -7.4      2.859      5.119
REMARK  7 active torsions:
REMARK  status: ('A' for Active; 'I' for Inactive)
REMARK    1  A    between atoms: N1_1  and  O1_2 
REMARK    2  A    between atoms: O1_2  and  C1_3 
REMARK    3  A    between atoms: N2_6  and  C4_7 
REMARK    4  A    between atoms: C5_8  and  N3_9 
REMARK    5  A    between atoms: C7_13  and  N6_14 
REMARK    6  A    between atoms: C8_15  and  C9_16 
REMARK    7  A    between atoms: C13_20  and  O2_21 
ROOT
HETATM    1  C4  UNL     1      24.479   1.154  52.727  1.00  0.00     0.150 A 
HETATM    2  C5  UNL     1      24.700  -0.108  53.241  1.00  0.00     0.155 A 
HETATM    3  N4  UNL     1      25.793  -0.825  52.925  1.00  0.00    -0.222 NA
HETATM    4  C6  UNL     1      26.728  -0.325  52.078  1.00  0.00     0.237 A 
HETATM    5  N5  UNL     1      26.530   0.910  51.563  1.00  0.00    -0.220 NA
HETATM    6  C7  UNL     1      25.438   1.650  51.867  1.00  0.00     0.183 A 
ENDROOT
BRANCH   1   7
HETATM    7  N2  UNL     1      23.398   2.017  52.959  1.00  0.00    -0.245 NA
HETATM    8  C3  UNL     1      22.334   1.893  52.246  1.00  0.00     0.041 A 
HETATM    9  C2  UNL     1      21.245   2.823  52.538  1.00  0.00     0.066 A 
HETATM   10  C15 UNL     1      22.232   0.851  51.183  1.00  0.00     0.086 A 
HETATM   11  C1  UNL     1      20.103   2.767  51.849  1.00  0.00     0.093 A 
HETATM   12  C17 UNL     1      19.925   1.777  50.794  1.00  0.00     0.035 A 
HETATM   13  C16 UNL     1      20.910   0.928  50.523  1.00  0.00    -0.018 A 
BRANCH  11  14
HETATM   14  O1  UNL     1      19.091   3.661  52.149  1.00  0.00    -0.267 OA
BRANCH  14  15
HETATM   15  N1  UNL     1      17.819   3.312  51.747  1.00  0.00    -0.209 NA
HETATM   16  H1  UNL     1      17.584   3.888  50.911  1.00  0.00     0.150 HD
HETATM   17  H2  UNL     1      17.139   3.529  52.489  1.00  0.00     0.150 HD
ENDBRANCH  14  15
ENDBRANCH  11  14
ENDBRANCH   1   7
BRANCH   2  18
HETATM   18  N3  UNL     1      23.678  -0.580  54.127  1.00  0.00    -0.382 N 
HETATM   19  H4  UNL     1      23.660  -1.344  54.848  1.00  0.00     0.157 HD
HETATM   20  H5  UNL     1      22.735  -0.166  54.153  1.00  0.00     0.157 HD
ENDBRANCH   2  18
BRANCH   6  21
HETATM   21  N6  UNL     1      25.471   2.904  51.197  1.00  0.00    -0.238 NA
HETATM   22  C8  UNL     1      26.359   3.049  50.271  1.00  0.00     0.130 C 
BRANCH  22  23
HETATM   23  C9  UNL     1      26.408   4.342  49.567  1.00  0.00    -0.016 A 
HETATM   24  C10 UNL     1      27.571   4.667  48.908  1.00  0.00     0.013 A 
HETATM   25  C11 UNL     1      27.626   5.875  48.244  1.00  0.00     0.004 A 
HETATM   26  C12 UNL     1      26.572   6.732  48.232  1.00  0.00     0.036 A 
HETATM   27  C13 UNL     1      25.419   6.380  48.902  1.00  0.00     0.066 A 
HETATM   28  C14 UNL     1      25.291   5.172  49.596  1.00  0.00     0.049 A 
BRANCH  27  29
HETATM   29  O2  UNL     1      24.261   7.178  48.966  1.00  0.00    -0.361 OA
HETATM   30  H11 UNL     1      23.885   7.492  48.077  1.00  0.00     0.217 HD
ENDBRANCH  27  29
ENDBRANCH  22  23
ENDBRANCH   6  21
TORSDOF 7
ENDMDL
MODEL 9
REMARK VINA RESULT:      -7.4      2.557      6.137
REMARK  7 active torsions:
REMARK  status: ('A' for Active; 'I' for Inactive)
REMARK    1  A    between atoms: N1_1  and  O1_2 
REMARK    2  A    between atoms: O1_2  and  C1_3 
REMARK    3  A    between atoms: N2_6  and  C4_7 
REMARK    4  A    between atoms: C5_8  and  N3_9 
REMARK    5  A    between atoms: C7_13  and  N6_14 
REMARK    6  A    between atoms: C8_15  and  C9_16 
REMARK    7  A    between atoms: C13_20  and  O2_21 
ROOT
HETATM    1  C4  UNL     1      23.230   4.234  50.933  1.00  0.00     0.150 A 
HETATM    2  C5  UNL     1      22.753   5.061  49.937  1.00  0.00     0.155 A 
HETATM    3  N4  UNL     1      23.559   5.581  48.994  1.00  0.00    -0.222 NA
HETATM    4  C6  UNL     1      24.888   5.304  48.991  1.00  0.00     0.237 A 
HETATM    5  N5  UNL     1      25.376   4.495  49.959  1.00  0.00    -0.220 NA
HETATM    6  C7  UNL     1      24.583   3.961  50.918  1.00  0.00     0.183 A 
ENDROOT
BRANCH   1   7
HETATM    7  N2  UNL     1      22.522   3.621  51.977  1.00  0.00    -0.245 NA
HETATM    8  C3  UNL     1      21.984   2.469  51.776  1.00  0.00     0.041 A 
HETATM    9  C2  UNL     1      21.260   1.885  52.905  1.00  0.00     0.066 A 
HETATM   10  C15 UNL     1      22.102   1.779  50.459  1.00  0.00     0.086 A 
HETATM   11  C1  UNL     1      20.671   0.693  52.788  1.00  0.00     0.093 A 
HETATM   12  C17 UNL     1      20.741  -0.045  51.533  1.00  0.00     0.035 A 
HETATM   13  C16 UNL     1      21.397   0.479  50.504  1.00  0.00    -0.018 A 
BRANCH  11  14
HETATM   14  O1  UNL     1      19.994   0.168  53.873  1.00  0.00    -0.267 OA
BRANCH  14  15
HETATM   15  N1  UNL     1      20.240  -1.155  54.174  1.00  0.00    -0.209 NA
HETATM   16  H1  UNL     1      20.484  -1.208  55.185  1.00  0.00     0.150 HD
HETATM   17  H2  UNL     1      21.043  -1.500  53.630  1.00  0.00     0.150 HD
ENDBRANCH  14  15
ENDBRANCH  11  14
ENDBRANCH   1   7
BRANCH   2  18
HETATM   18  N3  UNL     1      21.344   5.316  49.995  1.00  0.00    -0.382 N 
HETATM   19  H4  UNL     1      20.505   4.689  49.920  1.00  0.00     0.157 HD
HETATM   20  H5  UNL     1      20.959   6.261  50.135  1.00  0.00     0.157 HD
ENDBRANCH   2  18
BRANCH   6  21
HETATM   21  N6  UNL     1      25.339   3.151  51.809  1.00  0.00    -0.238 NA
HETATM   22  C8  UNL     1      26.155   2.302  51.279  1.00  0.00     0.130 C 
BRANCH  22  23
HETATM   23  C9  UNL     1      26.947   1.455  52.187  1.00  0.00    -0.016 A 
HETATM   24  C10 UNL     1      26.792   0.092  52.085  1.00  0.00     0.013 A 
HETATM   25  C11 UNL     1      27.530  -0.711  52.931  1.00  0.00     0.004 A 
HETATM   26  C12 UNL     1      28.389  -0.187  53.844  1.00  0.00     0.036 A 
HETATM   27  C13 UNL     1      28.523   1.184  53.924  1.00  0.00     0.066 A 
HETATM   28  C14 UNL     1      27.808   2.058  53.099  1.00  0.00     0.049 A 
BRANCH  27  29
HETATM   29  O2  UNL     1      29.376   1.849  54.825  1.00  0.00    -0.361 OA
HETATM   30  H11 UNL     1      28.995   2.035  55.747  1.00  0.00     0.217 HD
ENDBRANCH  27  29
ENDBRANCH  22  23
ENDBRANCH   6  21
TORSDOF 7
ENDMDL
