MODEL 1
REMARK VINA RESULT:      -8.7      0.000      0.000
REMARK  6 active torsions:
REMARK  status: ('A' for Active; 'I' for Inactive)
REMARK    1  A    between atoms: C2_2  and  C3_3 
REMARK    2  A    between atoms: C2_2  and  N2_21 
REMARK    3  A    between atoms: C5_5  and  C6_6 
REMARK    4  A    between atoms: C6_6  and  C7_7 
REMARK    5  A    between atoms: C7_7  and  N1_8 
REMARK       I    between atoms: N1_8  and  C8_9 
REMARK    6  A    between atoms: C8_9  and  C9_11 
ROOT
HETATM    1  C7  UNL     1      24.026   4.113  51.065  1.00  0.00     0.091 C 
ENDROOT
BRANCH   1   2
HETATM    2  C6  UNL     1      23.235   3.356  50.254  1.00  0.00     0.018 C 
BRANCH   2   3
HETATM    3  C5  UNL     1      22.613   2.470  51.265  1.00  0.00     0.010 C 
HETATM    4  C3  UNL     1      21.887   1.352  51.206  1.00  0.00    -0.038 C 
HETATM    5  C4  UNL     1      21.717   1.041  49.765  1.00  0.00     0.050 C 
BRANCH   4   6
HETATM    6  C2  UNL     1      21.237   0.416  52.122  1.00  0.00     0.036 C 
HETATM    7  C1  UNL     1      19.983   0.062  51.969  1.00  0.00     0.065 C 
BRANCH   6   8
HETATM    8  N2  UNL     1      21.778  -0.247  53.278  1.00  0.00    -0.275 N 
HETATM    9  C19 UNL     1      21.063  -1.042  54.242  1.00  0.00     0.299 A 
HETATM   10  N3  UNL     1      22.078  -1.471  55.154  1.00  0.00    -0.255 NA
HETATM   11  C20 UNL     1      23.233  -1.030  54.863  1.00  0.00     0.111 A 
HETATM   12  C21 UNL     1      24.556  -1.234  55.546  1.00  0.00     0.092 C 
HETATM   13  N4  UNL     1      23.141  -0.233  53.677  1.00  0.00    -0.284 N 
HETATM   14  H22 UNL     1      23.915   0.255  53.199  1.00  0.00     0.188 HD
ENDBRANCH   6   8
ENDBRANCH   4   6
ENDBRANCH   2   3
ENDBRANCH   1   2
BRANCH   1  15
HETATM   15  N1  UNL     1      25.195   3.250  51.297  1.00  0.00    -0.333 N 
HETATM   16  C8  UNL     1      25.573   2.528  52.460  1.00  0.00     0.255 C 
HETATM   17  O1  UNL     1      24.845   2.564  53.526  1.00  0.00    -0.267 OA
HETATM   18  H9  UNL     1      26.060   2.910  50.750  1.00  0.00     0.168 HD
BRANCH  16  19
HETATM   19  C9  UNL     1      26.692   1.668  52.792  1.00  0.00     0.033 A 
HETATM   20  C10 UNL     1      27.883   2.167  53.255  1.00  0.00     0.018 A 
HETATM   21  C11 UNL     1      28.868   1.193  53.516  1.00  0.00     0.013 A 
HETATM   22  C12 UNL     1      28.746  -0.162  53.350  1.00  0.00    -0.026 A 
HETATM   23  C13 UNL     1      29.825  -0.939  53.662  1.00  0.00     0.012 A 
HETATM   24  C17 UNL     1      27.526  -0.567  52.884  1.00  0.00    -0.025 A 
HETATM   25  C14 UNL     1      29.663  -2.316  53.484  1.00  0.00     0.001 A 
HETATM   26  C15 UNL     1      28.456  -2.860  53.009  1.00  0.00     0.001 A 
HETATM   27  C16 UNL     1      27.461  -1.957  52.738  1.00  0.00     0.012 A 
HETATM   28  C18 UNL     1      26.504   0.290  52.600  1.00  0.00     0.029 A 
ENDBRANCH  16  19
ENDBRANCH   1  15
TORSDOF 6
ENDMDL
MODEL 2
REMARK VINA RESULT:      -8.5      3.393      6.186
REMARK  6 active torsions:
REMARK  status: ('A' for Active; 'I' for Inactive)
REMARK    1  A    between atoms: C2_2  and  C3_3 
REMARK    2  A    between atoms: C2_2  and  N2_21 
REMARK    3  A    between atoms: C5_5  and  C6_6 
REMARK    4  A    between atoms: C6_6  and  C7_7 
REMARK    5  A    between atoms: C7_7  and  N1_8 
REMARK       I    between atoms: N1_8  and  C8_9 
REMARK    6  A    between atoms: C8_9  and  C9_11 
ROOT
HETATM    1  C7  UNL     1      22.132   2.633  51.711  1.00  0.00     0.091 C 
ENDROOT
BRANCH   1   2
HETATM    2  C6  UNL     1      22.088   1.271  51.669  1.00  0.00     0.018 C 
BRANCH   2   3
HETATM    3  C5  UNL     1      23.274   0.956  52.499  1.00  0.00     0.010 C 
HETATM    4  C3  UNL     1      23.581  -0.021  53.356  1.00  0.00    -0.038 C 
HETATM    5  C4  UNL     1      22.392  -0.908  53.419  1.00  0.00     0.050 C 
BRANCH   4   6
HETATM    6  C2  UNL     1      24.697  -0.419  54.210  1.00  0.00     0.036 C 
HETATM    7  C1  UNL     1      24.534  -1.246  55.216  1.00  0.00     0.065 C 
BRANCH   6   8
HETATM    8  N2  UNL     1      26.079  -0.023  54.144  1.00  0.00    -0.275 N 
HETATM    9  C19 UNL     1      26.614   1.304  54.301  1.00  0.00     0.299 A 
HETATM   10  N3  UNL     1      28.026   1.123  54.166  1.00  0.00    -0.255 NA
HETATM   11  C20 UNL     1      28.359  -0.083  53.944  1.00  0.00     0.111 A 
HETATM   12  C21 UNL     1      29.714  -0.700  53.741  1.00  0.00     0.092 C 
HETATM   13  N4  UNL     1      27.178  -0.891  53.911  1.00  0.00    -0.284 N 
HETATM   14  H22 UNL     1      27.131  -1.911  53.751  1.00  0.00     0.188 HD
ENDBRANCH   6   8
ENDBRANCH   4   6
ENDBRANCH   2   3
ENDBRANCH   1   2
BRANCH   1  15
HETATM   15  N1  UNL     1      23.453   2.946  51.145  1.00  0.00    -0.333 N 
HETATM   16  C8  UNL     1      23.868   4.064  50.374  1.00  0.00     0.255 C 
HETATM   17  O1  UNL     1      23.036   5.005  50.075  1.00  0.00    -0.267 OA
HETATM   18  H9  UNL     1      24.436   2.503  51.113  1.00  0.00     0.168 HD
BRANCH  16  19
HETATM   19  C9  UNL     1      25.125   4.459  49.769  1.00  0.00     0.033 A 
HETATM   20  C10 UNL     1      26.231   3.649  49.790  1.00  0.00     0.018 A 
HETATM   21  C11 UNL     1      27.372   4.193  49.168  1.00  0.00     0.013 A 
HETATM   22  C12 UNL     1      27.471   5.421  48.566  1.00  0.00    -0.026 A 
HETATM   23  C13 UNL     1      28.674   5.763  48.017  1.00  0.00     0.012 A 
HETATM   24  C17 UNL     1      26.320   6.159  48.594  1.00  0.00    -0.025 A 
HETATM   25  C14 UNL     1      28.736   7.021  47.410  1.00  0.00     0.001 A 
HETATM   26  C15 UNL     1      27.621   7.877  47.371  1.00  0.00     0.001 A 
HETATM   27  C16 UNL     1      26.482   7.397  47.964  1.00  0.00     0.012 A 
HETATM   28  C18 UNL     1      25.161   5.728  49.169  1.00  0.00     0.029 A 
ENDBRANCH  16  19
ENDBRANCH   1  15
TORSDOF 6
ENDMDL
MODEL 3
REMARK VINA RESULT:      -8.5      3.975      6.269
REMARK  6 active torsions:
REMARK  status: ('A' for Active; 'I' for Inactive)
REMARK    1  A    between atoms: C2_2  and  C3_3 
REMARK    2  A    between atoms: C2_2  and  N2_21 
REMARK    3  A    between atoms: C5_5  and  C6_6 
REMARK    4  A    between atoms: C6_6  and  C7_7 
REMARK    5  A    between atoms: C7_7  and  N1_8 
REMARK       I    between atoms: N1_8  and  C8_9 
REMARK    6  A    between atoms: C8_9  and  C9_11 
ROOT
HETATM    1  C7  UNL     1      22.659   3.055  50.340  1.00  0.00     0.091 C 
ENDROOT
BRANCH   1   2
HETATM    2  C6  UNL     1      22.732   3.279  51.683  1.00  0.00     0.018 C 
BRANCH   2   3
HETATM    3  C5  UNL     1      23.241   1.961  52.130  1.00  0.00     0.010 C 
HETATM    4  C3  UNL     1      24.247   1.566  52.913  1.00  0.00    -0.038 C 
HETATM    5  C4  UNL     1      24.943   2.802  53.352  1.00  0.00     0.050 C 
BRANCH   4   6
HETATM    6  C2  UNL     1      24.827   0.320  53.410  1.00  0.00     0.036 C 
HETATM    7  C1  UNL     1      24.109  -0.772  53.533  1.00  0.00     0.065 C 
BRANCH   6   8
HETATM    8  N2  UNL     1      26.174   0.051  53.837  1.00  0.00    -0.275 N 
HETATM    9  C19 UNL     1      26.717   0.208  55.161  1.00  0.00     0.299 A 
HETATM   10  N3  UNL     1      28.076  -0.218  55.027  1.00  0.00    -0.255 NA
HETATM   11  C20 UNL     1      28.378  -0.569  53.843  1.00  0.00     0.111 A 
HETATM   12  C21 UNL     1      29.675  -1.072  53.276  1.00  0.00     0.092 C 
HETATM   13  N4  UNL     1      27.223  -0.429  53.009  1.00  0.00    -0.284 N 
HETATM   14  H22 UNL     1      27.161  -0.639  51.999  1.00  0.00     0.188 HD
ENDBRANCH   6   8
ENDBRANCH   4   6
ENDBRANCH   2   3
ENDBRANCH   1   2
BRANCH   1  15
HETATM   15  N1  UNL     1      23.519   4.107  49.776  1.00  0.00    -0.333 N 
HETATM   16  C8  UNL     1      24.925   4.120  49.576  1.00  0.00     0.255 C 
HETATM   17  O1  UNL     1      25.648   3.101  49.903  1.00  0.00    -0.267 OA
HETATM   18  H9  UNL     1      23.408   5.101  49.373  1.00  0.00     0.168 HD
BRANCH  16  19
HETATM   19  C9  UNL     1      25.857   5.094  49.044  1.00  0.00     0.033 A 
HETATM   20  C10 UNL     1      25.468   6.362  48.695  1.00  0.00     0.018 A 
HETATM   21  C11 UNL     1      26.498   7.175  48.183  1.00  0.00     0.013 A 
HETATM   22  C12 UNL     1      27.810   6.822  48.005  1.00  0.00    -0.026 A 
HETATM   23  C13 UNL     1      28.657   7.762  47.491  1.00  0.00     0.012 A 
HETATM   24  C17 UNL     1      28.106   5.540  48.379  1.00  0.00    -0.025 A 
HETATM   25  C14 UNL     1      29.987   7.367  47.327  1.00  0.00     0.001 A 
HETATM   26  C15 UNL     1      30.420   6.075  47.673  1.00  0.00     0.001 A 
HETATM   27  C16 UNL     1      29.457   5.239  48.178  1.00  0.00     0.012 A 
HETATM   28  C18 UNL     1      27.186   4.671  48.887  1.00  0.00     0.029 A 
ENDBRANCH  16  19
ENDBRANCH   1  15
TORSDOF 6
ENDMDL
MODEL 4
REMARK VINA RESULT:      -8.4      5.014      6.696
REMARK  6 active torsions:
REMARK  status: ('A' for Active; 'I' for Inactive)
REMARK    1  A    between atoms: C2_2  and  C3_3 
REMARK    2  A    between atoms: C2_2  and  N2_21 
REMARK    3  A    between atoms: C5_5  and  C6_6 
REMARK    4  A    between atoms: C6_6  and  C7_7 
REMARK    5  A    between atoms: C7_7  and  N1_8 
REMARK       I    between atoms: N1_8  and  C8_9 
REMARK    6  A    between atoms: C8_9  and  C9_11 
ROOT
HETATM    1  C7  UNL     1      24.838   4.394  50.787  1.00  0.00     0.091 C 
ENDROOT
BRANCH   1   2
HETATM    2  C6  UNL     1      24.641   3.180  50.199  1.00  0.00     0.018 C 
BRANCH   2   3
HETATM    3  C5  UNL     1      25.108   2.294  51.290  1.00  0.00     0.010 C 
HETATM    4  C3  UNL     1      24.547   1.314  52.002  1.00  0.00    -0.038 C 
HETATM    5  C4  UNL     1      23.149   1.196  51.517  1.00  0.00     0.050 C 
BRANCH   4   6
HETATM    6  C2  UNL     1      24.909   0.394  53.077  1.00  0.00     0.036 C 
HETATM    7  C1  UNL     1      24.007  -0.331  53.697  1.00  0.00     0.065 C 
BRANCH   6   8
HETATM    8  N2  UNL     1      26.204   0.117  53.639  1.00  0.00    -0.275 N 
HETATM    9  C19 UNL     1      26.566   0.104  55.032  1.00  0.00     0.299 A 
HETATM   10  N3  UNL     1      27.953  -0.247  55.023  1.00  0.00    -0.255 NA
HETATM   11  C20 UNL     1      28.421  -0.414  53.854  1.00  0.00     0.111 A 
HETATM   12  C21 UNL     1      29.806  -0.782  53.400  1.00  0.00     0.092 C 
HETATM   13  N4  UNL     1      27.375  -0.199  52.900  1.00  0.00    -0.284 N 
HETATM   14  H22 UNL     1      27.453  -0.265  51.872  1.00  0.00     0.188 HD
ENDBRANCH   6   8
ENDBRANCH   4   6
ENDBRANCH   2   3
ENDBRANCH   1   2
BRANCH   1  15
HETATM   15  N1  UNL     1      26.080   4.875  50.161  1.00  0.00    -0.333 N 
HETATM   16  C8  UNL     1      26.259   5.737  49.046  1.00  0.00     0.255 C 
HETATM   17  O1  UNL     1      25.241   6.229  48.422  1.00  0.00    -0.267 OA
HETATM   18  H9  UNL     1      27.143   4.760  50.299  1.00  0.00     0.168 HD
BRANCH  16  19
HETATM   19  C9  UNL     1      27.420   6.258  48.353  1.00  0.00     0.033 A 
HETATM   20  C10 UNL     1      27.380   7.432  47.644  1.00  0.00     0.018 A 
HETATM   21  C11 UNL     1      28.594   7.785  47.021  1.00  0.00     0.013 A 
HETATM   22  C12 UNL     1      29.770   7.083  47.059  1.00  0.00    -0.026 A 
HETATM   23  C13 UNL     1      30.840   7.600  46.385  1.00  0.00     0.012 A 
HETATM   24  C17 UNL     1      29.716   5.927  47.788  1.00  0.00    -0.025 A 
HETATM   25  C14 UNL     1      32.022   6.858  46.447  1.00  0.00     0.001 A 
HETATM   26  C15 UNL     1      32.098   5.650  47.165  1.00  0.00     0.001 A 
HETATM   27  C16 UNL     1      30.943   5.257  47.791  1.00  0.00     0.012 A 
HETATM   28  C18 UNL     1      28.594   5.492  48.430  1.00  0.00     0.029 A 
ENDBRANCH  16  19
ENDBRANCH   1  15
TORSDOF 6
ENDMDL
MODEL 5
REMARK VINA RESULT:      -8.3      2.623      5.929
REMARK  6 active torsions:
REMARK  status: ('A' for Active; 'I' for Inactive)
REMARK    1  A    between atoms: C2_2  and  C3_3 
REMARK    2  A    between atoms: C2_2  and  N2_21 
REMARK    3  A    between atoms: C5_5  and  C6_6 
REMARK    4  A    between atoms: C6_6  and  C7_7 
REMARK    5  A    between atoms: C7_7  and  N1_8 
REMARK       I    between atoms: N1_8  and  C8_9 
REMARK    6  A    between atoms: C8_9  and  C9_11 
ROOT
HETATM    1  C7  UNL     1      21.224   0.373  51.021  1.00  0.00     0.091 C 
ENDROOT
BRANCH   1   2
HETATM    2  C6  UNL     1      21.038   0.666  52.340  1.00  0.00     0.018 C 
BRANCH   2   3
HETATM    3  C5  UNL     1      22.357   0.258  52.876  1.00  0.00     0.010 C 
HETATM    4  C3  UNL     1      22.761  -0.367  53.985  1.00  0.00    -0.038 C 
HETATM    5  C4  UNL     1      21.537  -0.640  54.778  1.00  0.00     0.050 C 
BRANCH   4   6
HETATM    6  C2  UNL     1      24.010  -0.811  54.600  1.00  0.00     0.036 C 
HETATM    7  C1  UNL     1      24.022  -1.470  55.734  1.00  0.00     0.065 C 
BRANCH   6   8
HETATM    8  N2  UNL     1      25.362  -0.631  54.143  1.00  0.00    -0.275 N 
HETATM    9  C19 UNL     1      25.871  -0.851  52.814  1.00  0.00     0.299 A 
HETATM   10  N3  UNL     1      27.254  -0.502  52.914  1.00  0.00    -0.255 NA
HETATM   11  C20 UNL     1      27.598  -0.140  54.083  1.00  0.00     0.111 A 
HETATM   12  C21 UNL     1      28.932   0.301  54.615  1.00  0.00     0.092 C 
HETATM   13  N4  UNL     1      26.452  -0.192  54.940  1.00  0.00    -0.284 N 
HETATM   14  H22 UNL     1      26.421   0.045  55.945  1.00  0.00     0.188 HD
ENDBRANCH   6   8
ENDBRANCH   4   6
ENDBRANCH   2   3
ENDBRANCH   1   2
BRANCH   1  15
HETATM   15  N1  UNL     1      22.264   1.327  50.607  1.00  0.00    -0.333 N 
HETATM   16  C8  UNL     1      22.138   2.670  50.161  1.00  0.00     0.255 C 
HETATM   17  O1  UNL     1      20.978   3.231  50.074  1.00  0.00    -0.267 OA
HETATM   18  H9  UNL     1      23.338   1.347  50.504  1.00  0.00     0.168 HD
BRANCH  16  19
HETATM   19  C9  UNL     1      23.083   3.679  49.727  1.00  0.00     0.033 A 
HETATM   20  C10 UNL     1      22.685   4.934  49.342  1.00  0.00     0.018 A 
HETATM   21  C11 UNL     1      23.731   5.786  48.937  1.00  0.00     0.013 A 
HETATM   22  C12 UNL     1      25.067   5.481  48.892  1.00  0.00    -0.026 A 
HETATM   23  C13 UNL     1      25.926   6.454  48.467  1.00  0.00     0.012 A 
HETATM   24  C17 UNL     1      25.370   4.210  49.292  1.00  0.00    -0.025 A 
HETATM   25  C14 UNL     1      27.279   6.109  48.437  1.00  0.00     0.001 A 
HETATM   26  C15 UNL     1      27.722   4.831  48.824  1.00  0.00     0.001 A 
HETATM   27  C16 UNL     1      26.744   3.959  49.228  1.00  0.00     0.012 A 
HETATM   28  C18 UNL     1      24.436   3.305  49.703  1.00  0.00     0.029 A 
ENDBRANCH  16  19
ENDBRANCH   1  15
TORSDOF 6
ENDMDL
MODEL 6
REMARK VINA RESULT:      -8.2      5.219      8.966
REMARK  6 active torsions:
REMARK  status: ('A' for Active; 'I' for Inactive)
REMARK    1  A    between atoms: C2_2  and  C3_3 
REMARK    2  A    between atoms: C2_2  and  N2_21 
REMARK    3  A    between atoms: C5_5  and  C6_6 
REMARK    4  A    between atoms: C6_6  and  C7_7 
REMARK    5  A    between atoms: C7_7  and  N1_8 
REMARK       I    between atoms: N1_8  and  C8_9 
REMARK    6  A    between atoms: C8_9  and  C9_11 
ROOT
HETATM    1  C7  UNL     1      26.851   3.920  49.286  1.00  0.00     0.091 C 
ENDROOT
BRANCH   1   2
HETATM    2  C6  UNL     1      26.140   5.069  49.107  1.00  0.00     0.018 C 
BRANCH   2   3
HETATM    3  C5  UNL     1      27.218   5.956  48.610  1.00  0.00     0.010 C 
HETATM    4  C3  UNL     1      27.243   7.124  47.965  1.00  0.00    -0.038 C 
HETATM    5  C4  UNL     1      25.826   7.502  47.734  1.00  0.00     0.050 C 
BRANCH   4   6
HETATM    6  C2  UNL     1      28.229   8.065  47.438  1.00  0.00     0.036 C 
HETATM    7  C1  UNL     1      28.395   8.239  46.148  1.00  0.00     0.065 C 
BRANCH   6   8
HETATM    8  N2  UNL     1      29.145   8.915  48.152  1.00  0.00    -0.275 N 
HETATM    9  C19 UNL     1      30.181   8.509  49.064  1.00  0.00     0.299 A 
HETATM   10  N3  UNL     1      30.793   9.739  49.459  1.00  0.00    -0.255 NA
HETATM   11  C20 UNL     1      30.256  10.761  48.927  1.00  0.00     0.111 A 
HETATM   12  C21 UNL     1      30.583  12.221  49.069  1.00  0.00     0.092 C 
HETATM   13  N4  UNL     1      29.188  10.332  48.075  1.00  0.00    -0.284 N 
HETATM   14  H22 UNL     1      28.569  10.935  47.509  1.00  0.00     0.188 HD
ENDBRANCH   6   8
ENDBRANCH   4   6
ENDBRANCH   2   3
ENDBRANCH   1   2
BRANCH   1  15
HETATM   15  N1  UNL     1      25.932   3.073  50.063  1.00  0.00    -0.333 N 
HETATM   16  C8  UNL     1      26.176   2.307  51.234  1.00  0.00     0.255 C 
HETATM   17  O1  UNL     1      27.347   2.289  51.780  1.00  0.00    -0.267 OA
HETATM   18  H9  UNL     1      24.898   2.770  50.027  1.00  0.00     0.168 HD
BRANCH  16  19
HETATM   19  C9  UNL     1      25.357   1.445  52.062  1.00  0.00     0.033 A 
HETATM   20  C10 UNL     1      25.876   0.362  52.725  1.00  0.00     0.018 A 
HETATM   21  C11 UNL     1      24.938  -0.376  53.474  1.00  0.00     0.013 A 
HETATM   22  C12 UNL     1      23.596  -0.118  53.591  1.00  0.00    -0.026 A 
HETATM   23  C13 UNL     1      22.854  -0.959  54.370  1.00  0.00     0.012 A 
HETATM   24  C17 UNL     1      23.168   0.979  52.896  1.00  0.00    -0.025 A 
HETATM   25  C14 UNL     1      21.492  -0.664  54.468  1.00  0.00     0.001 A 
HETATM   26  C15 UNL     1      20.927   0.437  53.801  1.00  0.00     0.001 A 
HETATM   27  C16 UNL     1      21.796   1.192  53.055  1.00  0.00     0.012 A 
HETATM   28  C18 UNL     1      23.992   1.762  52.141  1.00  0.00     0.029 A 
ENDBRANCH  16  19
ENDBRANCH   1  15
TORSDOF 6
ENDMDL
MODEL 7
REMARK VINA RESULT:      -8.1      4.382      7.652
REMARK  6 active torsions:
REMARK  status: ('A' for Active; 'I' for Inactive)
REMARK    1  A    between atoms: C2_2  and  C3_3 
REMARK    2  A    between atoms: C2_2  and  N2_21 
REMARK    3  A    between atoms: C5_5  and  C6_6 
REMARK    4  A    between atoms: C6_6  and  C7_7 
REMARK    5  A    between atoms: C7_7  and  N1_8 
REMARK       I    between atoms: N1_8  and  C8_9 
REMARK    6  A    between atoms: C8_9  and  C9_11 
ROOT
HETATM    1  C7  UNL     1      24.225   5.447  51.049  1.00  0.00     0.091 C 
ENDROOT
BRANCH   1   2
HETATM    2  C6  UNL     1      24.263   5.679  49.706  1.00  0.00     0.018 C 
BRANCH   2   3
HETATM    3  C5  UNL     1      25.725   5.592  49.479  1.00  0.00     0.010 C 
HETATM    4  C3  UNL     1      26.591   6.254  48.708  1.00  0.00    -0.038 C 
HETATM    5  C4  UNL     1      25.795   7.252  47.950  1.00  0.00     0.050 C 
BRANCH   4   6
HETATM    6  C2  UNL     1      28.022   6.251  48.413  1.00  0.00     0.036 C 
HETATM    7  C1  UNL     1      28.692   5.132  48.268  1.00  0.00     0.065 C 
BRANCH   6   8
HETATM    8  N2  UNL     1      28.917   7.364  48.243  1.00  0.00    -0.275 N 
HETATM    9  C19 UNL     1      29.739   7.655  47.098  1.00  0.00     0.299 A 
HETATM   10  N3  UNL     1      30.400   8.874  47.451  1.00  0.00    -0.255 NA
HETATM   11  C20 UNL     1      30.091   9.296  48.608  1.00  0.00     0.111 A 
HETATM   12  C21 UNL     1      30.548  10.516  49.357  1.00  0.00     0.092 C 
HETATM   13  N4  UNL     1      29.147   8.393  49.195  1.00  0.00    -0.284 N 
HETATM   14  H22 UNL     1      28.713   8.473  50.128  1.00  0.00     0.188 HD
ENDBRANCH   6   8
ENDBRANCH   4   6
ENDBRANCH   2   3
ENDBRANCH   1   2
BRANCH   1  15
HETATM   15  N1  UNL     1      25.064   4.249  51.209  1.00  0.00    -0.333 N 
HETATM   16  C8  UNL     1      24.911   3.146  52.091  1.00  0.00     0.255 C 
HETATM   17  O1  UNL     1      23.916   3.090  52.912  1.00  0.00    -0.267 OA
HETATM   18  H9  UNL     1      25.965   3.840  50.781  1.00  0.00     0.168 HD
BRANCH  16  19
HETATM   19  C9  UNL     1      25.674   1.937  52.331  1.00  0.00     0.033 A 
HETATM   20  C10 UNL     1      25.126   0.688  52.187  1.00  0.00     0.018 A 
HETATM   21  C11 UNL     1      26.002  -0.377  52.473  1.00  0.00     0.013 A 
HETATM   22  C12 UNL     1      27.310  -0.278  52.873  1.00  0.00    -0.026 A 
HETATM   23  C13 UNL     1      27.993  -1.439  53.101  1.00  0.00     0.012 A 
HETATM   24  C17 UNL     1      27.770   1.004  52.990  1.00  0.00    -0.025 A 
HETATM   25  C14 UNL     1      29.324  -1.299  53.504  1.00  0.00     0.001 A 
HETATM   26  C15 UNL     1      29.917  -0.034  53.662  1.00  0.00     0.001 A 
HETATM   27  C16 UNL     1      29.108   1.040  53.397  1.00  0.00     0.012 A 
HETATM   28  C18 UNL     1      27.007   2.105  52.737  1.00  0.00     0.029 A 
ENDBRANCH  16  19
ENDBRANCH   1  15
TORSDOF 6
ENDMDL
MODEL 8
REMARK VINA RESULT:      -8.1      4.709      8.481
REMARK  6 active torsions:
REMARK  status: ('A' for Active; 'I' for Inactive)
REMARK    1  A    between atoms: C2_2  and  C3_3 
REMARK    2  A    between atoms: C2_2  and  N2_21 
REMARK    3  A    between atoms: C5_5  and  C6_6 
REMARK    4  A    between atoms: C6_6  and  C7_7 
REMARK    5  A    between atoms: C7_7  and  N1_8 
REMARK       I    between atoms: N1_8  and  C8_9 
REMARK    6  A    between atoms: C8_9  and  C9_11 
ROOT
HETATM    1  C7  UNL     1      26.714   4.169  49.304  1.00  0.00     0.091 C 
ENDROOT
BRANCH   1   2
HETATM    2  C6  UNL     1      25.830   5.139  48.934  1.00  0.00     0.018 C 
BRANCH   2   3
HETATM    3  C5  UNL     1      26.759   6.284  48.793  1.00  0.00     0.010 C 
HETATM    4  C3  UNL     1      26.818   7.509  49.320  1.00  0.00    -0.038 C 
HETATM    5  C4  UNL     1      25.632   7.639  50.204  1.00  0.00     0.050 C 
BRANCH   4   6
HETATM    6  C2  UNL     1      27.671   8.693  49.251  1.00  0.00     0.036 C 
HETATM    7  C1  UNL     1      27.172   9.905  49.294  1.00  0.00     0.065 C 
BRANCH   6   8
HETATM    8  N2  UNL     1      29.102   8.775  49.127  1.00  0.00    -0.275 N 
HETATM    9  C19 UNL     1      29.897   9.964  48.963  1.00  0.00     0.299 A 
HETATM   10  N3  UNL     1      31.240   9.475  48.916  1.00  0.00    -0.255 NA
HETATM   11  C20 UNL     1      31.318   8.211  49.010  1.00  0.00     0.111 A 
HETATM   12  C21 UNL     1      32.517   7.304  49.004  1.00  0.00     0.092 C 
HETATM   13  N4  UNL     1      29.998   7.673  49.147  1.00  0.00    -0.284 N 
HETATM   14  H22 UNL     1      29.743   6.677  49.244  1.00  0.00     0.188 HD
ENDBRANCH   6   8
ENDBRANCH   4   6
ENDBRANCH   2   3
ENDBRANCH   1   2
BRANCH   1  15
HETATM   15  N1  UNL     1      25.890   3.248  50.102  1.00  0.00    -0.333 N 
HETATM   16  C8  UNL     1      26.238   2.473  51.240  1.00  0.00     0.255 C 
HETATM   17  O1  UNL     1      27.433   2.518  51.728  1.00  0.00    -0.267 OA
HETATM   18  H9  UNL     1      24.876   2.881  50.108  1.00  0.00     0.168 HD
BRANCH  16  19
HETATM   19  C9  UNL     1      25.516   1.542  52.084  1.00  0.00     0.033 A 
HETATM   20  C10 UNL     1      26.135   0.484  52.699  1.00  0.00     0.018 A 
HETATM   21  C11 UNL     1      25.283  -0.330  53.472  1.00  0.00     0.013 A 
HETATM   22  C12 UNL     1      23.935  -0.164  53.654  1.00  0.00    -0.026 A 
HETATM   23  C13 UNL     1      23.286  -1.068  54.446  1.00  0.00     0.012 A 
HETATM   24  C17 UNL     1      23.404   0.914  53.003  1.00  0.00    -0.025 A 
HETATM   25  C14 UNL     1      21.913  -0.867  54.612  1.00  0.00     0.001 A 
HETATM   26  C15 UNL     1      21.247   0.207  53.995  1.00  0.00     0.001 A 
HETATM   27  C16 UNL     1      22.029   1.032  53.229  1.00  0.00     0.012 A 
HETATM   28  C18 UNL     1      24.138   1.765  52.231  1.00  0.00     0.029 A 
ENDBRANCH  16  19
ENDBRANCH   1  15
TORSDOF 6
ENDMDL
MODEL 9
REMARK VINA RESULT:      -8.1      3.720      5.341
REMARK  6 active torsions:
REMARK  status: ('A' for Active; 'I' for Inactive)
REMARK    1  A    between atoms: C2_2  and  C3_3 
REMARK    2  A    between atoms: C2_2  and  N2_21 
REMARK    3  A    between atoms: C5_5  and  C6_6 
REMARK    4  A    between atoms: C6_6  and  C7_7 
REMARK    5  A    between atoms: C7_7  and  N1_8 
REMARK       I    between atoms: N1_8  and  C8_9 
REMARK    6  A    between atoms: C8_9  and  C9_11 
ROOT
HETATM    1  C7  UNL     1      20.825   0.754  53.169  1.00  0.00     0.091 C 
ENDROOT
BRANCH   1   2
HETATM    2  C6  UNL     1      20.420  -0.541  53.302  1.00  0.00     0.018 C 
BRANCH   2   3
HETATM    3  C5  UNL     1      19.001  -0.403  52.898  1.00  0.00     0.010 C 
HETATM    4  C3  UNL     1      17.913  -1.164  53.036  1.00  0.00    -0.038 C 
HETATM    5  C4  UNL     1      18.351  -2.393  53.743  1.00  0.00     0.050 C 
BRANCH   4   6
HETATM    6  C2  UNL     1      16.495  -1.125  52.683  1.00  0.00     0.036 C 
HETATM    7  C1  UNL     1      15.870  -2.183  52.223  1.00  0.00     0.065 C 
BRANCH   6   8
HETATM    8  N2  UNL     1      15.573  -0.023  52.750  1.00  0.00    -0.275 N 
HETATM    9  C19 UNL     1      15.669   1.239  52.064  1.00  0.00     0.299 A 
HETATM   10  N3  UNL     1      14.490   1.941  52.468  1.00  0.00    -0.255 NA
HETATM   11  C20 UNL     1      13.766   1.281  53.277  1.00  0.00     0.111 A 
HETATM   12  C21 UNL     1      12.464   1.640  53.938  1.00  0.00     0.092 C 
HETATM   13  N4  UNL     1      14.379   0.010  53.519  1.00  0.00    -0.284 N 
HETATM   14  H22 UNL     1      14.024  -0.741  54.132  1.00  0.00     0.188 HD
ENDBRANCH   6   8
ENDBRANCH   4   6
ENDBRANCH   2   3
ENDBRANCH   1   2
BRANCH   1  15
HETATM   15  N1  UNL     1      22.244   0.704  53.552  1.00  0.00    -0.333 N 
HETATM   16  C8  UNL     1      23.405   0.920  52.762  1.00  0.00     0.255 C 
HETATM   17  O1  UNL     1      23.306   1.214  51.508  1.00  0.00    -0.267 OA
HETATM   18  H9  UNL     1      22.829   0.511  54.437  1.00  0.00     0.168 HD
BRANCH  16  19
HETATM   19  C9  UNL     1      24.828   0.888  53.034  1.00  0.00     0.033 A 
HETATM   20  C10 UNL     1      25.520   2.003  53.432  1.00  0.00     0.018 A 
HETATM   21  C11 UNL     1      26.898   1.798  53.641  1.00  0.00     0.013 A 
HETATM   22  C12 UNL     1      27.586   0.623  53.485  1.00  0.00    -0.026 A 
HETATM   23  C13 UNL     1      28.928   0.634  53.740  1.00  0.00     0.012 A 
HETATM   24  C17 UNL     1      26.816  -0.434  53.086  1.00  0.00    -0.025 A 
HETATM   25  C14 UNL     1      29.595  -0.583  53.572  1.00  0.00     0.001 A 
HETATM   26  C15 UNL     1      28.916  -1.745  53.165  1.00  0.00     0.001 A 
HETATM   27  C16 UNL     1      27.570  -1.603  52.946  1.00  0.00     0.012 A 
HETATM   28  C18 UNL     1      25.474  -0.346  52.856  1.00  0.00     0.029 A 
ENDBRANCH  16  19
ENDBRANCH   1  15
TORSDOF 6
ENDMDL
