MODEL 1
REMARK VINA RESULT:      -7.9      0.000      0.000
REMARK  6 active torsions:
REMARK  status: ('A' for Active; 'I' for Inactive)
REMARK    1  A    between atoms: O1_2  and  C2_3 
REMARK    2  A    between atoms: P1_8  and  N1_9 
REMARK    3  A    between atoms: N1_9  and  C7_10 
REMARK    4  A    between atoms: C10_14  and  N3_15 
REMARK    5  A    between atoms: N3_15  and  C11_16 
REMARK    6  A    between atoms: C16_21  and  O2_22 
ROOT
HETATM    1  C7  UNL     1      23.930  -0.615  54.255  1.00  0.00     0.147 A 
HETATM    2  C8  UNL     1      22.858  -1.197  54.885  1.00  0.00     0.071 A 
HETATM    3  C9  UNL     1      21.590  -0.735  54.652  1.00  0.00     0.140 A 
HETATM    4  N2  UNL     1      21.468   0.284  53.799  1.00  0.00    -0.075 NA
HETATM    5  C10 UNL     1      22.463   0.899  53.149  1.00  0.00     0.728 A 
HETATM    6  N4  UNL     1      23.680   0.400  53.421  1.00  0.00    -0.045 NA
ENDROOT
BRANCH   1   7
HETATM    7  N1  UNL     1      25.265  -1.054  54.460  1.00  0.00    -0.343 N 
HETATM    8  H9  UNL     1      25.531  -1.548  55.313  1.00  0.00     0.166 HD
BRANCH   7   9
HETATM    9  P1  UNL     1      26.537  -0.777  53.268  1.00  0.00     0.046 P 
HETATM   10  C2  UNL     1      27.894   0.283  53.891  1.00  0.00     0.092 A 
HETATM   11  C3  UNL     1      29.190   0.021  53.950  1.00  0.00     0.039 A 
HETATM   12  C4  UNL     1      29.620  -1.282  53.459  1.00  0.00    -0.001 A 
HETATM   13  C5  UNL     1      28.806  -2.176  52.977  1.00  0.00    -0.020 A 
HETATM   14  C6  UNL     1      27.362  -2.350  52.716  1.00  0.00     0.090 A 
BRANCH  10  15
HETATM   15  O1  UNL     1      27.448   1.501  54.345  1.00  0.00    -0.354 OA
HETATM   16  C1  UNL     1      26.479   2.323  53.781  1.00  0.00     0.210 C 
ENDBRANCH  10  15
ENDBRANCH   7   9
ENDBRANCH   1   7
BRANCH   5  17
HETATM   17  N3  UNL     1      22.340   1.983  52.242  1.00  0.00    -0.185 N 
HETATM   18  H12 UNL     1      22.244   2.942  52.681  1.00  0.00     0.184 HD
BRANCH  17  19
HETATM   19  C11 UNL     1      22.328   1.957  50.845  1.00  0.00     0.082 A 
HETATM   20  C12 UNL     1      21.517   1.156  50.072  1.00  0.00     0.033 A 
HETATM   21  C13 UNL     1      21.476   1.103  48.695  1.00  0.00     0.002 A 
HETATM   22  C14 UNL     1      22.329   1.931  47.998  1.00  0.00     0.003 A 
HETATM   23  C15 UNL     1      23.164   2.756  48.717  1.00  0.00     0.039 A 
HETATM   24  C16 UNL     1      23.176   2.781  50.094  1.00  0.00     0.095 A 
BRANCH  24  25
HETATM   25  O2  UNL     1      24.032   3.626  50.785  1.00  0.00    -0.354 OA
HETATM   26  C17 UNL     1      25.394   3.654  50.410  1.00  0.00     0.210 C 
ENDBRANCH  24  25
ENDBRANCH  17  19
ENDBRANCH   5  17
TORSDOF 6
ENDMDL
MODEL 2
REMARK VINA RESULT:      -7.8      2.671      6.656
REMARK  6 active torsions:
REMARK  status: ('A' for Active; 'I' for Inactive)
REMARK    1  A    between atoms: O1_2  and  C2_3 
REMARK    2  A    between atoms: P1_8  and  N1_9 
REMARK    3  A    between atoms: N1_9  and  C7_10 
REMARK    4  A    between atoms: C10_14  and  N3_15 
REMARK    5  A    between atoms: N3_15  and  C11_16 
REMARK    6  A    between atoms: C16_21  and  O2_22 
ROOT
HETATM    1  C7  UNL     1      24.411   3.028  51.879  1.00  0.00     0.147 A 
HETATM    2  C8  UNL     1      23.204   2.477  51.524  1.00  0.00     0.071 A 
HETATM    3  C9  UNL     1      22.841   1.249  52.010  1.00  0.00     0.140 A 
HETATM    4  N2  UNL     1      23.705   0.644  52.825  1.00  0.00    -0.075 NA
HETATM    5  C10 UNL     1      24.895   1.118  53.214  1.00  0.00     0.728 A 
HETATM    6  N4  UNL     1      25.193   2.323  52.703  1.00  0.00    -0.045 NA
ENDROOT
BRANCH   1   7
HETATM    7  N1  UNL     1      24.838   4.296  51.405  1.00  0.00    -0.343 N 
HETATM    8  H9  UNL     1      24.933   5.091  52.040  1.00  0.00     0.166 HD
BRANCH   7   9
HETATM    9  P1  UNL     1      25.231   4.581  49.708  1.00  0.00     0.046 P 
HETATM   10  C2  UNL     1      25.389   6.357  49.290  1.00  0.00     0.092 A 
HETATM   11  C3  UNL     1      26.415   6.992  48.747  1.00  0.00     0.039 A 
HETATM   12  C4  UNL     1      27.591   6.192  48.429  1.00  0.00    -0.001 A 
HETATM   13  C5  UNL     1      27.674   4.912  48.651  1.00  0.00    -0.020 A 
HETATM   14  C6  UNL     1      26.850   3.816  49.204  1.00  0.00     0.090 A 
BRANCH  10  15
HETATM   15  O1  UNL     1      24.262   7.076  49.604  1.00  0.00    -0.354 OA
HETATM   16  C1  UNL     1      24.036   7.870  50.722  1.00  0.00     0.210 C 
ENDBRANCH  10  15
ENDBRANCH   7   9
ENDBRANCH   1   7
BRANCH   5  17
HETATM   17  N3  UNL     1      25.820   0.478  54.079  1.00  0.00    -0.185 N 
HETATM   18  H12 UNL     1      25.662   0.629  55.115  1.00  0.00     0.184 HD
BRANCH  17  19
HETATM   19  C11 UNL     1      26.914  -0.328  53.749  1.00  0.00     0.082 A 
HETATM   20  C12 UNL     1      26.838  -1.562  53.143  1.00  0.00     0.033 A 
HETATM   21  C13 UNL     1      27.892  -2.383  52.803  1.00  0.00     0.002 A 
HETATM   22  C14 UNL     1      29.165  -1.942  53.091  1.00  0.00     0.003 A 
HETATM   23  C15 UNL     1      29.304  -0.714  53.698  1.00  0.00     0.039 A 
HETATM   24  C16 UNL     1      28.226   0.079  54.023  1.00  0.00     0.095 A 
BRANCH  24  25
HETATM   25  O2  UNL     1      28.405   1.311  54.635  1.00  0.00    -0.354 OA
HETATM   26  C17 UNL     1      28.883   2.386  53.852  1.00  0.00     0.210 C 
ENDBRANCH  24  25
ENDBRANCH  17  19
ENDBRANCH   5  17
TORSDOF 6
ENDMDL
MODEL 3
REMARK VINA RESULT:      -7.6      1.949      2.548
REMARK  6 active torsions:
REMARK  status: ('A' for Active; 'I' for Inactive)
REMARK    1  A    between atoms: O1_2  and  C2_3 
REMARK    2  A    between atoms: P1_8  and  N1_9 
REMARK    3  A    between atoms: N1_9  and  C7_10 
REMARK    4  A    between atoms: C10_14  and  N3_15 
REMARK    5  A    between atoms: N3_15  and  C11_16 
REMARK    6  A    between atoms: C16_21  and  O2_22 
ROOT
HETATM    1  C7  UNL     1      24.226   0.234  53.558  1.00  0.00     0.147 A 
HETATM    2  C8  UNL     1      22.958  -0.273  53.697  1.00  0.00     0.071 A 
HETATM    3  C9  UNL     1      21.877   0.458  53.282  1.00  0.00     0.140 A 
HETATM    4  N2  UNL     1      22.127   1.655  52.749  1.00  0.00    -0.075 NA
HETATM    5  C10 UNL     1      23.333   2.213  52.582  1.00  0.00     0.728 A 
HETATM    6  N4  UNL     1      24.350   1.447  53.009  1.00  0.00    -0.045 NA
ENDROOT
BRANCH   1   7
HETATM    7  N1  UNL     1      25.382  -0.479  53.971  1.00  0.00    -0.343 N 
HETATM    8  H9  UNL     1      25.412  -0.955  54.875  1.00  0.00     0.166 HD
BRANCH   7   9
HETATM    9  P1  UNL     1      26.826  -0.591  52.963  1.00  0.00     0.046 P 
HETATM   10  C2  UNL     1      28.336   0.031  53.792  1.00  0.00     0.092 A 
HETATM   11  C3  UNL     1      29.481  -0.597  54.009  1.00  0.00     0.039 A 
HETATM   12  C4  UNL     1      29.578  -1.971  53.532  1.00  0.00    -0.001 A 
HETATM   13  C5  UNL     1      28.612  -2.591  52.919  1.00  0.00    -0.020 A 
HETATM   14  C6  UNL     1      27.227  -2.338  52.468  1.00  0.00     0.090 A 
BRANCH  10  15
HETATM   15  O1  UNL     1      28.205   1.328  54.226  1.00  0.00    -0.354 OA
HETATM   16  C1  UNL     1      28.470   2.498  53.525  1.00  0.00     0.210 C 
ENDBRANCH  10  15
ENDBRANCH   7   9
ENDBRANCH   1   7
BRANCH   5  17
HETATM   17  N3  UNL     1      23.606   3.485  52.017  1.00  0.00    -0.185 N 
HETATM   18  H12 UNL     1      22.991   4.280  52.352  1.00  0.00     0.184 HD
BRANCH  17  19
HETATM   19  C11 UNL     1      24.579   3.835  51.076  1.00  0.00     0.082 A 
HETATM   20  C12 UNL     1      25.490   2.967  50.517  1.00  0.00     0.033 A 
HETATM   21  C13 UNL     1      26.462   3.274  49.589  1.00  0.00     0.002 A 
HETATM   22  C14 UNL     1      26.549   4.581  49.161  1.00  0.00     0.003 A 
HETATM   23  C15 UNL     1      25.663   5.495  49.686  1.00  0.00     0.039 A 
HETATM   24  C16 UNL     1      24.705   5.151  50.613  1.00  0.00     0.095 A 
BRANCH  24  25
HETATM   25  O2  UNL     1      23.829   6.099  51.120  1.00  0.00    -0.354 OA
HETATM   26  C17 UNL     1      24.107   7.464  50.883  1.00  0.00     0.210 C 
ENDBRANCH  24  25
ENDBRANCH  17  19
ENDBRANCH   5  17
TORSDOF 6
ENDMDL
MODEL 4
REMARK VINA RESULT:      -7.4      1.103      1.981
REMARK  6 active torsions:
REMARK  status: ('A' for Active; 'I' for Inactive)
REMARK    1  A    between atoms: O1_2  and  C2_3 
REMARK    2  A    between atoms: P1_8  and  N1_9 
REMARK    3  A    between atoms: N1_9  and  C7_10 
REMARK    4  A    between atoms: C10_14  and  N3_15 
REMARK    5  A    between atoms: N3_15  and  C11_16 
REMARK    6  A    between atoms: C16_21  and  O2_22 
ROOT
HETATM    1  C7  UNL     1      24.057  -0.748  54.300  1.00  0.00     0.147 A 
HETATM    2  C8  UNL     1      23.062  -1.243  55.107  1.00  0.00     0.071 A 
HETATM    3  C9  UNL     1      21.749  -0.983  54.817  1.00  0.00     0.140 A 
HETATM    4  N2  UNL     1      21.506  -0.244  53.734  1.00  0.00    -0.075 NA
HETATM    5  C10 UNL     1      22.420   0.271  52.903  1.00  0.00     0.728 A 
HETATM    6  N4  UNL     1      23.687  -0.018  53.241  1.00  0.00    -0.045 NA
ENDROOT
BRANCH   1   7
HETATM    7  N1  UNL     1      25.433  -0.986  54.553  1.00  0.00    -0.343 N 
HETATM    8  H9  UNL     1      25.753  -1.302  55.470  1.00  0.00     0.166 HD
BRANCH   7   9
HETATM    9  P1  UNL     1      26.669  -0.754  53.314  1.00  0.00     0.046 P 
HETATM   10  C2  UNL     1      28.011   0.378  53.835  1.00  0.00     0.092 A 
HETATM   11  C3  UNL     1      29.315   0.152  53.877  1.00  0.00     0.039 A 
HETATM   12  C4  UNL     1      29.768  -1.168  53.458  1.00  0.00    -0.001 A 
HETATM   13  C5  UNL     1      28.967  -2.111  53.054  1.00  0.00    -0.020 A 
HETATM   14  C6  UNL     1      27.522  -2.337  52.841  1.00  0.00     0.090 A 
BRANCH  10  15
HETATM   15  O1  UNL     1      27.544   1.610  54.222  1.00  0.00    -0.354 OA
HETATM   16  C1  UNL     1      26.409   2.275  53.775  1.00  0.00     0.210 C 
ENDBRANCH  10  15
ENDBRANCH   7   9
ENDBRANCH   1   7
BRANCH   5  17
HETATM   17  N3  UNL     1      22.168   1.060  51.751  1.00  0.00    -0.185 N 
HETATM   18  H12 UNL     1      21.482   0.652  51.055  1.00  0.00     0.184 HD
BRANCH  17  19
HETATM   19  C11 UNL     1      22.704   2.305  51.408  1.00  0.00     0.082 A 
HETATM   20  C12 UNL     1      23.094   3.275  52.303  1.00  0.00     0.033 A 
HETATM   21  C13 UNL     1      23.625   4.512  52.004  1.00  0.00     0.002 A 
HETATM   22  C14 UNL     1      23.792   4.832  50.674  1.00  0.00     0.003 A 
HETATM   23  C15 UNL     1      23.419   3.900  49.731  1.00  0.00     0.039 A 
HETATM   24  C16 UNL     1      22.892   2.673  50.070  1.00  0.00     0.095 A 
BRANCH  24  25
HETATM   25  O2  UNL     1      22.526   1.760  49.092  1.00  0.00    -0.354 OA
HETATM   26  C17 UNL     1      21.398   2.047  48.293  1.00  0.00     0.210 C 
ENDBRANCH  24  25
ENDBRANCH  17  19
ENDBRANCH   5  17
TORSDOF 6
ENDMDL
MODEL 5
REMARK VINA RESULT:      -7.4      2.315      5.668
REMARK  6 active torsions:
REMARK  status: ('A' for Active; 'I' for Inactive)
REMARK    1  A    between atoms: O1_2  and  C2_3 
REMARK    2  A    between atoms: P1_8  and  N1_9 
REMARK    3  A    between atoms: N1_9  and  C7_10 
REMARK    4  A    between atoms: C10_14  and  N3_15 
REMARK    5  A    between atoms: N3_15  and  C11_16 
REMARK    6  A    between atoms: C16_21  and  O2_22 
ROOT
HETATM    1  C7  UNL     1      27.087   1.735  52.488  1.00  0.00     0.147 A 
HETATM    2  C8  UNL     1      28.090   1.237  53.282  1.00  0.00     0.071 A 
HETATM    3  C9  UNL     1      27.918   0.050  53.943  1.00  0.00     0.140 A 
HETATM    4  N2  UNL     1      26.752  -0.573  53.768  1.00  0.00    -0.075 NA
HETATM    5  C10 UNL     1      25.732  -0.151  53.011  1.00  0.00     0.728 A 
HETATM    6  N4  UNL     1      25.962   1.018  52.392  1.00  0.00    -0.045 NA
ENDROOT
BRANCH   1   7
HETATM    7  N1  UNL     1      27.211   2.960  51.781  1.00  0.00    -0.343 N 
HETATM    8  H9  UNL     1      27.850   3.690  52.101  1.00  0.00     0.166 HD
BRANCH   7   9
HETATM    9  P1  UNL     1      26.279   3.300  50.321  1.00  0.00     0.046 P 
HETATM   10  C2  UNL     1      24.780   4.304  50.637  1.00  0.00     0.092 A 
HETATM   11  C3  UNL     1      24.429   5.461  50.099  1.00  0.00     0.039 A 
HETATM   12  C4  UNL     1      25.343   6.035  49.120  1.00  0.00    -0.001 A 
HETATM   13  C5  UNL     1      26.461   5.473  48.761  1.00  0.00    -0.020 A 
HETATM   14  C6  UNL     1      27.247   4.256  49.054  1.00  0.00     0.090 A 
BRANCH  10  15
HETATM   15  O1  UNL     1      23.945   3.730  51.565  1.00  0.00    -0.354 OA
HETATM   16  C1  UNL     1      23.533   4.251  52.786  1.00  0.00     0.210 C 
ENDBRANCH  10  15
ENDBRANCH   7   9
ENDBRANCH   1   7
BRANCH   5  17
HETATM   17  N3  UNL     1      24.489  -0.808  52.822  1.00  0.00    -0.185 N 
HETATM   18  H12 UNL     1      24.520  -1.696  52.246  1.00  0.00     0.184 HD
BRANCH  17  19
HETATM   19  C11 UNL     1      23.225  -0.443  53.295  1.00  0.00     0.082 A 
HETATM   20  C12 UNL     1      22.692  -0.818  54.509  1.00  0.00     0.033 A 
HETATM   21  C13 UNL     1      21.453  -0.479  55.008  1.00  0.00     0.002 A 
HETATM   22  C14 UNL     1      20.645   0.320  54.228  1.00  0.00     0.003 A 
HETATM   23  C15 UNL     1      21.125   0.727  53.003  1.00  0.00     0.039 A 
HETATM   24  C16 UNL     1      22.370   0.367  52.538  1.00  0.00     0.095 A 
BRANCH  24  25
HETATM   25  O2  UNL     1      22.819   0.796  51.298  1.00  0.00    -0.354 OA
HETATM   26  C17 UNL     1      21.862   1.178  50.332  1.00  0.00     0.210 C 
ENDBRANCH  24  25
ENDBRANCH  17  19
ENDBRANCH   5  17
TORSDOF 6
ENDMDL
MODEL 6
REMARK VINA RESULT:      -7.4      1.901      6.030
REMARK  6 active torsions:
REMARK  status: ('A' for Active; 'I' for Inactive)
REMARK    1  A    between atoms: O1_2  and  C2_3 
REMARK    2  A    between atoms: P1_8  and  N1_9 
REMARK    3  A    between atoms: N1_9  and  C7_10 
REMARK    4  A    between atoms: C10_14  and  N3_15 
REMARK    5  A    between atoms: N3_15  and  C11_16 
REMARK    6  A    between atoms: C16_21  and  O2_22 
ROOT
HETATM    1  C7  UNL     1      21.717   0.709  53.560  1.00  0.00     0.147 A 
HETATM    2  C8  UNL     1      21.505  -0.292  54.475  1.00  0.00     0.071 A 
HETATM    3  C9  UNL     1      22.538  -1.109  54.852  1.00  0.00     0.140 A 
HETATM    4  N2  UNL     1      23.726  -0.875  54.292  1.00  0.00    -0.075 NA
HETATM    5  C10 UNL     1      24.007   0.079  53.397  1.00  0.00     0.728 A 
HETATM    6  N4  UNL     1      22.954   0.844  53.068  1.00  0.00    -0.045 NA
ENDROOT
BRANCH   1   7
HETATM    7  N1  UNL     1      20.684   1.583  53.133  1.00  0.00    -0.343 N 
HETATM    8  H9  UNL     1      19.932   1.860  53.768  1.00  0.00     0.166 HD
BRANCH   7   9
HETATM    9  P1  UNL     1      20.630   2.244  51.497  1.00  0.00     0.046 P 
HETATM   10  C2  UNL     1      22.073   3.297  51.094  1.00  0.00     0.092 A 
HETATM   11  C3  UNL     1      22.934   3.176  50.096  1.00  0.00     0.039 A 
HETATM   12  C4  UNL     1      22.727   2.061  49.180  1.00  0.00    -0.001 A 
HETATM   13  C5  UNL     1      21.757   1.201  49.299  1.00  0.00    -0.020 A 
HETATM   14  C6  UNL     1      20.609   0.924  50.187  1.00  0.00     0.090 A 
BRANCH  10  15
HETATM   15  O1  UNL     1      22.233   4.335  51.980  1.00  0.00    -0.354 OA
HETATM   16  C1  UNL     1      23.406   5.002  52.314  1.00  0.00     0.210 C 
ENDBRANCH  10  15
ENDBRANCH   7   9
ENDBRANCH   1   7
BRANCH   5  17
HETATM   17  N3  UNL     1      25.268   0.332  52.797  1.00  0.00    -0.185 N 
HETATM   18  H12 UNL     1      25.307   1.160  52.139  1.00  0.00     0.184 HD
BRANCH  17  19
HETATM   19  C11 UNL     1      26.469  -0.366  52.958  1.00  0.00     0.082 A 
HETATM   20  C12 UNL     1      26.692  -1.665  52.560  1.00  0.00     0.033 A 
HETATM   21  C13 UNL     1      27.859  -2.385  52.701  1.00  0.00     0.002 A 
HETATM   22  C14 UNL     1      28.930  -1.757  53.300  1.00  0.00     0.003 A 
HETATM   23  C15 UNL     1      28.766  -0.455  53.719  1.00  0.00     0.039 A 
HETATM   24  C16 UNL     1      27.583   0.232  53.561  1.00  0.00     0.095 A 
BRANCH  24  25
HETATM   25  O2  UNL     1      27.455   1.542  53.997  1.00  0.00    -0.354 OA
HETATM   26  C17 UNL     1      28.424   2.484  53.585  1.00  0.00     0.210 C 
ENDBRANCH  24  25
ENDBRANCH  17  19
ENDBRANCH   5  17
TORSDOF 6
ENDMDL
MODEL 7
REMARK VINA RESULT:      -7.4      2.583      6.887
REMARK  6 active torsions:
REMARK  status: ('A' for Active; 'I' for Inactive)
REMARK    1  A    between atoms: O1_2  and  C2_3 
REMARK    2  A    between atoms: P1_8  and  N1_9 
REMARK    3  A    between atoms: N1_9  and  C7_10 
REMARK    4  A    between atoms: C10_14  and  N3_15 
REMARK    5  A    between atoms: N3_15  and  C11_16 
REMARK    6  A    between atoms: C16_21  and  O2_22 
ROOT
HETATM    1  C7  UNL     1      23.922   3.282  52.645  1.00  0.00     0.147 A 
HETATM    2  C8  UNL     1      23.085   2.606  51.791  1.00  0.00     0.071 A 
HETATM    3  C9  UNL     1      23.151   1.241  51.702  1.00  0.00     0.140 A 
HETATM    4  N2  UNL     1      24.050   0.629  52.475  1.00  0.00    -0.075 NA
HETATM    5  C10 UNL     1      24.895   1.219  53.329  1.00  0.00     0.728 A 
HETATM    6  N4  UNL     1      24.782   2.557  53.369  1.00  0.00    -0.045 NA
ENDROOT
BRANCH   1   7
HETATM    7  N1  UNL     1      23.898   4.695  52.777  1.00  0.00    -0.343 N 
HETATM    8  H9  UNL     1      23.944   5.139  53.696  1.00  0.00     0.166 HD
BRANCH   7   9
HETATM    9  P1  UNL     1      23.787   5.766  51.379  1.00  0.00     0.046 P 
HETATM   10  C2  UNL     1      24.559   5.069  49.871  1.00  0.00     0.092 A 
HETATM   11  C3  UNL     1      24.017   4.866  48.681  1.00  0.00     0.039 A 
HETATM   12  C4  UNL     1      22.616   5.238  48.524  1.00  0.00    -0.001 A 
HETATM   13  C5  UNL     1      21.894   5.749  49.479  1.00  0.00    -0.020 A 
HETATM   14  C6  UNL     1      22.031   6.144  50.897  1.00  0.00     0.090 A 
BRANCH  10  15
HETATM   15  O1  UNL     1      25.877   4.731  50.060  1.00  0.00    -0.354 OA
HETATM   16  C1  UNL     1      26.864   4.560  49.096  1.00  0.00     0.210 C 
ENDBRANCH  10  15
ENDBRANCH   7   9
ENDBRANCH   1   7
BRANCH   5  17
HETATM   17  N3  UNL     1      25.854   0.575  54.152  1.00  0.00    -0.185 N 
HETATM   18  H12 UNL     1      25.766   0.756  55.191  1.00  0.00     0.184 HD
BRANCH  17  19
HETATM   19  C11 UNL     1      26.903  -0.271  53.777  1.00  0.00     0.082 A 
HETATM   20  C12 UNL     1      26.757  -1.484  53.142  1.00  0.00     0.033 A 
HETATM   21  C13 UNL     1      27.764  -2.343  52.757  1.00  0.00     0.002 A 
HETATM   22  C14 UNL     1      29.062  -1.968  53.027  1.00  0.00     0.003 A 
HETATM   23  C15 UNL     1      29.271  -0.764  53.661  1.00  0.00     0.039 A 
HETATM   24  C16 UNL     1      28.238   0.069  54.030  1.00  0.00     0.095 A 
BRANCH  24  25
HETATM   25  O2  UNL     1      28.487   1.275  54.668  1.00  0.00    -0.354 OA
HETATM   26  C17 UNL     1      28.996   2.347  53.902  1.00  0.00     0.210 C 
ENDBRANCH  24  25
ENDBRANCH  17  19
ENDBRANCH   5  17
TORSDOF 6
ENDMDL
MODEL 8
REMARK VINA RESULT:      -7.3      2.931      7.459
REMARK  6 active torsions:
REMARK  status: ('A' for Active; 'I' for Inactive)
REMARK    1  A    between atoms: O1_2  and  C2_3 
REMARK    2  A    between atoms: P1_8  and  N1_9 
REMARK    3  A    between atoms: N1_9  and  C7_10 
REMARK    4  A    between atoms: C10_14  and  N3_15 
REMARK    5  A    between atoms: N3_15  and  C11_16 
REMARK    6  A    between atoms: C16_21  and  O2_22 
ROOT
HETATM    1  C7  UNL     1      22.081   0.466  53.381  1.00  0.00     0.147 A 
HETATM    2  C8  UNL     1      21.829  -0.464  54.360  1.00  0.00     0.071 A 
HETATM    3  C9  UNL     1      22.865  -1.127  54.961  1.00  0.00     0.140 A 
HETATM    4  N2  UNL     1      24.096  -0.819  54.551  1.00  0.00    -0.075 NA
HETATM    5  C10 UNL     1      24.419   0.073  53.607  1.00  0.00     0.728 A 
HETATM    6  N4  UNL     1      23.360   0.688  53.056  1.00  0.00    -0.045 NA
ENDROOT
BRANCH   1   7
HETATM    7  N1  UNL     1      21.047   1.182  52.724  1.00  0.00    -0.343 N 
HETATM    8  H9  UNL     1      20.785   2.123  53.024  1.00  0.00     0.166 HD
BRANCH   7   9
HETATM    9  P1  UNL     1      20.154   0.502  51.362  1.00  0.00     0.046 P 
HETATM   10  C2  UNL     1      18.535  -0.208  51.840  1.00  0.00     0.092 A 
HETATM   11  C3  UNL     1      17.331   0.087  51.375  1.00  0.00     0.039 A 
HETATM   12  C4  UNL     1      17.258   1.114  50.344  1.00  0.00    -0.001 A 
HETATM   13  C5  UNL     1      18.298   1.737  49.871  1.00  0.00    -0.020 A 
HETATM   14  C6  UNL     1      19.765   1.764  50.052  1.00  0.00     0.090 A 
BRANCH  10  15
HETATM   15  O1  UNL     1      18.647  -1.171  52.813  1.00  0.00    -0.354 OA
HETATM   16  C1  UNL     1      17.629  -1.893  53.425  1.00  0.00     0.210 C 
ENDBRANCH  10  15
ENDBRANCH   7   9
ENDBRANCH   1   7
BRANCH   5  17
HETATM   17  N3  UNL     1      25.726   0.404  53.166  1.00  0.00    -0.185 N 
HETATM   18  H12 UNL     1      25.838   1.365  52.736  1.00  0.00     0.184 HD
BRANCH  17  19
HETATM   19  C11 UNL     1      26.890  -0.368  53.222  1.00  0.00     0.082 A 
HETATM   20  C12 UNL     1      27.021  -1.645  52.722  1.00  0.00     0.033 A 
HETATM   21  C13 UNL     1      28.149  -2.436  52.758  1.00  0.00     0.002 A 
HETATM   22  C14 UNL     1      29.277  -1.914  53.352  1.00  0.00     0.003 A 
HETATM   23  C15 UNL     1      29.207  -0.641  53.871  1.00  0.00     0.039 A 
HETATM   24  C16 UNL     1      28.060   0.120  53.815  1.00  0.00     0.095 A 
BRANCH  24  25
HETATM   25  O2  UNL     1      28.027   1.400  54.349  1.00  0.00    -0.354 OA
HETATM   26  C17 UNL     1      28.682   2.437  53.649  1.00  0.00     0.210 C 
ENDBRANCH  24  25
ENDBRANCH  17  19
ENDBRANCH   5  17
TORSDOF 6
ENDMDL
MODEL 9
REMARK VINA RESULT:      -7.2      2.089      6.517
REMARK  6 active torsions:
REMARK  status: ('A' for Active; 'I' for Inactive)
REMARK    1  A    between atoms: O1_2  and  C2_3 
REMARK    2  A    between atoms: P1_8  and  N1_9 
REMARK    3  A    between atoms: N1_9  and  C7_10 
REMARK    4  A    between atoms: C10_14  and  N3_15 
REMARK    5  A    between atoms: N3_15  and  C11_16 
REMARK    6  A    between atoms: C16_21  and  O2_22 
ROOT
HETATM    1  C7  UNL     1      22.091   1.308  52.891  1.00  0.00     0.147 A 
HETATM    2  C8  UNL     1      21.712   0.264  53.698  1.00  0.00     0.071 A 
HETATM    3  C9  UNL     1      22.613  -0.712  54.028  1.00  0.00     0.140 A 
HETATM    4  N2  UNL     1      23.845  -0.587  53.531  1.00  0.00    -0.075 NA
HETATM    5  C10 UNL     1      24.286   0.399  52.741  1.00  0.00     0.728 A 
HETATM    6  N4  UNL     1      23.355   1.323  52.454  1.00  0.00    -0.045 NA
ENDROOT
BRANCH   1   7
HETATM    7  N1  UNL     1      21.198   2.347  52.517  1.00  0.00    -0.343 N 
HETATM    8  H9  UNL     1      20.735   2.922  53.223  1.00  0.00     0.166 HD
BRANCH   7   9
HETATM    9  P1  UNL     1      20.835   2.710  50.828  1.00  0.00     0.046 P 
HETATM   10  C2  UNL     1      22.216   3.533  49.952  1.00  0.00     0.092 A 
HETATM   11  C3  UNL     1      22.837   3.155  48.845  1.00  0.00     0.039 A 
HETATM   12  C4  UNL     1      22.378   1.921  48.221  1.00  0.00    -0.001 A 
HETATM   13  C5  UNL     1      21.408   1.192  48.693  1.00  0.00    -0.020 A 
HETATM   14  C6  UNL     1      20.461   1.187  49.828  1.00  0.00     0.090 A 
BRANCH  10  15
HETATM   15  O1  UNL     1      22.620   4.690  50.571  1.00  0.00    -0.354 OA
HETATM   16  C1  UNL     1      21.870   5.832  50.827  1.00  0.00     0.210 C 
ENDBRANCH  10  15
ENDBRANCH   7   9
ENDBRANCH   1   7
BRANCH   5  17
HETATM   17  N3  UNL     1      25.594   0.537  52.209  1.00  0.00    -0.185 N 
HETATM   18  H12 UNL     1      25.679   0.426  51.159  1.00  0.00     0.184 HD
BRANCH  17  19
HETATM   19  C11 UNL     1      26.790   0.800  52.883  1.00  0.00     0.082 A 
HETATM   20  C12 UNL     1      27.394   2.034  52.978  1.00  0.00     0.033 A 
HETATM   21  C13 UNL     1      28.570   2.331  53.633  1.00  0.00     0.002 A 
HETATM   22  C14 UNL     1      29.228   1.299  54.267  1.00  0.00     0.003 A 
HETATM   23  C15 UNL     1      28.671   0.041  54.207  1.00  0.00     0.039 A 
HETATM   24  C16 UNL     1      27.493  -0.217  53.542  1.00  0.00     0.095 A 
BRANCH  24  25
HETATM   25  O2  UNL     1      26.963  -1.498  53.503  1.00  0.00    -0.354 OA
HETATM   26  C17 UNL     1      27.565  -2.447  52.647  1.00  0.00     0.210 C 
ENDBRANCH  24  25
ENDBRANCH  17  19
ENDBRANCH   5  17
TORSDOF 6
ENDMDL
