MODEL 1
REMARK VINA RESULT:      -8.0      0.000      0.000
REMARK  7 active torsions:
REMARK  status: ('A' for Active; 'I' for Inactive)
REMARK    1  A    between atoms: C3_3  and  C4_4 
REMARK    2  A    between atoms: C7_9  and  N3_10 
REMARK    3  A    between atoms: N3_10  and  C8_11 
REMARK    4  A    between atoms: N3_10  and  C15_18 
REMARK    5  A    between atoms: C17_20  and  O1_21 
REMARK    6  A    between atoms: O1_21  and  C18_22 
REMARK    7  A    between atoms: C18_22  and  O2_23 
ROOT
HETATM    1  N3  UNL     1      25.089   0.355  52.712  1.00  0.00    -0.316 N 
ENDROOT
BRANCH   1   2
HETATM    2  C7  UNL     1      24.211  -0.322  53.610  1.00  0.00     0.144 A 
HETATM    3  C4  UNL     1      22.885  -0.598  53.371  1.00  0.00     0.027 A 
HETATM    4  C5  UNL     1      22.282  -1.222  54.438  1.00  0.00     0.133 A 
HETATM    5  N1  UNL     1      22.836  -1.559  55.603  1.00  0.00    -0.253 NA
HETATM    6  C6  UNL     1      24.136  -1.262  55.772  1.00  0.00     0.234 A 
HETATM    7  N2  UNL     1      24.803  -0.650  54.778  1.00  0.00    -0.223 NA
BRANCH   3   8
HETATM    8  C3  UNL     1      22.301  -0.240  52.108  1.00  0.00     0.012 C 
HETATM    9  C2  UNL     1      21.343   0.612  51.795  1.00  0.00    -0.030 C 
HETATM   10  C1  UNL     1      20.543   1.488  52.651  1.00  0.00     0.036 C 
ENDBRANCH   3   8
ENDBRANCH   1   2
BRANCH   1  11
HETATM   11  C8  UNL     1      24.611   1.643  52.336  1.00  0.00     0.037 A 
HETATM   12  C9  UNL     1      24.264   2.625  53.248  1.00  0.00     0.030 A 
HETATM   13  C10 UNL     1      23.802   3.880  52.911  1.00  0.00     0.003 A 
HETATM   14  C11 UNL     1      23.667   4.211  51.597  1.00  0.00     0.007 A 
HETATM   15  C12 UNL     1      23.989   3.296  50.628  1.00  0.00    -0.060 A 
HETATM   16  C13 UNL     1      23.838   3.667  49.206  1.00  0.00     0.048 C 
HETATM   17  C14 UNL     1      24.438   2.076  51.038  1.00  0.00     0.036 A 
ENDBRANCH   1  11
BRANCH   1  18
HETATM   18  C15 UNL     1      26.365  -0.092  52.170  1.00  0.00     0.173 A 
HETATM   19  C16 UNL     1      27.463   0.835  52.652  1.00  0.00     0.040 A 
HETATM   20  C17 UNL     1      27.419  -0.601  52.984  1.00  0.00     0.074 A 
BRANCH  20  21
HETATM   21  O1  UNL     1      28.352  -1.315  53.771  1.00  0.00    -0.328 OA
BRANCH  21  22
HETATM   22  C18 UNL     1      29.146  -2.329  53.151  1.00  0.00     0.341 C 
BRANCH  22  23
HETATM   23  O2  UNL     1      28.601  -3.596  53.404  1.00  0.00    -0.377 OA
HETATM   24  H19 UNL     1      29.265  -4.273  53.101  1.00  0.00     0.212 HD
ENDBRANCH  22  23
ENDBRANCH  21  22
ENDBRANCH  20  21
ENDBRANCH   1  18
TORSDOF 7
ENDMDL
MODEL 2
REMARK VINA RESULT:      -7.8      2.196      4.512
REMARK  7 active torsions:
REMARK  status: ('A' for Active; 'I' for Inactive)
REMARK    1  A    between atoms: C3_3  and  C4_4 
REMARK    2  A    between atoms: C7_9  and  N3_10 
REMARK    3  A    between atoms: N3_10  and  C8_11 
REMARK    4  A    between atoms: N3_10  and  C15_18 
REMARK    5  A    between atoms: C17_20  and  O1_21 
REMARK    6  A    between atoms: O1_21  and  C18_22 
REMARK    7  A    between atoms: C18_22  and  O2_23 
ROOT
HETATM    1  N3  UNL     1      24.761   1.147  52.517  1.00  0.00    -0.316 N 
ENDROOT
BRANCH   1   2
HETATM    2  C7  UNL     1      23.994   2.343  52.386  1.00  0.00     0.144 A 
HETATM    3  C4  UNL     1      23.063   2.590  51.404  1.00  0.00     0.027 A 
HETATM    4  C5  UNL     1      22.515   3.846  51.509  1.00  0.00     0.133 A 
HETATM    5  N1  UNL     1      22.790   4.781  52.418  1.00  0.00    -0.253 NA
HETATM    6  C6  UNL     1      23.709   4.476  53.352  1.00  0.00     0.234 A 
HETATM    7  N2  UNL     1      24.295   3.267  53.323  1.00  0.00    -0.223 NA
BRANCH   3   8
HETATM    8  C3  UNL     1      22.767   1.571  50.434  1.00  0.00     0.012 C 
HETATM    9  C2  UNL     1      21.698   0.818  50.253  1.00  0.00    -0.030 C 
HETATM   10  C1  UNL     1      20.438   0.773  50.996  1.00  0.00     0.036 C 
ENDBRANCH   3   8
ENDBRANCH   1   2
BRANCH   1  11
HETATM   11  C8  UNL     1      24.220   0.246  53.478  1.00  0.00     0.037 A 
HETATM   12  C9  UNL     1      24.965  -0.322  54.497  1.00  0.00     0.030 A 
HETATM   13  C10 UNL     1      24.464  -1.194  55.442  1.00  0.00     0.003 A 
HETATM   14  C11 UNL     1      23.148  -1.541  55.400  1.00  0.00     0.007 A 
HETATM   15  C12 UNL     1      22.339  -1.022  54.422  1.00  0.00    -0.060 A 
HETATM   16  C13 UNL     1      20.913  -1.408  54.386  1.00  0.00     0.048 C 
HETATM   17  C14 UNL     1      22.904  -0.169  53.523  1.00  0.00     0.036 A 
ENDBRANCH   1  11
BRANCH   1  18
HETATM   18  C15 UNL     1      25.969   0.753  51.806  1.00  0.00     0.173 A 
HETATM   19  C16 UNL     1      26.546   1.962  51.097  1.00  0.00     0.040 A 
HETATM   20  C17 UNL     1      27.266   1.231  52.156  1.00  0.00     0.074 A 
BRANCH  20  21
HETATM   21  O1  UNL     1      28.554   1.527  52.659  1.00  0.00    -0.328 OA
BRANCH  21  22
HETATM   22  C18 UNL     1      28.684   2.504  53.694  1.00  0.00     0.341 C 
BRANCH  22  23
HETATM   23  O2  UNL     1      27.421   2.849  54.199  1.00  0.00    -0.377 OA
HETATM   24  H19 UNL     1      27.543   3.638  54.794  1.00  0.00     0.212 HD
ENDBRANCH  22  23
ENDBRANCH  21  22
ENDBRANCH  20  21
ENDBRANCH   1  18
TORSDOF 7
ENDMDL
MODEL 3
REMARK VINA RESULT:      -7.6      1.536      4.102
REMARK  7 active torsions:
REMARK  status: ('A' for Active; 'I' for Inactive)
REMARK    1  A    between atoms: C3_3  and  C4_4 
REMARK    2  A    between atoms: C7_9  and  N3_10 
REMARK    3  A    between atoms: N3_10  and  C8_11 
REMARK    4  A    between atoms: N3_10  and  C15_18 
REMARK    5  A    between atoms: C17_20  and  O1_21 
REMARK    6  A    between atoms: O1_21  and  C18_22 
REMARK    7  A    between atoms: C18_22  and  O2_23 
ROOT
HETATM    1  N3  UNL     1      24.700   0.937  52.548  1.00  0.00    -0.316 N 
ENDROOT
BRANCH   1   2
HETATM    2  C7  UNL     1      24.057   2.203  52.402  1.00  0.00     0.144 A 
HETATM    3  C4  UNL     1      23.207   2.553  51.379  1.00  0.00     0.027 A 
HETATM    4  C5  UNL     1      22.776   3.854  51.481  1.00  0.00     0.133 A 
HETATM    5  N1  UNL     1      23.090   4.744  52.423  1.00  0.00    -0.253 NA
HETATM    6  C6  UNL     1      23.925   4.338  53.396  1.00  0.00     0.234 A 
HETATM    7  N2  UNL     1      24.395   3.079  53.372  1.00  0.00    -0.223 NA
BRANCH   3   8
HETATM    8  C3  UNL     1      22.867   1.582  50.375  1.00  0.00     0.012 C 
HETATM    9  C2  UNL     1      21.745   0.936  50.126  1.00  0.00    -0.030 C 
HETATM   10  C1  UNL     1      20.450   0.996  50.805  1.00  0.00     0.036 C 
ENDBRANCH   3   8
ENDBRANCH   1   2
BRANCH   1  11
HETATM   11  C8  UNL     1      24.044   0.089  53.485  1.00  0.00     0.037 A 
HETATM   12  C9  UNL     1      24.668  -0.445  54.600  1.00  0.00     0.030 A 
HETATM   13  C10 UNL     1      24.054  -1.264  55.525  1.00  0.00     0.003 A 
HETATM   14  C11 UNL     1      22.743  -1.592  55.360  1.00  0.00     0.007 A 
HETATM   15  C12 UNL     1      22.050  -1.105  54.282  1.00  0.00    -0.060 A 
HETATM   16  C13 UNL     1      20.628  -1.469  54.115  1.00  0.00     0.048 C 
HETATM   17  C14 UNL     1      22.722  -0.302  53.411  1.00  0.00     0.036 A 
ENDBRANCH   1  11
BRANCH   1  18
HETATM   18  C15 UNL     1      25.886   0.430  51.872  1.00  0.00     0.173 A 
HETATM   19  C16 UNL     1      27.111   1.128  52.426  1.00  0.00     0.040 A 
HETATM   20  C17 UNL     1      26.895  -0.327  52.536  1.00  0.00     0.074 A 
BRANCH  20  21
HETATM   21  O1  UNL     1      27.757  -1.264  53.149  1.00  0.00    -0.328 OA
BRANCH  21  22
HETATM   22  C18 UNL     1      27.716  -2.626  52.717  1.00  0.00     0.341 C 
BRANCH  22  23
HETATM   23  O2  UNL     1      28.653  -3.390  53.429  1.00  0.00    -0.377 OA
HETATM   24  H19 UNL     1      28.844  -2.912  54.281  1.00  0.00     0.212 HD
ENDBRANCH  22  23
ENDBRANCH  21  22
ENDBRANCH  20  21
ENDBRANCH   1  18
TORSDOF 7
ENDMDL
MODEL 4
REMARK VINA RESULT:      -7.5      3.066      5.411
REMARK  7 active torsions:
REMARK  status: ('A' for Active; 'I' for Inactive)
REMARK    1  A    between atoms: C3_3  and  C4_4 
REMARK    2  A    between atoms: C7_9  and  N3_10 
REMARK    3  A    between atoms: N3_10  and  C8_11 
REMARK    4  A    between atoms: N3_10  and  C15_18 
REMARK    5  A    between atoms: C17_20  and  O1_21 
REMARK    6  A    between atoms: O1_21  and  C18_22 
REMARK    7  A    between atoms: C18_22  and  O2_23 
ROOT
HETATM    1  N3  UNL     1      24.080   2.656  51.588  1.00  0.00    -0.316 N 
ENDROOT
BRANCH   1   2
HETATM    2  C7  UNL     1      24.783   3.675  50.878  1.00  0.00     0.144 A 
HETATM    3  C4  UNL     1      24.459   5.012  50.873  1.00  0.00     0.027 A 
HETATM    4  C5  UNL     1      25.292   5.747  50.063  1.00  0.00     0.133 A 
HETATM    5  N1  UNL     1      26.316   5.305  49.333  1.00  0.00    -0.253 NA
HETATM    6  C6  UNL     1      26.580   3.988  49.383  1.00  0.00     0.234 A 
HETATM    7  N2  UNL     1      25.814   3.194  50.151  1.00  0.00    -0.223 NA
BRANCH   3   8
HETATM    8  C3  UNL     1      23.359   5.478  51.672  1.00  0.00     0.012 C 
HETATM    9  C2  UNL     1      22.081   5.644  51.392  1.00  0.00    -0.030 C 
HETATM   10  C1  UNL     1      21.348   5.402  50.149  1.00  0.00     0.036 C 
ENDBRANCH   3   8
ENDBRANCH   1   2
BRANCH   1  11
HETATM   11  C8  UNL     1      22.990   2.118  50.846  1.00  0.00     0.037 A 
HETATM   12  C9  UNL     1      22.905   2.170  49.465  1.00  0.00     0.030 A 
HETATM   13  C10 UNL     1      21.864   1.653  48.723  1.00  0.00     0.003 A 
HETATM   14  C11 UNL     1      20.828   1.041  49.361  1.00  0.00     0.007 A 
HETATM   15  C12 UNL     1      20.834   0.946  50.729  1.00  0.00    -0.060 A 
HETATM   16  C13 UNL     1      19.704   0.280  51.410  1.00  0.00     0.048 C 
HETATM   17  C14 UNL     1      21.896   1.480  51.394  1.00  0.00     0.036 A 
ENDBRANCH   1  11
BRANCH   1  18
HETATM   18  C15 UNL     1      24.343   2.118  52.915  1.00  0.00     0.173 A 
HETATM   19  C16 UNL     1      25.244   0.906  52.792  1.00  0.00     0.040 A 
HETATM   20  C17 UNL     1      25.636   2.130  53.515  1.00  0.00     0.074 A 
BRANCH  20  21
HETATM   21  O1  UNL     1      26.862   2.360  54.181  1.00  0.00    -0.328 OA
BRANCH  21  22
HETATM   22  C18 UNL     1      28.084   2.151  53.471  1.00  0.00     0.341 C 
BRANCH  22  23
HETATM   23  O2  UNL     1      28.079   2.876  52.270  1.00  0.00    -0.377 OA
HETATM   24  H19 UNL     1      28.991   2.809  51.876  1.00  0.00     0.212 HD
ENDBRANCH  22  23
ENDBRANCH  21  22
ENDBRANCH  20  21
ENDBRANCH   1  18
TORSDOF 7
ENDMDL
MODEL 5
REMARK VINA RESULT:      -7.1      4.264      6.683
REMARK  7 active torsions:
REMARK  status: ('A' for Active; 'I' for Inactive)
REMARK    1  A    between atoms: C3_3  and  C4_4 
REMARK    2  A    between atoms: C7_9  and  N3_10 
REMARK    3  A    between atoms: N3_10  and  C8_11 
REMARK    4  A    between atoms: N3_10  and  C15_18 
REMARK    5  A    between atoms: C17_20  and  O1_21 
REMARK    6  A    between atoms: O1_21  and  C18_22 
REMARK    7  A    between atoms: C18_22  and  O2_23 
ROOT
HETATM    1  N3  UNL     1      21.994   2.853  52.050  1.00  0.00    -0.316 N 
ENDROOT
BRANCH   1   2
HETATM    2  C7  UNL     1      20.726   2.682  51.416  1.00  0.00     0.144 A 
HETATM    3  C4  UNL     1      20.517   2.059  50.208  1.00  0.00     0.027 A 
HETATM    4  C5  UNL     1      19.195   2.084  49.831  1.00  0.00     0.133 A 
HETATM    5  N1  UNL     1      18.170   2.624  50.491  1.00  0.00    -0.253 NA
HETATM    6  C6  UNL     1      18.443   3.217  51.667  1.00  0.00     0.234 A 
HETATM    7  N2  UNL     1      19.711   3.238  52.111  1.00  0.00    -0.223 NA
BRANCH   3   8
HETATM    8  C3  UNL     1      21.628   1.472  49.510  1.00  0.00     0.012 C 
HETATM    9  C2  UNL     1      22.229   1.804  48.384  1.00  0.00    -0.030 C 
HETATM   10  C1  UNL     1      21.955   2.901  47.455  1.00  0.00     0.036 C 
ENDBRANCH   3   8
ENDBRANCH   1   2
BRANCH   1  11
HETATM   11  C8  UNL     1      22.497   1.647  52.614  1.00  0.00     0.037 A 
HETATM   12  C9  UNL     1      23.831   1.278  52.564  1.00  0.00     0.030 A 
HETATM   13  C10 UNL     1      24.345   0.118  53.105  1.00  0.00     0.003 A 
HETATM   14  C11 UNL     1      23.509  -0.749  53.741  1.00  0.00     0.007 A 
HETATM   15  C12 UNL     1      22.172  -0.460  53.836  1.00  0.00    -0.060 A 
HETATM   16  C13 UNL     1      21.277  -1.408  54.529  1.00  0.00     0.048 C 
HETATM   17  C14 UNL     1      21.738   0.704  53.277  1.00  0.00     0.036 A 
ENDBRANCH   1  11
BRANCH   1  18
HETATM   18  C15 UNL     1      22.800   4.060  52.171  1.00  0.00     0.173 A 
HETATM   19  C16 UNL     1      23.399   4.395  50.820  1.00  0.00     0.040 A 
HETATM   20  C17 UNL     1      22.463   5.287  51.528  1.00  0.00     0.074 A 
BRANCH  20  21
HETATM   21  O1  UNL     1      21.993   6.543  51.081  1.00  0.00    -0.328 OA
BRANCH  21  22
HETATM   22  C18 UNL     1      22.934   7.497  50.585  1.00  0.00     0.341 C 
BRANCH  22  23
HETATM   23  O2  UNL     1      23.909   7.770  51.557  1.00  0.00    -0.377 OA
HETATM   24  H19 UNL     1      23.772   8.708  51.862  1.00  0.00     0.212 HD
ENDBRANCH  22  23
ENDBRANCH  21  22
ENDBRANCH  20  21
ENDBRANCH   1  18
TORSDOF 7
ENDMDL
MODEL 6
REMARK VINA RESULT:      -7.0      3.341      5.885
REMARK  7 active torsions:
REMARK  status: ('A' for Active; 'I' for Inactive)
REMARK    1  A    between atoms: C3_3  and  C4_4 
REMARK    2  A    between atoms: C7_9  and  N3_10 
REMARK    3  A    between atoms: N3_10  and  C8_11 
REMARK    4  A    between atoms: N3_10  and  C15_18 
REMARK    5  A    between atoms: C17_20  and  O1_21 
REMARK    6  A    between atoms: O1_21  and  C18_22 
REMARK    7  A    between atoms: C18_22  and  O2_23 
ROOT
HETATM    1  N3  UNL     1      24.517   3.172  51.104  1.00  0.00    -0.316 N 
ENDROOT
BRANCH   1   2
HETATM    2  C7  UNL     1      24.673   4.568  50.853  1.00  0.00     0.144 A 
HETATM    3  C4  UNL     1      25.638   5.130  50.050  1.00  0.00     0.027 A 
HETATM    4  C5  UNL     1      25.567   6.504  50.034  1.00  0.00     0.133 A 
HETATM    5  N1  UNL     1      24.702   7.282  50.684  1.00  0.00    -0.253 NA
HETATM    6  C6  UNL     1      23.783   6.669  51.451  1.00  0.00     0.234 A 
HETATM    7  N2  UNL     1      23.781   5.327  51.524  1.00  0.00    -0.223 NA
BRANCH   3   8
HETATM    8  C3  UNL     1      26.560   4.281  49.346  1.00  0.00     0.012 C 
HETATM    9  C2  UNL     1      27.643   4.556  48.645  1.00  0.00    -0.030 C 
HETATM   10  C1  UNL     1      28.274   5.842  48.347  1.00  0.00     0.036 C 
ENDBRANCH   3   8
ENDBRANCH   1   2
BRANCH   1  11
HETATM   11  C8  UNL     1      23.506   2.575  50.299  1.00  0.00     0.037 A 
HETATM   12  C9  UNL     1      22.671   1.564  50.745  1.00  0.00     0.030 A 
HETATM   13  C10 UNL     1      21.682   0.972  49.987  1.00  0.00     0.003 A 
HETATM   14  C11 UNL     1      21.485   1.388  48.705  1.00  0.00     0.007 A 
HETATM   15  C12 UNL     1      22.269   2.385  48.185  1.00  0.00    -0.060 A 
HETATM   16  C13 UNL     1      22.045   2.827  46.793  1.00  0.00     0.048 C 
HETATM   17  C14 UNL     1      23.225   2.922  48.993  1.00  0.00     0.036 A 
ENDBRANCH   1  11
BRANCH   1  18
HETATM   18  C15 UNL     1      25.246   2.324  52.037  1.00  0.00     0.173 A 
HETATM   19  C16 UNL     1      26.096   1.341  51.256  1.00  0.00     0.040 A 
HETATM   20  C17 UNL     1      26.666   2.352  52.165  1.00  0.00     0.074 A 
BRANCH  20  21
HETATM   21  O1  UNL     1      28.036   2.560  52.443  1.00  0.00    -0.328 OA
BRANCH  21  22
HETATM   22  C18 UNL     1      28.639   1.842  53.522  1.00  0.00     0.341 C 
BRANCH  22  23
HETATM   23  O2  UNL     1      27.687   1.562  54.513  1.00  0.00    -0.377 OA
HETATM   24  H19 UNL     1      27.988   0.744  54.995  1.00  0.00     0.212 HD
ENDBRANCH  22  23
ENDBRANCH  21  22
ENDBRANCH  20  21
ENDBRANCH   1  18
TORSDOF 7
ENDMDL
MODEL 7
REMARK VINA RESULT:      -7.0      3.052      5.505
REMARK  7 active torsions:
REMARK  status: ('A' for Active; 'I' for Inactive)
REMARK    1  A    between atoms: C3_3  and  C4_4 
REMARK    2  A    between atoms: C7_9  and  N3_10 
REMARK    3  A    between atoms: N3_10  and  C8_11 
REMARK    4  A    between atoms: N3_10  and  C15_18 
REMARK    5  A    between atoms: C17_20  and  O1_21 
REMARK    6  A    between atoms: O1_21  and  C18_22 
REMARK    7  A    between atoms: C18_22  and  O2_23 
ROOT
HETATM    1  N3  UNL     1      21.846   1.595  52.231  1.00  0.00    -0.316 N 
ENDROOT
BRANCH   1   2
HETATM    2  C7  UNL     1      21.608   1.970  50.874  1.00  0.00     0.144 A 
HETATM    3  C4  UNL     1      21.217   3.218  50.449  1.00  0.00     0.027 A 
HETATM    4  C5  UNL     1      21.023   3.268  49.089  1.00  0.00     0.133 A 
HETATM    5  N1  UNL     1      21.171   2.278  48.208  1.00  0.00    -0.253 NA
HETATM    6  C6  UNL     1      21.556   1.083  48.689  1.00  0.00     0.234 A 
HETATM    7  N2  UNL     1      21.769   0.946  50.009  1.00  0.00    -0.223 NA
BRANCH   3   8
HETATM    8  C3  UNL     1      21.071   4.281  51.406  1.00  0.00     0.012 C 
HETATM    9  C2  UNL     1      21.824   5.331  51.671  1.00  0.00    -0.030 C 
HETATM   10  C1  UNL     1      23.083   5.766  51.066  1.00  0.00     0.036 C 
ENDBRANCH   3   8
ENDBRANCH   1   2
BRANCH   1  11
HETATM   11  C8  UNL     1      23.231   1.579  52.564  1.00  0.00     0.037 A 
HETATM   12  C9  UNL     1      23.916   2.686  53.037  1.00  0.00     0.030 A 
HETATM   13  C10 UNL     1      25.254   2.695  53.371  1.00  0.00     0.003 A 
HETATM   14  C11 UNL     1      25.983   1.552  53.240  1.00  0.00     0.007 A 
HETATM   15  C12 UNL     1      25.381   0.410  52.779  1.00  0.00    -0.060 A 
HETATM   16  C13 UNL     1      26.183  -0.823  52.642  1.00  0.00     0.048 C 
HETATM   17  C14 UNL     1      24.056   0.477  52.469  1.00  0.00     0.036 A 
ENDBRANCH   1  11
BRANCH   1  18
HETATM   18  C15 UNL     1      20.883   1.256  53.268  1.00  0.00     0.173 A 
HETATM   19  C16 UNL     1      20.194  -0.043  52.902  1.00  0.00     0.040 A 
HETATM   20  C17 UNL     1      21.020   0.116  54.113  1.00  0.00     0.074 A 
BRANCH  20  21
HETATM   21  O1  UNL     1      21.292  -0.874  55.085  1.00  0.00    -0.328 OA
BRANCH  21  22
HETATM   22  C18 UNL     1      22.394  -1.761  54.879  1.00  0.00     0.341 C 
BRANCH  22  23
HETATM   23  O2  UNL     1      23.178  -1.840  56.039  1.00  0.00    -0.377 OA
HETATM   24  H19 UNL     1      23.036  -1.000  56.554  1.00  0.00     0.212 HD
ENDBRANCH  22  23
ENDBRANCH  21  22
ENDBRANCH  20  21
ENDBRANCH   1  18
TORSDOF 7
ENDMDL
MODEL 8
REMARK VINA RESULT:      -7.0      4.168      6.621
REMARK  7 active torsions:
REMARK  status: ('A' for Active; 'I' for Inactive)
REMARK    1  A    between atoms: C3_3  and  C4_4 
REMARK    2  A    between atoms: C7_9  and  N3_10 
REMARK    3  A    between atoms: N3_10  and  C8_11 
REMARK    4  A    between atoms: N3_10  and  C15_18 
REMARK    5  A    between atoms: C17_20  and  O1_21 
REMARK    6  A    between atoms: O1_21  and  C18_22 
REMARK    7  A    between atoms: C18_22  and  O2_23 
ROOT
HETATM    1  N3  UNL     1      22.793   2.507  51.786  1.00  0.00    -0.316 N 
ENDROOT
BRANCH   1   2
HETATM    2  C7  UNL     1      22.688   2.290  50.380  1.00  0.00     0.144 A 
HETATM    3  C4  UNL     1      23.299   3.048  49.408  1.00  0.00     0.027 A 
HETATM    4  C5  UNL     1      22.979   2.626  48.139  1.00  0.00     0.133 A 
HETATM    5  N1  UNL     1      22.182   1.615  47.795  1.00  0.00    -0.253 NA
HETATM    6  C6  UNL     1      21.617   0.912  48.793  1.00  0.00     0.234 A 
HETATM    7  N2  UNL     1      21.877   1.258  50.066  1.00  0.00    -0.223 NA
BRANCH   3   8
HETATM    8  C3  UNL     1      24.164   4.130  49.792  1.00  0.00     0.012 C 
HETATM    9  C2  UNL     1      25.479   4.215  49.870  1.00  0.00    -0.030 C 
HETATM   10  C1  UNL     1      26.508   3.214  49.587  1.00  0.00     0.036 C 
ENDBRANCH   3   8
ENDBRANCH   1   2
BRANCH   1  11
HETATM   11  C8  UNL     1      24.046   2.089  52.318  1.00  0.00     0.037 A 
HETATM   12  C9  UNL     1      24.765   2.822  53.247  1.00  0.00     0.030 A 
HETATM   13  C10 UNL     1      25.978   2.438  53.780  1.00  0.00     0.003 A 
HETATM   14  C11 UNL     1      26.537   1.260  53.388  1.00  0.00     0.007 A 
HETATM   15  C12 UNL     1      25.890   0.472  52.472  1.00  0.00    -0.060 A 
HETATM   16  C13 UNL     1      26.506  -0.804  52.055  1.00  0.00     0.048 C 
HETATM   17  C14 UNL     1      24.696   0.917  51.989  1.00  0.00     0.036 A 
ENDBRANCH   1  11
BRANCH   1  18
HETATM   18  C15 UNL     1      21.818   3.090  52.697  1.00  0.00     0.173 A 
HETATM   19  C16 UNL     1      21.544   4.522  52.282  1.00  0.00     0.040 A 
HETATM   20  C17 UNL     1      20.507   3.473  52.289  1.00  0.00     0.074 A 
BRANCH  20  21
HETATM   21  O1  UNL     1      19.149   3.627  51.925  1.00  0.00    -0.328 OA
BRANCH  21  22
HETATM   22  C18 UNL     1      18.736   3.233  50.615  1.00  0.00     0.341 C 
BRANCH  22  23
HETATM   23  O2  UNL     1      18.773   1.837  50.491  1.00  0.00    -0.377 OA
HETATM   24  H19 UNL     1      17.870   1.539  50.196  1.00  0.00     0.212 HD
ENDBRANCH  22  23
ENDBRANCH  21  22
ENDBRANCH  20  21
ENDBRANCH   1  18
TORSDOF 7
ENDMDL
MODEL 9
REMARK VINA RESULT:      -6.9      4.103      6.818
REMARK  7 active torsions:
REMARK  status: ('A' for Active; 'I' for Inactive)
REMARK    1  A    between atoms: C3_3  and  C4_4 
REMARK    2  A    between atoms: C7_9  and  N3_10 
REMARK    3  A    between atoms: N3_10  and  C8_11 
REMARK    4  A    between atoms: N3_10  and  C15_18 
REMARK    5  A    between atoms: C17_20  and  O1_21 
REMARK    6  A    between atoms: O1_21  and  C18_22 
REMARK    7  A    between atoms: C18_22  and  O2_23 
ROOT
HETATM    1  N3  UNL     1      22.637   2.671  51.650  1.00  0.00    -0.316 N 
ENDROOT
BRANCH   1   2
HETATM    2  C7  UNL     1      22.593   2.449  50.240  1.00  0.00     0.144 A 
HETATM    3  C4  UNL     1      23.365   3.101  49.307  1.00  0.00     0.027 A 
HETATM    4  C5  UNL     1      23.071   2.708  48.022  1.00  0.00     0.133 A 
HETATM    5  N1  UNL     1      22.165   1.812  47.632  1.00  0.00    -0.253 NA
HETATM    6  C6  UNL     1      21.444   1.210  48.595  1.00  0.00     0.234 A 
HETATM    7  N2  UNL     1      21.668   1.536  49.880  1.00  0.00    -0.223 NA
BRANCH   3   8
HETATM    8  C3  UNL     1      24.346   4.058  49.739  1.00  0.00     0.012 C 
HETATM    9  C2  UNL     1      25.659   3.980  49.846  1.00  0.00    -0.030 C 
HETATM   10  C1  UNL     1      26.565   2.869  49.554  1.00  0.00     0.036 C 
ENDBRANCH   3   8
ENDBRANCH   1   2
BRANCH   1  11
HETATM   11  C8  UNL     1      23.285   1.617  52.355  1.00  0.00     0.037 A 
HETATM   12  C9  UNL     1      24.644   1.365  52.272  1.00  0.00     0.030 A 
HETATM   13  C10 UNL     1      25.296   0.354  52.948  1.00  0.00     0.003 A 
HETATM   14  C11 UNL     1      24.584  -0.472  53.763  1.00  0.00     0.007 A 
HETATM   15  C12 UNL     1      23.231  -0.291  53.902  1.00  0.00    -0.060 A 
HETATM   16  C13 UNL     1      22.470  -1.194  54.789  1.00  0.00     0.048 C 
HETATM   17  C14 UNL     1      22.657   0.728  53.203  1.00  0.00     0.036 A 
ENDBRANCH   1  11
BRANCH   1  18
HETATM   18  C15 UNL     1      22.131   3.803  52.413  1.00  0.00     0.173 A 
HETATM   19  C16 UNL     1      23.281   4.730  52.751  1.00  0.00     0.040 A 
HETATM   20  C17 UNL     1      22.136   5.139  51.917  1.00  0.00     0.074 A 
BRANCH  20  21
HETATM   21  O1  UNL     1      21.935   6.406  51.323  1.00  0.00    -0.328 OA
BRANCH  21  22
HETATM   22  C18 UNL     1      23.022   7.026  50.633  1.00  0.00     0.341 C 
BRANCH  22  23
HETATM   23  O2  UNL     1      23.809   7.766  51.529  1.00  0.00    -0.377 OA
HETATM   24  H19 UNL     1      23.279   8.562  51.805  1.00  0.00     0.212 HD
ENDBRANCH  22  23
ENDBRANCH  21  22
ENDBRANCH  20  21
ENDBRANCH   1  18
TORSDOF 7
ENDMDL
