MODEL 1
REMARK VINA RESULT:      -8.3      0.000      0.000
REMARK  4 active torsions:
REMARK  status: ('A' for Active; 'I' for Inactive)
REMARK    1  A    between atoms: C1_2  and  C2_3 
REMARK    2  A    between atoms: C2_3  and  C3_4 
REMARK    3  A    between atoms: C8_11  and  N3_12 
REMARK    4  A    between atoms: N3_12  and  C9_13 
ROOT
HETATM    1  C3  UNL     1      24.219  -0.182  53.448  1.00  0.00    -0.051 A 
HETATM    2  C4  UNL     1      24.812  -0.556  54.635  1.00  0.00     0.010 A 
HETATM    3  C5  UNL     1      26.061  -0.048  54.922  1.00  0.00     0.033 A 
HETATM    4  C6  UNL     1      26.646   0.794  54.025  1.00  0.00     0.072 A 
HETATM    5  N1  UNL     1      27.865   1.273  54.328  1.00  0.00    -0.241 NA
HETATM    6  C7  UNL     1      28.512   2.118  53.482  1.00  0.00     0.236 A 
HETATM    7  N2  UNL     1      27.968   2.503  52.322  1.00  0.00    -0.224 NA
HETATM    8  C8  UNL     1      26.764   2.058  51.975  1.00  0.00     0.142 A 
HETATM    9  C15 UNL     1      26.098   1.202  52.821  1.00  0.00     0.039 A 
HETATM   10  C16 UNL     1      24.852   0.673  52.573  1.00  0.00     0.025 A 
ENDROOT
BRANCH   8  11
HETATM   11  N3  UNL     1      26.150   2.442  50.767  1.00  0.00    -0.340 N 
HETATM   12  H7  UNL     1      25.614   1.794  50.155  1.00  0.00     0.167 HD
BRANCH  11  13
HETATM   13  C9  UNL     1      26.149   3.730  50.180  1.00  0.00     0.035 A 
HETATM   14  C10 UNL     1      27.031   4.146  49.210  1.00  0.00     0.029 A 
HETATM   15  C11 UNL     1      27.064   5.381  48.647  1.00  0.00     0.004 A 
HETATM   16  C12 UNL     1      26.158   6.347  49.039  1.00  0.00     0.019 A 
HETATM   17  C13 UNL     1      25.246   6.007  50.003  1.00  0.00     0.013 A 
HETATM   18 BR1  UNL     1      23.962   7.284  50.600  1.00  0.00    -0.051 Br
HETATM   19  C14 UNL     1      25.262   4.746  50.534  1.00  0.00     0.048 A 
ENDBRANCH  11  13
ENDBRANCH   8  11
BRANCH   1  20
HETATM   20  C2  UNL     1      22.873  -0.764  53.204  1.00  0.00     0.107 C 
BRANCH  20  21
HETATM   21  C1  UNL     1      22.254  -1.170  54.482  1.00  0.00     0.235 C 
HETATM   22  O1  UNL     1      21.428  -1.839  55.082  1.00  0.00    -0.307 OA
ENDBRANCH  20  21
ENDBRANCH   1  20
TORSDOF 4
ENDMDL
MODEL 2
REMARK VINA RESULT:      -8.0      1.032      1.442
REMARK  4 active torsions:
REMARK  status: ('A' for Active; 'I' for Inactive)
REMARK    1  A    between atoms: C1_2  and  C2_3 
REMARK    2  A    between atoms: C2_3  and  C3_4 
REMARK    3  A    between atoms: C8_11  and  N3_12 
REMARK    4  A    between atoms: N3_12  and  C9_13 
ROOT
HETATM    1  C3  UNL     1      24.325  -0.247  53.441  1.00  0.00    -0.051 A 
HETATM    2  C4  UNL     1      24.789  -0.538  54.705  1.00  0.00     0.010 A 
HETATM    3  C5  UNL     1      26.018  -0.034  55.075  1.00  0.00     0.033 A 
HETATM    4  C6  UNL     1      26.711   0.721  54.179  1.00  0.00     0.072 A 
HETATM    5  N1  UNL     1      27.908   1.198  54.564  1.00  0.00    -0.241 NA
HETATM    6  C7  UNL     1      28.658   1.960  53.725  1.00  0.00     0.236 A 
HETATM    7  N2  UNL     1      28.241   2.264  52.490  1.00  0.00    -0.224 NA
HETATM    8  C8  UNL     1      27.064   1.817  52.060  1.00  0.00     0.142 A 
HETATM    9  C15 UNL     1      26.295   1.044  52.899  1.00  0.00     0.039 A 
HETATM   10  C16 UNL     1      25.064   0.523  52.570  1.00  0.00     0.025 A 
ENDROOT
BRANCH   8  11
HETATM   11  N3  UNL     1      26.582   2.116  50.771  1.00  0.00    -0.340 N 
HETATM   12  H7  UNL     1      26.617   1.455  49.969  1.00  0.00     0.167 HD
BRANCH  11  13
HETATM   13  C9  UNL     1      25.984   3.325  50.341  1.00  0.00     0.035 A 
HETATM   14  C10 UNL     1      24.666   3.660  50.546  1.00  0.00     0.029 A 
HETATM   15  C11 UNL     1      24.064   4.802  50.126  1.00  0.00     0.004 A 
HETATM   16  C12 UNL     1      24.786   5.751  49.428  1.00  0.00     0.019 A 
HETATM   17  C13 UNL     1      26.108   5.489  49.185  1.00  0.00     0.013 A 
HETATM   18 BR1  UNL     1      27.174   6.748  48.228  1.00  0.00    -0.051 Br
HETATM   19  C14 UNL     1      26.659   4.319  49.633  1.00  0.00     0.048 A 
ENDBRANCH  11  13
ENDBRANCH   8  11
BRANCH   1  20
HETATM   20  C2  UNL     1      22.994  -0.819  53.110  1.00  0.00     0.107 C 
BRANCH  20  21
HETATM   21  C1  UNL     1      22.242  -1.111  54.347  1.00  0.00     0.235 C 
HETATM   22  O1  UNL     1      21.369  -1.742  54.921  1.00  0.00    -0.307 OA
ENDBRANCH  20  21
ENDBRANCH   1  20
TORSDOF 4
ENDMDL
MODEL 3
REMARK VINA RESULT:      -7.8      3.147      5.183
REMARK  4 active torsions:
REMARK  status: ('A' for Active; 'I' for Inactive)
REMARK    1  A    between atoms: C1_2  and  C2_3 
REMARK    2  A    between atoms: C2_3  and  C3_4 
REMARK    3  A    between atoms: C8_11  and  N3_12 
REMARK    4  A    between atoms: N3_12  and  C9_13 
ROOT
HETATM    1  C3  UNL     1      21.931   0.130  52.754  1.00  0.00    -0.051 A 
HETATM    2  C4  UNL     1      21.181   0.201  51.600  1.00  0.00     0.010 A 
HETATM    3  C5  UNL     1      21.640   1.006  50.579  1.00  0.00     0.033 A 
HETATM    4  C6  UNL     1      22.805   1.689  50.758  1.00  0.00     0.072 A 
HETATM    5  N1  UNL     1      23.228   2.468  49.748  1.00  0.00    -0.241 NA
HETATM    6  C7  UNL     1      24.382   3.180  49.853  1.00  0.00     0.236 A 
HETATM    7  N2  UNL     1      25.136   3.136  50.957  1.00  0.00    -0.224 NA
HETATM    8  C8  UNL     1      24.762   2.380  51.986  1.00  0.00     0.142 A 
HETATM    9  C15 UNL     1      23.597   1.655  51.893  1.00  0.00     0.039 A 
HETATM   10  C16 UNL     1      23.104   0.840  52.887  1.00  0.00     0.025 A 
ENDROOT
BRANCH   8  11
HETATM   11  N3  UNL     1      25.528   2.298  53.165  1.00  0.00    -0.340 N 
HETATM   12  H7  UNL     1      25.257   2.740  54.066  1.00  0.00     0.167 HD
BRANCH  11  13
HETATM   13  C9  UNL     1      26.762   1.626  53.338  1.00  0.00     0.035 A 
HETATM   14  C10 UNL     1      27.934   2.235  53.723  1.00  0.00     0.029 A 
HETATM   15  C11 UNL     1      29.134   1.618  53.875  1.00  0.00     0.004 A 
HETATM   16  C12 UNL     1      29.252   0.262  53.639  1.00  0.00     0.019 A 
HETATM   17  C13 UNL     1      28.126  -0.415  53.251  1.00  0.00     0.013 A 
HETATM   18 BR1  UNL     1      28.205  -2.288  52.906  1.00  0.00    -0.051 Br
HETATM   19  C14 UNL     1      26.944   0.262  53.114  1.00  0.00     0.048 A 
ENDBRANCH  11  13
ENDBRANCH   8  11
BRANCH   1  20
HETATM   20  C2  UNL     1      21.380  -0.758  53.811  1.00  0.00     0.107 C 
BRANCH  20  21
HETATM   21  C1  UNL     1      22.362  -0.920  54.903  1.00  0.00     0.235 C 
HETATM   22  O1  UNL     1      22.912  -1.639  55.722  1.00  0.00    -0.307 OA
ENDBRANCH  20  21
ENDBRANCH   1  20
TORSDOF 4
ENDMDL
MODEL 4
REMARK VINA RESULT:      -7.5      2.482      3.555
REMARK  4 active torsions:
REMARK  status: ('A' for Active; 'I' for Inactive)
REMARK    1  A    between atoms: C1_2  and  C2_3 
REMARK    2  A    between atoms: C2_3  and  C3_4 
REMARK    3  A    between atoms: C8_11  and  N3_12 
REMARK    4  A    between atoms: N3_12  and  C9_13 
ROOT
HETATM    1  C3  UNL     1      26.980   0.090  53.077  1.00  0.00    -0.051 A 
HETATM    2  C4  UNL     1      25.944  -0.424  53.825  1.00  0.00     0.010 A 
HETATM    3  C5  UNL     1      24.666   0.017  53.551  1.00  0.00     0.033 A 
HETATM    4  C6  UNL     1      24.491   0.934  52.560  1.00  0.00     0.072 A 
HETATM    5  N1  UNL     1      23.236   1.348  52.314  1.00  0.00    -0.241 NA
HETATM    6  C7  UNL     1      22.981   2.263  51.341  1.00  0.00     0.236 A 
HETATM    7  N2  UNL     1      23.960   2.784  50.594  1.00  0.00    -0.224 NA
HETATM    8  C8  UNL     1      25.220   2.408  50.796  1.00  0.00     0.142 A 
HETATM    9  C15 UNL     1      25.492   1.484  51.779  1.00  0.00     0.039 A 
HETATM   10  C16 UNL     1      26.751   1.018  52.084  1.00  0.00     0.025 A 
ENDROOT
BRANCH   8  11
HETATM   11  N3  UNL     1      26.283   2.925  50.030  1.00  0.00    -0.340 N 
HETATM   12  H7  UNL     1      27.085   2.357  49.691  1.00  0.00     0.167 HD
BRANCH  11  13
HETATM   13  C9  UNL     1      26.452   4.262  49.595  1.00  0.00     0.035 A 
HETATM   14  C10 UNL     1      27.465   4.691  48.770  1.00  0.00     0.029 A 
HETATM   15  C11 UNL     1      27.662   5.969  48.356  1.00  0.00     0.004 A 
HETATM   16  C12 UNL     1      26.803   6.971  48.765  1.00  0.00     0.019 A 
HETATM   17  C13 UNL     1      25.767   6.621  49.590  1.00  0.00     0.013 A 
HETATM   18 BR1  UNL     1      24.537   7.944  50.199  1.00  0.00    -0.051 Br
HETATM   19  C14 UNL     1      25.620   5.315  49.974  1.00  0.00     0.048 A 
ENDBRANCH  11  13
ENDBRANCH   8  11
BRANCH   1  20
HETATM   20  C2  UNL     1      28.328  -0.430  53.423  1.00  0.00     0.107 C 
BRANCH  20  21
HETATM   21  C1  UNL     1      29.082   0.580  54.193  1.00  0.00     0.235 C 
HETATM   22  O1  UNL     1      29.095   1.461  55.038  1.00  0.00    -0.307 OA
ENDBRANCH  20  21
ENDBRANCH   1  20
TORSDOF 4
ENDMDL
MODEL 5
REMARK VINA RESULT:      -7.4      1.641      1.802
REMARK  4 active torsions:
REMARK  status: ('A' for Active; 'I' for Inactive)
REMARK    1  A    between atoms: C1_2  and  C2_3 
REMARK    2  A    between atoms: C2_3  and  C3_4 
REMARK    3  A    between atoms: C8_11  and  N3_12 
REMARK    4  A    between atoms: N3_12  and  C9_13 
ROOT
HETATM    1  C3  UNL     1      22.855   0.304  52.905  1.00  0.00    -0.051 A 
HETATM    2  C4  UNL     1      23.428  -0.536  53.835  1.00  0.00     0.010 A 
HETATM    3  C5  UNL     1      24.792  -0.460  54.023  1.00  0.00     0.033 A 
HETATM    4  C6  UNL     1      25.504   0.437  53.285  1.00  0.00     0.072 A 
HETATM    5  N1  UNL     1      26.832   0.489  53.486  1.00  0.00    -0.241 NA
HETATM    6  C7  UNL     1      27.609   1.358  52.786  1.00  0.00     0.236 A 
HETATM    7  N2  UNL     1      27.089   2.189  51.876  1.00  0.00    -0.224 NA
HETATM    8  C8  UNL     1      25.781   2.177  51.639  1.00  0.00     0.142 A 
HETATM    9  C15 UNL     1      24.982   1.303  52.339  1.00  0.00     0.039 A 
HETATM   10  C16 UNL     1      23.619   1.195  52.183  1.00  0.00     0.025 A 
ENDROOT
BRANCH   8  11
HETATM   11  N3  UNL     1      25.188   3.039  50.695  1.00  0.00    -0.340 N 
HETATM   12  H7  UNL     1      24.195   2.976  50.393  1.00  0.00     0.167 HD
BRANCH  11  13
HETATM   13  C9  UNL     1      25.809   4.108  50.006  1.00  0.00     0.035 A 
HETATM   14  C10 UNL     1      26.940   3.986  49.233  1.00  0.00     0.029 A 
HETATM   15  C11 UNL     1      27.566   4.998  48.580  1.00  0.00     0.004 A 
HETATM   16  C12 UNL     1      27.072   6.286  48.659  1.00  0.00     0.019 A 
HETATM   17  C13 UNL     1      25.946   6.487  49.411  1.00  0.00     0.013 A 
HETATM   18 BR1  UNL     1      25.200   8.235  49.571  1.00  0.00    -0.051 Br
HETATM   19  C14 UNL     1      25.359   5.427  50.048  1.00  0.00     0.048 A 
ENDBRANCH  11  13
ENDBRANCH   8  11
BRANCH   1  20
HETATM   20  C2  UNL     1      21.382   0.171  52.756  1.00  0.00     0.107 C 
BRANCH  20  21
HETATM   21  C1  UNL     1      20.767   1.500  52.564  1.00  0.00     0.235 C 
HETATM   22  O1  UNL     1      20.135   2.440  53.019  1.00  0.00    -0.307 OA
ENDBRANCH  20  21
ENDBRANCH   1  20
TORSDOF 4
ENDMDL
MODEL 6
REMARK VINA RESULT:      -7.3      3.698      5.078
REMARK  4 active torsions:
REMARK  status: ('A' for Active; 'I' for Inactive)
REMARK    1  A    between atoms: C1_2  and  C2_3 
REMARK    2  A    between atoms: C2_3  and  C3_4 
REMARK    3  A    between atoms: C8_11  and  N3_12 
REMARK    4  A    between atoms: N3_12  and  C9_13 
ROOT
HETATM    1  C3  UNL     1      25.854   0.954  52.775  1.00  0.00    -0.051 A 
HETATM    2  C4  UNL     1      26.198  -0.112  53.577  1.00  0.00     0.010 A 
HETATM    3  C5  UNL     1      25.184  -0.802  54.207  1.00  0.00     0.033 A 
HETATM    4  C6  UNL     1      23.898  -0.400  54.009  1.00  0.00     0.072 A 
HETATM    5  N1  UNL     1      22.929  -1.088  54.636  1.00  0.00    -0.241 NA
HETATM    6  C7  UNL     1      21.622  -0.746  54.487  1.00  0.00     0.236 A 
HETATM    7  N2  UNL     1      21.249   0.283  53.717  1.00  0.00    -0.224 NA
HETATM    8  C8  UNL     1      22.168   0.997  53.074  1.00  0.00     0.142 A 
HETATM    9  C15 UNL     1      23.495   0.661  53.216  1.00  0.00     0.039 A 
HETATM   10  C16 UNL     1      24.537   1.323  52.606  1.00  0.00     0.025 A 
ENDROOT
BRANCH   8  11
HETATM   11  N3  UNL     1      21.822   2.083  52.247  1.00  0.00    -0.340 N 
HETATM   12  H7  UNL     1      21.521   3.013  52.604  1.00  0.00     0.167 HD
BRANCH  11  13
HETATM   13  C9  UNL     1      21.817   2.113  50.832  1.00  0.00     0.035 A 
HETATM   14  C10 UNL     1      21.508   1.039  50.030  1.00  0.00     0.029 A 
HETATM   15  C11 UNL     1      21.517   1.036  48.672  1.00  0.00     0.004 A 
HETATM   16  C12 UNL     1      21.855   2.181  47.978  1.00  0.00     0.019 A 
HETATM   17  C13 UNL     1      22.174   3.294  48.709  1.00  0.00     0.013 A 
HETATM   18 BR1  UNL     1      22.651   4.915  47.825  1.00  0.00    -0.051 Br
HETATM   19  C14 UNL     1      22.149   3.237  50.076  1.00  0.00     0.048 A 
ENDBRANCH  11  13
ENDBRANCH   8  11
BRANCH   1  20
HETATM   20  C2  UNL     1      26.994   1.650  52.126  1.00  0.00     0.107 C 
BRANCH  20  21
HETATM   21  C1  UNL     1      27.984   2.063  53.140  1.00  0.00     0.235 C 
HETATM   22  O1  UNL     1      28.249   2.690  54.154  1.00  0.00    -0.307 OA
ENDBRANCH  20  21
ENDBRANCH   1  20
TORSDOF 4
ENDMDL
MODEL 7
REMARK VINA RESULT:      -7.2      4.034      7.804
REMARK  4 active torsions:
REMARK  status: ('A' for Active; 'I' for Inactive)
REMARK    1  A    between atoms: C1_2  and  C2_3 
REMARK    2  A    between atoms: C2_3  and  C3_4 
REMARK    3  A    between atoms: C8_11  and  N3_12 
REMARK    4  A    between atoms: N3_12  and  C9_13 
ROOT
HETATM    1  C3  UNL     1      28.743   5.724  48.157  1.00  0.00    -0.051 A 
HETATM    2  C4  UNL     1      28.280   6.965  47.779  1.00  0.00     0.010 A 
HETATM    3  C5  UNL     1      26.949   7.254  47.996  1.00  0.00     0.033 A 
HETATM    4  C6  UNL     1      26.160   6.305  48.571  1.00  0.00     0.072 A 
HETATM    5  N1  UNL     1      24.866   6.611  48.770  1.00  0.00    -0.241 NA
HETATM    6  C7  UNL     1      24.017   5.715  49.338  1.00  0.00     0.236 A 
HETATM    7  N2  UNL     1      24.429   4.501  49.719  1.00  0.00    -0.224 NA
HETATM    8  C8  UNL     1      25.699   4.147  49.545  1.00  0.00     0.142 A 
HETATM    9  C15 UNL     1      26.570   5.045  48.970  1.00  0.00     0.039 A 
HETATM   10  C16 UNL     1      27.904   4.797  48.736  1.00  0.00     0.025 A 
ENDROOT
BRANCH   8  11
HETATM   11  N3  UNL     1      26.179   2.882  49.936  1.00  0.00    -0.340 N 
HETATM   12  H7  UNL     1      26.643   2.211  49.291  1.00  0.00     0.167 HD
BRANCH  11  13
HETATM   13  C9  UNL     1      26.122   2.309  51.229  1.00  0.00     0.035 A 
HETATM   14  C10 UNL     1      27.118   2.411  52.172  1.00  0.00     0.029 A 
HETATM   15  C11 UNL     1      27.097   1.853  53.410  1.00  0.00     0.004 A 
HETATM   16  C12 UNL     1      26.008   1.107  53.816  1.00  0.00     0.019 A 
HETATM   17  C13 UNL     1      24.974   0.960  52.930  1.00  0.00     0.013 A 
HETATM   18 BR1  UNL     1      23.434  -0.054  53.415  1.00  0.00    -0.051 Br
HETATM   19  C14 UNL     1      25.052   1.546  51.696  1.00  0.00     0.048 A 
ENDBRANCH  11  13
ENDBRANCH   8  11
BRANCH   1  20
HETATM   20  C2  UNL     1      30.185   5.481  47.897  1.00  0.00     0.107 C 
BRANCH  20  21
HETATM   21  C1  UNL     1      31.011   6.229  48.866  1.00  0.00     0.235 C 
HETATM   22  O1  UNL     1      31.801   6.223  49.797  1.00  0.00    -0.307 OA
ENDBRANCH  20  21
ENDBRANCH   1  20
TORSDOF 4
ENDMDL
MODEL 8
REMARK VINA RESULT:      -7.1      3.224      4.749
REMARK  4 active torsions:
REMARK  status: ('A' for Active; 'I' for Inactive)
REMARK    1  A    between atoms: C1_2  and  C2_3 
REMARK    2  A    between atoms: C2_3  and  C3_4 
REMARK    3  A    between atoms: C8_11  and  N3_12 
REMARK    4  A    between atoms: N3_12  and  C9_13 
ROOT
HETATM    1  C3  UNL     1      25.515  -0.128  54.270  1.00  0.00    -0.051 A 
HETATM    2  C4  UNL     1      25.275  -0.876  55.401  1.00  0.00     0.010 A 
HETATM    3  C5  UNL     1      23.987  -1.312  55.628  1.00  0.00     0.033 A 
HETATM    4  C6  UNL     1      23.019  -0.985  54.728  1.00  0.00     0.072 A 
HETATM    5  N1  UNL     1      21.771  -1.421  54.973  1.00  0.00    -0.241 NA
HETATM    6  C7  UNL     1      20.751  -1.133  54.121  1.00  0.00     0.236 A 
HETATM    7  N2  UNL     1      20.946  -0.410  53.012  1.00  0.00    -0.224 NA
HETATM    8  C8  UNL     1      22.161   0.045  52.723  1.00  0.00     0.142 A 
HETATM    9  C15 UNL     1      23.202  -0.238  53.577  1.00  0.00     0.039 A 
HETATM   10  C16 UNL     1      24.501   0.178  53.388  1.00  0.00     0.025 A 
ENDROOT
BRANCH   8  11
HETATM   11  N3  UNL     1      22.414   0.805  51.563  1.00  0.00    -0.340 N 
HETATM   12  H7  UNL     1      22.371   0.423  50.597  1.00  0.00     0.167 HD
BRANCH  11  13
HETATM   13  C9  UNL     1      22.762   2.175  51.498  1.00  0.00     0.035 A 
HETATM   14  C10 UNL     1      22.051   3.189  52.096  1.00  0.00     0.029 A 
HETATM   15  C11 UNL     1      22.351   4.512  52.031  1.00  0.00     0.004 A 
HETATM   16  C12 UNL     1      23.455   4.939  51.319  1.00  0.00     0.019 A 
HETATM   17  C13 UNL     1      24.214   3.985  50.695  1.00  0.00     0.013 A 
HETATM   18 BR1  UNL     1      25.755   4.493  49.692  1.00  0.00    -0.051 Br
HETATM   19  C14 UNL     1      23.862   2.667  50.796  1.00  0.00     0.048 A 
ENDBRANCH  11  13
ENDBRANCH   8  11
BRANCH   1  20
HETATM   20  C2  UNL     1      26.925   0.306  54.087  1.00  0.00     0.107 C 
BRANCH  20  21
HETATM   21  C1  UNL     1      27.684  -0.725  53.351  1.00  0.00     0.235 C 
HETATM   22  O1  UNL     1      27.917  -1.904  53.137  1.00  0.00    -0.307 OA
ENDBRANCH  20  21
ENDBRANCH   1  20
TORSDOF 4
ENDMDL
MODEL 9
REMARK VINA RESULT:      -7.1      2.791      4.041
REMARK  4 active torsions:
REMARK  status: ('A' for Active; 'I' for Inactive)
REMARK    1  A    between atoms: C1_2  and  C2_3 
REMARK    2  A    between atoms: C2_3  and  C3_4 
REMARK    3  A    between atoms: C8_11  and  N3_12 
REMARK    4  A    between atoms: N3_12  and  C9_13 
ROOT
HETATM    1  C3  UNL     1      25.740   0.165  52.850  1.00  0.00    -0.051 A 
HETATM    2  C4  UNL     1      24.971  -0.497  53.782  1.00  0.00     0.010 A 
HETATM    3  C5  UNL     1      23.614  -0.257  53.790  1.00  0.00     0.033 A 
HETATM    4  C6  UNL     1      23.100   0.618  52.882  1.00  0.00     0.072 A 
HETATM    5  N1  UNL     1      21.773   0.835  52.912  1.00  0.00    -0.241 NA
HETATM    6  C7  UNL     1      21.187   1.695  52.038  1.00  0.00     0.236 A 
HETATM    7  N2  UNL     1      21.900   2.355  51.118  1.00  0.00    -0.224 NA
HETATM    8  C8  UNL     1      23.216   2.176  51.045  1.00  0.00     0.142 A 
HETATM    9  C15 UNL     1      23.822   1.309  51.925  1.00  0.00     0.039 A 
HETATM   10  C16 UNL     1      25.172   1.042  51.951  1.00  0.00     0.025 A 
ENDROOT
BRANCH   8  11
HETATM   11  N3  UNL     1      24.005   2.845  50.089  1.00  0.00    -0.340 N 
HETATM   12  H7  UNL     1      24.328   2.416  49.198  1.00  0.00     0.167 HD
BRANCH  11  13
HETATM   13  C9  UNL     1      24.490   4.173  50.160  1.00  0.00     0.035 A 
HETATM   14  C10 UNL     1      23.942   5.163  50.941  1.00  0.00     0.029 A 
HETATM   15  C11 UNL     1      24.374   6.449  51.010  1.00  0.00     0.004 A 
HETATM   16  C12 UNL     1      25.456   6.858  50.254  1.00  0.00     0.019 A 
HETATM   17  C13 UNL     1      26.056   5.927  49.450  1.00  0.00     0.013 A 
HETATM   18 BR1  UNL     1      27.555   6.413  48.375  1.00  0.00    -0.051 Br
HETATM   19  C14 UNL     1      25.575   4.646  49.422  1.00  0.00     0.048 A 
ENDBRANCH  11  13
ENDBRANCH   8  11
BRANCH   1  20
HETATM   20  C2  UNL     1      27.193  -0.142  52.896  1.00  0.00     0.107 C 
BRANCH  20  21
HETATM   21  C1  UNL     1      27.730   0.133  54.243  1.00  0.00     0.235 C 
HETATM   22  O1  UNL     1      28.308   0.888  55.009  1.00  0.00    -0.307 OA
ENDBRANCH  20  21
ENDBRANCH   1  20
TORSDOF 4
ENDMDL
