MODEL 1
REMARK VINA RESULT:      -9.5      0.000      0.000
REMARK  4 active torsions:
REMARK  status: ('A' for Active; 'I' for Inactive)
REMARK    1  A    between atoms: C3_3  and  C4_4 
REMARK    2  A    between atoms: C4_4  and  C5_5 
REMARK    3  A    between atoms: C9_10  and  C10_11 
REMARK    4  A    between atoms: C14_15  and  C15_16 
ROOT
HETATM    1  C5  UNL     1      28.298   2.320  53.402  1.00  0.00     0.128 C 
HETATM    2  C6  UNL     1      28.578   1.159  54.247  1.00  0.00     0.059 C 
HETATM    3  N1  UNL     1      28.795   0.264  54.919  1.00  0.00    -0.197 NA
ENDROOT
BRANCH   1   4
HETATM    4  C4  UNL     1      27.370   2.043  52.293  1.00  0.00     0.053 C 
BRANCH   4   5
HETATM    5  C3  UNL     1      26.172   1.276  52.637  1.00  0.00    -0.044 A 
HETATM    6  C2  UNL     1      25.737   0.055  52.777  1.00  0.00    -0.043 A 
HETATM    7  C1  UNL     1      26.368  -1.295  52.617  1.00  0.00     0.049 C 
HETATM    8  C9  UNL     1      24.421   0.565  53.147  1.00  0.00    -0.007 A 
HETATM    9  C7  UNL     1      24.840   1.808  53.011  1.00  0.00    -0.043 A 
HETATM   10  C8  UNL     1      24.291   3.200  53.150  1.00  0.00     0.049 C 
BRANCH   8  11
HETATM   11  C10 UNL     1      23.157  -0.092  53.513  1.00  0.00     0.052 A 
HETATM   12  C11 UNL     1      21.965  -0.069  52.978  1.00  0.00    -0.011 A 
HETATM   13  C12 UNL     1      21.440   0.631  51.798  1.00  0.00     0.070 A 
HETATM   14  C22 UNL     1      21.002  -0.884  53.703  1.00  0.00     0.043 A 
HETATM   15  C13 UNL     1      19.994   0.345  51.587  1.00  0.00    -0.010 A 
HETATM   16  C14 UNL     1      19.154  -0.388  52.248  1.00  0.00    -0.027 A 
HETATM   17  C21 UNL     1      19.740  -1.041  53.396  1.00  0.00     0.042 A 
HETATM   18  N2  UNL     1      21.694  -1.478  54.823  1.00  0.00    -0.322 N 
HETATM   19  C23 UNL     1      23.017  -0.981  54.690  1.00  0.00     0.257 A 
HETATM   20  H20 UNL     1      21.288  -2.122  55.546  1.00  0.00     0.169 HD
HETATM   21  O1  UNL     1      23.841  -1.358  55.564  1.00  0.00    -0.267 OA
BRANCH  16  22
HETATM   22  C15 UNL     1      17.763  -0.540  51.875  1.00  0.00    -0.026 A 
HETATM   23  C16 UNL     1      16.894  -1.298  52.628  1.00  0.00     0.012 A 
HETATM   24  C17 UNL     1      15.566  -1.470  52.311  1.00  0.00     0.001 A 
HETATM   25  C18 UNL     1      15.045  -0.872  51.195  1.00  0.00     0.000 A 
HETATM   26  C19 UNL     1      15.877  -0.092  50.395  1.00  0.00     0.001 A 
HETATM   27  C20 UNL     1      17.180   0.034  50.769  1.00  0.00     0.012 A 
ENDBRANCH  16  22
ENDBRANCH   8  11
ENDBRANCH   4   5
ENDBRANCH   1   4
TORSDOF 4
ENDMDL
MODEL 2
REMARK VINA RESULT:      -9.2      3.830      8.995
REMARK  4 active torsions:
REMARK  status: ('A' for Active; 'I' for Inactive)
REMARK    1  A    between atoms: C3_3  and  C4_4 
REMARK    2  A    between atoms: C4_4  and  C5_5 
REMARK    3  A    between atoms: C9_10  and  C10_11 
REMARK    4  A    between atoms: C14_15  and  C15_16 
ROOT
HETATM    1  C5  UNL     1      18.071   0.758  51.030  1.00  0.00     0.128 C 
HETATM    2  C6  UNL     1      17.976   2.151  51.469  1.00  0.00     0.059 C 
HETATM    3  N1  UNL     1      17.885   3.234  51.810  1.00  0.00    -0.197 NA
ENDROOT
BRANCH   1   4
HETATM    4  C4  UNL     1      19.128  -0.012  51.708  1.00  0.00     0.053 C 
BRANCH   4   5
HETATM    5  C3  UNL     1      20.499   0.447  51.481  1.00  0.00    -0.044 A 
HETATM    6  C2  UNL     1      21.318   0.813  50.535  1.00  0.00    -0.043 A 
HETATM    7  C1  UNL     1      21.193   0.938  49.047  1.00  0.00     0.049 C 
HETATM    8  C9  UNL     1      22.363   1.043  51.526  1.00  0.00    -0.007 A 
HETATM    9  C7  UNL     1      21.551   0.675  52.499  1.00  0.00    -0.043 A 
HETATM   10  C8  UNL     1      21.586   0.525  53.995  1.00  0.00     0.049 C 
BRANCH   8  11
HETATM   11  C10 UNL     1      23.758   1.499  51.427  1.00  0.00     0.052 A 
HETATM   12  C11 UNL     1      24.327   2.446  50.729  1.00  0.00    -0.011 A 
HETATM   13  C12 UNL     1      23.778   3.417  49.774  1.00  0.00     0.070 A 
HETATM   14  C22 UNL     1      25.763   2.526  50.949  1.00  0.00     0.043 A 
HETATM   15  C13 UNL     1      24.838   4.307  49.224  1.00  0.00    -0.010 A 
HETATM   16  C14 UNL     1      26.115   4.361  49.436  1.00  0.00    -0.027 A 
HETATM   17  C21 UNL     1      26.583   3.375  50.382  1.00  0.00     0.042 A 
HETATM   18  N2  UNL     1      26.114   1.499  51.901  1.00  0.00    -0.322 N 
HETATM   19  C23 UNL     1      24.870   0.877  52.184  1.00  0.00     0.257 A 
HETATM   20  H20 UNL     1      27.071   1.286  52.277  1.00  0.00     0.169 HD
HETATM   21  O1  UNL     1      24.900  -0.076  53.005  1.00  0.00    -0.267 OA
BRANCH  16  22
HETATM   22  C15 UNL     1      26.991   5.317  48.791  1.00  0.00    -0.026 A 
HETATM   23  C16 UNL     1      26.538   6.554  48.391  1.00  0.00     0.012 A 
HETATM   24  C17 UNL     1      27.336   7.492  47.775  1.00  0.00     0.001 A 
HETATM   25  C18 UNL     1      28.654   7.215  47.530  1.00  0.00     0.000 A 
HETATM   26  C19 UNL     1      29.168   5.978  47.913  1.00  0.00     0.001 A 
HETATM   27  C20 UNL     1      28.322   5.099  48.518  1.00  0.00     0.012 A 
ENDBRANCH  16  22
ENDBRANCH   8  11
ENDBRANCH   4   5
ENDBRANCH   1   4
TORSDOF 4
ENDMDL
MODEL 3
REMARK VINA RESULT:      -9.2      4.938      9.659
REMARK  4 active torsions:
REMARK  status: ('A' for Active; 'I' for Inactive)
REMARK    1  A    between atoms: C3_3  and  C4_4 
REMARK    2  A    between atoms: C4_4  and  C5_5 
REMARK    3  A    between atoms: C9_10  and  C10_11 
REMARK    4  A    between atoms: C14_15  and  C15_16 
ROOT
HETATM    1  C5  UNL     1      21.728  -0.105  53.897  1.00  0.00     0.128 C 
HETATM    2  C6  UNL     1      22.322  -1.014  54.878  1.00  0.00     0.059 C 
HETATM    3  N1  UNL     1      22.769  -1.724  55.649  1.00  0.00    -0.197 NA
ENDROOT
BRANCH   1   4
HETATM    4  C4  UNL     1      22.147  -0.364  52.510  1.00  0.00     0.053 C 
BRANCH   4   5
HETATM    5  C3  UNL     1      22.501   0.814  51.718  1.00  0.00    -0.044 A 
HETATM    6  C2  UNL     1      22.193   1.446  50.620  1.00  0.00    -0.043 A 
HETATM    7  C1  UNL     1      21.196   1.202  49.528  1.00  0.00     0.049 C 
HETATM    8  C9  UNL     1      23.203   2.457  50.916  1.00  0.00    -0.007 A 
HETATM    9  C7  UNL     1      23.531   1.833  52.031  1.00  0.00    -0.043 A 
HETATM   10  C8  UNL     1      24.497   2.002  53.170  1.00  0.00     0.049 C 
BRANCH   8  11
HETATM   11  C10 UNL     1      23.644   3.671  50.213  1.00  0.00     0.052 A 
HETATM   12  C11 UNL     1      24.813   4.059  49.777  1.00  0.00    -0.011 A 
HETATM   13  C12 UNL     1      26.134   3.421  49.828  1.00  0.00     0.070 A 
HETATM   14  C22 UNL     1      24.773   5.366  49.137  1.00  0.00     0.043 A 
HETATM   15  C13 UNL     1      27.180   4.268  49.190  1.00  0.00    -0.010 A 
HETATM   16  C14 UNL     1      27.121   5.431  48.623  1.00  0.00    -0.027 A 
HETATM   17  C21 UNL     1      25.792   5.999  48.614  1.00  0.00     0.042 A 
HETATM   18  N2  UNL     1      23.407   5.833  49.190  1.00  0.00    -0.322 N 
HETATM   19  C23 UNL     1      22.728   4.779  49.855  1.00  0.00     0.257 A 
HETATM   20  H20 UNL     1      23.035   6.741  48.816  1.00  0.00     0.169 HD
HETATM   21  O1  UNL     1      21.492   4.941  50.033  1.00  0.00    -0.267 OA
BRANCH  16  22
HETATM   22  C15 UNL     1      28.271   6.101  48.053  1.00  0.00    -0.026 A 
HETATM   23  C16 UNL     1      28.154   7.314  47.413  1.00  0.00     0.012 A 
HETATM   24  C17 UNL     1      29.221   7.985  46.857  1.00  0.00     0.001 A 
HETATM   25  C18 UNL     1      30.478   7.448  46.923  1.00  0.00     0.000 A 
HETATM   26  C19 UNL     1      30.657   6.221  47.559  1.00  0.00     0.001 A 
HETATM   27  C20 UNL     1      29.557   5.614  48.087  1.00  0.00     0.012 A 
ENDBRANCH  16  22
ENDBRANCH   8  11
ENDBRANCH   4   5
ENDBRANCH   1   4
TORSDOF 4
ENDMDL
MODEL 4
REMARK VINA RESULT:      -9.0      5.213      9.994
REMARK  4 active torsions:
REMARK  status: ('A' for Active; 'I' for Inactive)
REMARK    1  A    between atoms: C3_3  and  C4_4 
REMARK    2  A    between atoms: C4_4  and  C5_5 
REMARK    3  A    between atoms: C9_10  and  C10_11 
REMARK    4  A    between atoms: C14_15  and  C15_16 
ROOT
HETATM    1  C5  UNL     1      23.243  -0.457  53.451  1.00  0.00     0.128 C 
HETATM    2  C6  UNL     1      22.485  -1.217  54.447  1.00  0.00     0.059 C 
HETATM    3  N1  UNL     1      21.906  -1.802  55.235  1.00  0.00    -0.197 NA
ENDROOT
BRANCH   1   4
HETATM    4  C4  UNL     1      22.404   0.200  52.436  1.00  0.00     0.053 C 
BRANCH   4   5
HETATM    5  C3  UNL     1      22.960   1.412  51.833  1.00  0.00    -0.044 A 
HETATM    6  C2  UNL     1      23.736   2.427  52.093  1.00  0.00    -0.043 A 
HETATM    7  C1  UNL     1      24.506   2.860  53.304  1.00  0.00     0.049 C 
HETATM    8  C9  UNL     1      23.535   2.931  50.739  1.00  0.00    -0.007 A 
HETATM    9  C7  UNL     1      22.746   1.912  50.455  1.00  0.00    -0.043 A 
HETATM   10  C8  UNL     1      21.947   1.402  49.288  1.00  0.00     0.049 C 
BRANCH   8  11
HETATM   11  C10 UNL     1      24.033   4.115  50.024  1.00  0.00     0.052 A 
HETATM   12  C11 UNL     1      25.217   4.441  49.579  1.00  0.00    -0.011 A 
HETATM   13  C12 UNL     1      26.505   3.737  49.627  1.00  0.00     0.070 A 
HETATM   14  C22 UNL     1      25.239   5.744  48.930  1.00  0.00     0.043 A 
HETATM   15  C13 UNL     1      27.588   4.526  48.978  1.00  0.00    -0.010 A 
HETATM   16  C14 UNL     1      27.585   5.687  48.403  1.00  0.00    -0.027 A 
HETATM   17  C21 UNL     1      26.286   6.321  48.397  1.00  0.00     0.042 A 
HETATM   18  N2  UNL     1      23.900   6.280  48.988  1.00  0.00    -0.322 N 
HETATM   19  C23 UNL     1      23.172   5.266  49.663  1.00  0.00     0.257 A 
HETATM   20  H20 UNL     1      23.572   7.203  48.610  1.00  0.00     0.169 HD
HETATM   21  O1  UNL     1      21.947   5.492  49.848  1.00  0.00    -0.267 OA
BRANCH  16  22
HETATM   22  C15 UNL     1      28.764   6.294  47.821  1.00  0.00    -0.026 A 
HETATM   23  C16 UNL     1      29.993   5.676  47.875  1.00  0.00     0.012 A 
HETATM   24  C17 UNL     1      31.139   6.217  47.336  1.00  0.00     0.001 A 
HETATM   25  C18 UNL     1      31.093   7.431  46.706  1.00  0.00     0.000 A 
HETATM   26  C19 UNL     1      29.875   8.103  46.621  1.00  0.00     0.001 A 
HETATM   27  C20 UNL     1      28.783   7.509  47.176  1.00  0.00     0.012 A 
ENDBRANCH  16  22
ENDBRANCH   8  11
ENDBRANCH   4   5
ENDBRANCH   1   4
TORSDOF 4
ENDMDL
MODEL 5
REMARK VINA RESULT:      -8.9      2.663      8.443
REMARK  4 active torsions:
REMARK  status: ('A' for Active; 'I' for Inactive)
REMARK    1  A    between atoms: C3_3  and  C4_4 
REMARK    2  A    between atoms: C4_4  and  C5_5 
REMARK    3  A    between atoms: C9_10  and  C10_11 
REMARK    4  A    between atoms: C14_15  and  C15_16 
ROOT
HETATM    1  C5  UNL     1      16.223   3.183  50.655  1.00  0.00     0.128 C 
HETATM    2  C6  UNL     1      16.107   3.926  51.911  1.00  0.00     0.059 C 
HETATM    3  N1  UNL     1      16.007   4.492  52.895  1.00  0.00    -0.197 NA
ENDROOT
BRANCH   1   4
HETATM    4  C4  UNL     1      17.580   3.181  50.085  1.00  0.00     0.053 C 
BRANCH   4   5
HETATM    5  C3  UNL     1      18.602   2.486  50.868  1.00  0.00    -0.044 A 
HETATM    6  C2  UNL     1      19.687   2.695  51.560  1.00  0.00    -0.043 A 
HETATM    7  C1  UNL     1      20.479   3.921  51.900  1.00  0.00     0.049 C 
HETATM    8  C9  UNL     1      19.782   1.268  51.847  1.00  0.00    -0.007 A 
HETATM    9  C7  UNL     1      18.686   1.034  51.151  1.00  0.00    -0.043 A 
HETATM   10  C8  UNL     1      17.830  -0.141  50.765  1.00  0.00     0.049 C 
BRANCH   8  11
HETATM   11  C10 UNL     1      20.743   0.460  52.612  1.00  0.00     0.052 A 
HETATM   12  C11 UNL     1      22.047   0.478  52.684  1.00  0.00    -0.011 A 
HETATM   13  C12 UNL     1      23.049   1.322  52.021  1.00  0.00     0.070 A 
HETATM   14  C22 UNL     1      22.579  -0.535  53.584  1.00  0.00     0.043 A 
HETATM   15  C13 UNL     1      24.434   0.955  52.426  1.00  0.00    -0.010 A 
HETATM   16  C14 UNL     1      24.885   0.047  53.233  1.00  0.00    -0.027 A 
HETATM   17  C21 UNL     1      23.844  -0.746  53.845  1.00  0.00     0.042 A 
HETATM   18  N2  UNL     1      21.457  -1.263  54.129  1.00  0.00    -0.322 N 
HETATM   19  C23 UNL     1      20.337  -0.638  53.521  1.00  0.00     0.257 A 
HETATM   20  H20 UNL     1      21.492  -2.060  54.812  1.00  0.00     0.169 HD
HETATM   21  O1  UNL     1      19.208  -1.098  53.834  1.00  0.00    -0.267 OA
BRANCH  16  22
HETATM   22  C15 UNL     1      26.294  -0.155  53.499  1.00  0.00    -0.026 A 
HETATM   23  C16 UNL     1      27.014  -1.137  52.857  1.00  0.00     0.012 A 
HETATM   24  C17 UNL     1      28.354  -1.364  53.079  1.00  0.00     0.001 A 
HETATM   25  C18 UNL     1      29.039  -0.594  53.980  1.00  0.00     0.000 A 
HETATM   26  C19 UNL     1      28.362   0.415  54.660  1.00  0.00     0.001 A 
HETATM   27  C20 UNL     1      27.037   0.584  54.390  1.00  0.00     0.012 A 
ENDBRANCH  16  22
ENDBRANCH   8  11
ENDBRANCH   4   5
ENDBRANCH   1   4
TORSDOF 4
ENDMDL
MODEL 6
REMARK VINA RESULT:      -8.6      2.632      8.853
REMARK  4 active torsions:
REMARK  status: ('A' for Active; 'I' for Inactive)
REMARK    1  A    between atoms: C3_3  and  C4_4 
REMARK    2  A    between atoms: C4_4  and  C5_5 
REMARK    3  A    between atoms: C9_10  and  C10_11 
REMARK    4  A    between atoms: C14_15  and  C15_16 
ROOT
HETATM    1  C5  UNL     1      16.418  -0.924  52.346  1.00  0.00     0.128 C 
HETATM    2  C6  UNL     1      15.385   0.034  52.743  1.00  0.00     0.059 C 
HETATM    3  N1  UNL     1      14.584   0.776  53.068  1.00  0.00    -0.197 NA
ENDROOT
BRANCH   1   4
HETATM    4  C4  UNL     1      17.275  -0.457  51.245  1.00  0.00     0.053 C 
BRANCH   4   5
HETATM    5  C3  UNL     1      18.589   0.059  51.632  1.00  0.00    -0.044 A 
HETATM    6  C2  UNL     1      19.525  -0.078  52.530  1.00  0.00    -0.043 A 
HETATM    7  C1  UNL     1      19.681  -0.950  53.738  1.00  0.00     0.049 C 
HETATM    8  C9  UNL     1      20.319   0.947  51.862  1.00  0.00    -0.007 A 
HETATM    9  C7  UNL     1      19.385   1.102  50.943  1.00  0.00    -0.043 A 
HETATM   10  C8  UNL     1      19.146   1.935  49.714  1.00  0.00     0.049 C 
BRANCH   8  11
HETATM   11  C10 UNL     1      21.634   1.541  52.146  1.00  0.00     0.052 A 
HETATM   12  C11 UNL     1      22.796   1.014  52.427  1.00  0.00    -0.011 A 
HETATM   13  C12 UNL     1      23.225  -0.384  52.564  1.00  0.00     0.070 A 
HETATM   14  C22 UNL     1      23.833   2.011  52.645  1.00  0.00     0.043 A 
HETATM   15  C13 UNL     1      24.671  -0.485  52.903  1.00  0.00    -0.010 A 
HETATM   16  C14 UNL     1      25.579   0.420  53.092  1.00  0.00    -0.027 A 
HETATM   17  C21 UNL     1      25.084   1.770  52.944  1.00  0.00     0.042 A 
HETATM   18  N2  UNL     1      23.226   3.311  52.478  1.00  0.00    -0.322 N 
HETATM   19  C23 UNL     1      21.875   3.003  52.170  1.00  0.00     0.257 A 
HETATM   20  H20 UNL     1      23.698   4.245  52.566  1.00  0.00     0.169 HD
HETATM   21  O1  UNL     1      21.113   3.985  51.974  1.00  0.00    -0.267 OA
BRANCH  16  22
HETATM   22  C15 UNL     1      26.956   0.114  53.419  1.00  0.00    -0.026 A 
HETATM   23  C16 UNL     1      27.564  -1.037  52.971  1.00  0.00     0.012 A 
HETATM   24  C17 UNL     1      28.870  -1.367  53.258  1.00  0.00     0.001 A 
HETATM   25  C18 UNL     1      29.634  -0.532  54.028  1.00  0.00     0.000 A 
HETATM   26  C19 UNL     1      29.071   0.647  54.510  1.00  0.00     0.001 A 
HETATM   27  C20 UNL     1      27.774   0.910  54.187  1.00  0.00     0.012 A 
ENDBRANCH  16  22
ENDBRANCH   8  11
ENDBRANCH   4   5
ENDBRANCH   1   4
TORSDOF 4
ENDMDL
MODEL 7
REMARK VINA RESULT:      -8.3      5.255      7.254
REMARK  4 active torsions:
REMARK  status: ('A' for Active; 'I' for Inactive)
REMARK    1  A    between atoms: C3_3  and  C4_4 
REMARK    2  A    between atoms: C4_4  and  C5_5 
REMARK    3  A    between atoms: C9_10  and  C10_11 
REMARK    4  A    between atoms: C14_15  and  C15_16 
ROOT
HETATM    1  C5  UNL     1      27.828   8.904  49.380  1.00  0.00     0.128 C 
HETATM    2  C6  UNL     1      29.256   9.224  49.332  1.00  0.00     0.059 C 
HETATM    3  N1  UNL     1      30.369   9.470  49.311  1.00  0.00    -0.197 NA
ENDROOT
BRANCH   1   4
HETATM    4  C4  UNL     1      27.361   8.085  48.250  1.00  0.00     0.053 C 
BRANCH   4   5
HETATM    5  C3  UNL     1      26.305   7.118  48.555  1.00  0.00    -0.044 A 
HETATM    6  C2  UNL     1      25.020   7.028  48.758  1.00  0.00    -0.043 A 
HETATM    7  C1  UNL     1      23.900   8.024  48.773  1.00  0.00     0.049 C 
HETATM    8  C9  UNL     1      25.150   5.587  48.949  1.00  0.00    -0.007 A 
HETATM    9  C7  UNL     1      26.452   5.657  48.748  1.00  0.00    -0.043 A 
HETATM   10  C8  UNL     1      27.633   4.727  48.709  1.00  0.00     0.049 C 
BRANCH   8  11
HETATM   11  C10 UNL     1      24.180   4.524  49.252  1.00  0.00     0.052 A 
HETATM   12  C11 UNL     1      24.081   3.679  50.243  1.00  0.00    -0.011 A 
HETATM   13  C12 UNL     1      24.910   3.475  51.437  1.00  0.00     0.070 A 
HETATM   14  C22 UNL     1      22.940   2.785  50.113  1.00  0.00     0.043 A 
HETATM   15  C13 UNL     1      24.389   2.369  52.287  1.00  0.00    -0.010 A 
HETATM   16  C14 UNL     1      23.367   1.585  52.152  1.00  0.00    -0.027 A 
HETATM   17  C21 UNL     1      22.601   1.841  50.954  1.00  0.00     0.042 A 
HETATM   18  N2  UNL     1      22.258   3.127  48.887  1.00  0.00    -0.322 N 
HETATM   19  C23 UNL     1      23.033   4.198  48.371  1.00  0.00     0.257 A 
HETATM   20  H20 UNL     1      21.394   2.675  48.496  1.00  0.00     0.169 HD
HETATM   21  O1  UNL     1      22.643   4.690  47.280  1.00  0.00    -0.267 OA
BRANCH  16  22
HETATM   22  C15 UNL     1      23.021   0.552  53.106  1.00  0.00    -0.026 A 
HETATM   23  C16 UNL     1      21.711   0.259  53.408  1.00  0.00     0.012 A 
HETATM   24  C17 UNL     1      21.338  -0.714  54.308  1.00  0.00     0.001 A 
HETATM   25  C18 UNL     1      22.293  -1.449  54.958  1.00  0.00     0.000 A 
HETATM   26  C19 UNL     1      23.637  -1.196  54.693  1.00  0.00     0.001 A 
HETATM   27  C20 UNL     1      23.933  -0.219  53.790  1.00  0.00     0.012 A 
ENDBRANCH  16  22
ENDBRANCH   8  11
ENDBRANCH   4   5
ENDBRANCH   1   4
TORSDOF 4
ENDMDL
MODEL 8
REMARK VINA RESULT:      -8.0      5.200      7.601
REMARK  4 active torsions:
REMARK  status: ('A' for Active; 'I' for Inactive)
REMARK    1  A    between atoms: C3_3  and  C4_4 
REMARK    2  A    between atoms: C4_4  and  C5_5 
REMARK    3  A    between atoms: C9_10  and  C10_11 
REMARK    4  A    between atoms: C14_15  and  C15_16 
ROOT
HETATM    1  C5  UNL     1      23.094   9.572  48.246  1.00  0.00     0.128 C 
HETATM    2  C6  UNL     1      21.879   9.016  48.843  1.00  0.00     0.059 C 
HETATM    3  N1  UNL     1      20.924   8.598  49.304  1.00  0.00    -0.197 NA
ENDROOT
BRANCH   1   4
HETATM    4  C4  UNL     1      23.856   8.608  47.435  1.00  0.00     0.053 C 
BRANCH   4   5
HETATM    5  C3  UNL     1      24.120   7.312  48.062  1.00  0.00    -0.044 A 
HETATM    6  C2  UNL     1      23.685   6.084  48.108  1.00  0.00    -0.043 A 
HETATM    7  C1  UNL     1      22.554   5.359  47.443  1.00  0.00     0.049 C 
HETATM    8  C9  UNL     1      24.746   5.742  49.050  1.00  0.00    -0.007 A 
HETATM    9  C7  UNL     1      25.202   6.979  49.019  1.00  0.00    -0.043 A 
HETATM   10  C8  UNL     1      26.312   7.783  49.637  1.00  0.00     0.049 C 
BRANCH   8  11
HETATM   11  C10 UNL     1      25.113   4.495  49.738  1.00  0.00     0.052 A 
HETATM   12  C11 UNL     1      24.452   3.706  50.543  1.00  0.00    -0.011 A 
HETATM   13  C12 UNL     1      23.081   3.772  51.064  1.00  0.00     0.070 A 
HETATM   14  C22 UNL     1      25.241   2.569  50.995  1.00  0.00     0.043 A 
HETATM   15  C13 UNL     1      22.780   2.626  51.967  1.00  0.00    -0.010 A 
HETATM   16  C14 UNL     1      23.499   1.622  52.356  1.00  0.00    -0.027 A 
HETATM   17  C21 UNL     1      24.836   1.625  51.806  1.00  0.00     0.042 A 
HETATM   18  N2  UNL     1      26.547   2.680  50.391  1.00  0.00    -0.322 N 
HETATM   19  C23 UNL     1      26.451   3.869  49.622  1.00  0.00     0.257 A 
HETATM   20  H20 UNL     1      27.356   2.021  50.510  1.00  0.00     0.169 HD
HETATM   21  O1  UNL     1      27.482   4.200  48.980  1.00  0.00    -0.267 OA
BRANCH  16  22
HETATM   22  C15 UNL     1      23.016   0.593  53.253  1.00  0.00    -0.026 A 
HETATM   23  C16 UNL     1      23.880  -0.242  53.925  1.00  0.00     0.012 A 
HETATM   24  C17 UNL     1      23.463  -1.232  54.786  1.00  0.00     0.001 A 
HETATM   25  C18 UNL     1      22.127  -1.428  55.010  1.00  0.00     0.000 A 
HETATM   26  C19 UNL     1      21.205  -0.613  54.357  1.00  0.00     0.001 A 
HETATM   27  C20 UNL     1      21.688   0.347  53.520  1.00  0.00     0.012 A 
ENDBRANCH  16  22
ENDBRANCH   8  11
ENDBRANCH   4   5
ENDBRANCH   1   4
TORSDOF 4
ENDMDL
MODEL 9
REMARK VINA RESULT:      -7.9      5.659     10.766
REMARK  4 active torsions:
REMARK  status: ('A' for Active; 'I' for Inactive)
REMARK    1  A    between atoms: C3_3  and  C4_4 
REMARK    2  A    between atoms: C4_4  and  C5_5 
REMARK    3  A    between atoms: C9_10  and  C10_11 
REMARK    4  A    between atoms: C14_15  and  C15_16 
ROOT
HETATM    1  C5  UNL     1      20.451   0.751  50.925  1.00  0.00     0.128 C 
HETATM    2  C6  UNL     1      20.328   0.805  52.382  1.00  0.00     0.059 C 
HETATM    3  N1  UNL     1      20.218   0.838  53.516  1.00  0.00    -0.197 NA
ENDROOT
BRANCH   1   4
HETATM    4  C4  UNL     1      21.834   0.594  50.447  1.00  0.00     0.053 C 
BRANCH   4   5
HETATM    5  C3  UNL     1      22.582   1.834  50.237  1.00  0.00    -0.044 A 
HETATM    6  C2  UNL     1      23.311   2.715  50.865  1.00  0.00    -0.043 A 
HETATM    7  C1  UNL     1      23.761   2.864  52.287  1.00  0.00     0.049 C 
HETATM    8  C9  UNL     1      23.489   3.457  49.621  1.00  0.00    -0.007 A 
HETATM    9  C7  UNL     1      22.755   2.577  48.967  1.00  0.00    -0.043 A 
HETATM   10  C8  UNL     1      22.261   2.348  47.565  1.00  0.00     0.049 C 
BRANCH   8  11
HETATM   11  C10 UNL     1      24.209   4.694  49.285  1.00  0.00     0.052 A 
HETATM   12  C11 UNL     1      25.468   4.941  49.039  1.00  0.00    -0.011 A 
HETATM   13  C12 UNL     1      26.645   4.064  49.005  1.00  0.00     0.070 A 
HETATM   14  C22 UNL     1      25.725   6.346  48.758  1.00  0.00     0.043 A 
HETATM   15  C13 UNL     1      27.886   4.819  48.676  1.00  0.00    -0.010 A 
HETATM   16  C14 UNL     1      28.091   6.074  48.427  1.00  0.00    -0.027 A 
HETATM   17  C21 UNL     1      26.890   6.875  48.482  1.00  0.00     0.042 A 
HETATM   18  N2  UNL     1      24.464   7.043  48.845  1.00  0.00    -0.322 N 
HETATM   19  C23 UNL     1      23.544   6.013  49.169  1.00  0.00     0.257 A 
HETATM   20  H20 UNL     1      24.298   8.070  48.696  1.00  0.00     0.169 HD
HETATM   21  O1  UNL     1      22.343   6.365  49.306  1.00  0.00    -0.267 OA
BRANCH  16  22
HETATM   22  C15 UNL     1      29.396   6.624  48.123  1.00  0.00    -0.026 A 
HETATM   23  C16 UNL     1      29.584   7.975  47.943  1.00  0.00     0.012 A 
HETATM   24  C17 UNL     1      30.806   8.541  47.653  1.00  0.00     0.001 A 
HETATM   25  C18 UNL     1      31.915   7.748  47.528  1.00  0.00     0.000 A 
HETATM   26  C19 UNL     1      31.785   6.371  47.700  1.00  0.00     0.001 A 
HETATM   27  C20 UNL     1      30.546   5.882  47.985  1.00  0.00     0.012 A 
ENDBRANCH  16  22
ENDBRANCH   8  11
ENDBRANCH   4   5
ENDBRANCH   1   4
TORSDOF 4
ENDMDL
