MODEL 1
REMARK VINA RESULT:      -6.6      0.000      0.000
REMARK  8 active torsions:
REMARK  status: ('A' for Active; 'I' for Inactive)
REMARK    1  A    between atoms: O1_2  and  C2_3 
REMARK    2  A    between atoms: C7_8  and  C8_9 
REMARK    3  A    between atoms: C8_9  and  O2_10 
REMARK    4  A    between atoms: N1_11  and  N2_12 
REMARK    5  A    between atoms: N2_12  and  C9_13 
REMARK    6  A    between atoms: C9_13  and  S1_14 
REMARK    7  A    between atoms: S1_14  and  C10_15 
REMARK    8  A    between atoms: C10_15  and  C11_16 
ROOT
HETATM    1  C8  UNL     1      26.073   1.696  52.615  1.00  0.00     0.187 C 
HETATM    2  N1  UNL     1      25.427   1.962  51.508  1.00  0.00    -0.182 NA
ENDROOT
BRANCH   1   3
HETATM    3  C7  UNL     1      26.867   0.479  52.776  1.00  0.00     0.051 A 
HETATM    4  C2  UNL     1      28.211   0.532  53.094  1.00  0.00     0.082 A 
HETATM    5  C3  UNL     1      28.973  -0.608  53.250  1.00  0.00     0.038 A 
HETATM    6  C4  UNL     1      28.429  -1.855  53.095  1.00  0.00     0.003 A 
HETATM    7  C5  UNL     1      27.098  -1.936  52.780  1.00  0.00     0.001 A 
HETATM    8  C6  UNL     1      26.344  -0.793  52.626  1.00  0.00     0.018 A 
BRANCH   4   9
HETATM    9  O1  UNL     1      28.860   1.739  53.273  1.00  0.00    -0.355 OA
HETATM   10  C1  UNL     1      29.518   2.106  54.467  1.00  0.00     0.210 C 
ENDBRANCH   4   9
ENDBRANCH   1   3
BRANCH   1  11
HETATM   11  O2  UNL     1      26.039   2.561  53.699  1.00  0.00    -0.343 OA
HETATM   12  H8  UNL     1      26.954   2.919  54.011  1.00  0.00     0.219 HD
ENDBRANCH   1  11
BRANCH   2  13
HETATM   13  N2  UNL     1      24.696   3.153  51.454  1.00  0.00    -0.220 NA
BRANCH  13  14
HETATM   14  C9  UNL     1      23.414   3.061  51.344  1.00  0.00     0.348 C 
BRANCH  14  15
HETATM   15  S1  UNL     1      21.737   2.670  50.828  1.00  0.00    -0.139 SA
BRANCH  15  16
HETATM   16  C10 UNL     1      21.558   0.882  50.812  1.00  0.00     0.114 C 
BRANCH  16  17
HETATM   17  C11 UNL     1      21.634   0.371  52.207  1.00  0.00    -0.049 A 
HETATM   18  C12 UNL     1      20.684   0.712  53.145  1.00  0.00     0.008 A 
HETATM   19  C13 UNL     1      20.722   0.254  54.455  1.00  0.00     0.001 A 
HETATM   20  C14 UNL     1      21.742  -0.580  54.867  1.00  0.00     0.000 A 
HETATM   21  C15 UNL     1      22.710  -0.936  53.933  1.00  0.00     0.001 A 
HETATM   22  C16 UNL     1      22.634  -0.460  52.650  1.00  0.00     0.008 A 
ENDBRANCH  16  17
ENDBRANCH  15  16
ENDBRANCH  14  15
ENDBRANCH  13  14
ENDBRANCH   2  13
TORSDOF 8
ENDMDL
MODEL 2
REMARK VINA RESULT:      -6.5      3.705      7.363
REMARK  8 active torsions:
REMARK  status: ('A' for Active; 'I' for Inactive)
REMARK    1  A    between atoms: O1_2  and  C2_3 
REMARK    2  A    between atoms: C7_8  and  C8_9 
REMARK    3  A    between atoms: C8_9  and  O2_10 
REMARK    4  A    between atoms: N1_11  and  N2_12 
REMARK    5  A    between atoms: N2_12  and  C9_13 
REMARK    6  A    between atoms: C9_13  and  S1_14 
REMARK    7  A    between atoms: S1_14  and  C10_15 
REMARK    8  A    between atoms: C10_15  and  C11_16 
ROOT
HETATM    1  C8  UNL     1      20.822  -0.458  53.945  1.00  0.00     0.187 C 
HETATM    2  N1  UNL     1      21.735  -1.396  53.976  1.00  0.00    -0.182 NA
ENDROOT
BRANCH   1   3
HETATM    3  C7  UNL     1      20.096  -0.123  52.721  1.00  0.00     0.051 A 
HETATM    4  C2  UNL     1      18.761  -0.445  52.565  1.00  0.00     0.082 A 
HETATM    5  C3  UNL     1      18.062  -0.135  51.415  1.00  0.00     0.038 A 
HETATM    6  C4  UNL     1      18.665   0.510  50.368  1.00  0.00     0.003 A 
HETATM    7  C5  UNL     1      19.988   0.841  50.498  1.00  0.00     0.001 A 
HETATM    8  C6  UNL     1      20.678   0.528  51.649  1.00  0.00     0.018 A 
BRANCH   4   9
HETATM    9  O1  UNL     1      18.058  -1.097  53.559  1.00  0.00    -0.355 OA
HETATM   10  C1  UNL     1      17.754  -2.475  53.529  1.00  0.00     0.210 C 
ENDBRANCH   4   9
ENDBRANCH   1   3
BRANCH   1  11
HETATM   11  O2  UNL     1      20.494   0.271  55.079  1.00  0.00    -0.343 OA
HETATM   12  H8  UNL     1      20.753  -0.165  55.977  1.00  0.00     0.219 HD
ENDBRANCH   1  11
BRANCH   2  13
HETATM   13  N2  UNL     1      22.373  -1.639  55.197  1.00  0.00    -0.220 NA
BRANCH  13  14
HETATM   14  C9  UNL     1      23.614  -1.300  55.300  1.00  0.00     0.348 C 
BRANCH  14  15
HETATM   15  S1  UNL     1      25.266  -0.649  55.026  1.00  0.00    -0.139 SA
BRANCH  15  16
HETATM   16  C10 UNL     1      25.716  -0.964  53.315  1.00  0.00     0.114 C 
BRANCH  16  17
HETATM   17  C11 UNL     1      25.570   0.294  52.534  1.00  0.00    -0.049 A 
HETATM   18  C12 UNL     1      24.345   0.911  52.396  1.00  0.00     0.008 A 
HETATM   19  C13 UNL     1      24.170   2.084  51.676  1.00  0.00     0.001 A 
HETATM   20  C14 UNL     1      25.249   2.684  51.058  1.00  0.00     0.000 A 
HETATM   21  C15 UNL     1      26.494   2.076  51.186  1.00  0.00     0.001 A 
HETATM   22  C16 UNL     1      26.621   0.917  51.907  1.00  0.00     0.008 A 
ENDBRANCH  16  17
ENDBRANCH  15  16
ENDBRANCH  14  15
ENDBRANCH  13  14
ENDBRANCH   2  13
TORSDOF 8
ENDMDL
MODEL 3
REMARK VINA RESULT:      -6.5      3.078      5.277
REMARK  8 active torsions:
REMARK  status: ('A' for Active; 'I' for Inactive)
REMARK    1  A    between atoms: O1_2  and  C2_3 
REMARK    2  A    between atoms: C7_8  and  C8_9 
REMARK    3  A    between atoms: C8_9  and  O2_10 
REMARK    4  A    between atoms: N1_11  and  N2_12 
REMARK    5  A    between atoms: N2_12  and  C9_13 
REMARK    6  A    between atoms: C9_13  and  S1_14 
REMARK    7  A    between atoms: S1_14  and  C10_15 
REMARK    8  A    between atoms: C10_15  and  C11_16 
ROOT
HETATM    1  C8  UNL     1      26.104   0.712  53.294  1.00  0.00     0.187 C 
HETATM    2  N1  UNL     1      25.307   0.826  52.261  1.00  0.00    -0.182 NA
ENDROOT
BRANCH   1   3
HETATM    3  C7  UNL     1      27.218  -0.235  53.312  1.00  0.00     0.051 A 
HETATM    4  C2  UNL     1      28.435   0.096  53.878  1.00  0.00     0.082 A 
HETATM    5  C3  UNL     1      29.495  -0.788  53.903  1.00  0.00     0.038 A 
HETATM    6  C4  UNL     1      29.389  -2.042  53.364  1.00  0.00     0.003 A 
HETATM    7  C5  UNL     1      28.193  -2.395  52.799  1.00  0.00     0.001 A 
HETATM    8  C6  UNL     1      27.139  -1.507  52.777  1.00  0.00     0.018 A 
BRANCH   4   9
HETATM    9  O1  UNL     1      28.650   1.336  54.448  1.00  0.00    -0.355 OA
HETATM   10  C1  UNL     1      29.082   2.468  53.723  1.00  0.00     0.210 C 
ENDBRANCH   4   9
ENDBRANCH   1   3
BRANCH   1  11
HETATM   11  O2  UNL     1      25.933   1.489  54.430  1.00  0.00    -0.343 OA
HETATM   12  H8  UNL     1      26.707   1.457  55.110  1.00  0.00     0.219 HD
ENDBRANCH   1  11
BRANCH   2  13
HETATM   13  N2  UNL     1      24.271   1.762  52.343  1.00  0.00    -0.220 NA
BRANCH  13  14
HETATM   14  C9  UNL     1      24.077   2.528  51.322  1.00  0.00     0.348 C 
BRANCH  14  15
HETATM   15  S1  UNL     1      24.114   3.312  49.706  1.00  0.00    -0.139 SA
BRANCH  15  16
HETATM   16  C10 UNL     1      24.429   5.066  49.940  1.00  0.00     0.114 C 
BRANCH  16  17
HETATM   17  C11 UNL     1      25.738   5.413  49.325  1.00  0.00    -0.049 A 
HETATM   18  C12 UNL     1      26.009   6.696  48.899  1.00  0.00     0.008 A 
HETATM   19  C13 UNL     1      27.218   7.057  48.321  1.00  0.00     0.001 A 
HETATM   20  C14 UNL     1      28.212   6.115  48.153  1.00  0.00     0.000 A 
HETATM   21  C15 UNL     1      27.958   4.815  48.577  1.00  0.00     0.001 A 
HETATM   22  C16 UNL     1      26.749   4.502  49.142  1.00  0.00     0.008 A 
ENDBRANCH  16  17
ENDBRANCH  15  16
ENDBRANCH  14  15
ENDBRANCH  13  14
ENDBRANCH   2  13
TORSDOF 8
ENDMDL
MODEL 4
REMARK VINA RESULT:      -6.4      2.432      4.123
REMARK  8 active torsions:
REMARK  status: ('A' for Active; 'I' for Inactive)
REMARK    1  A    between atoms: O1_2  and  C2_3 
REMARK    2  A    between atoms: C7_8  and  C8_9 
REMARK    3  A    between atoms: C8_9  and  O2_10 
REMARK    4  A    between atoms: N1_11  and  N2_12 
REMARK    5  A    between atoms: N2_12  and  C9_13 
REMARK    6  A    between atoms: C9_13  and  S1_14 
REMARK    7  A    between atoms: S1_14  and  C10_15 
REMARK    8  A    between atoms: C10_15  and  C11_16 
ROOT
HETATM    1  C8  UNL     1      26.649   2.301  51.636  1.00  0.00     0.187 C 
HETATM    2  N1  UNL     1      26.210   2.636  50.449  1.00  0.00    -0.182 NA
ENDROOT
BRANCH   1   3
HETATM    3  C7  UNL     1      25.972   1.299  52.458  1.00  0.00     0.051 A 
HETATM    4  C2  UNL     1      26.685   0.383  53.209  1.00  0.00     0.082 A 
HETATM    5  C3  UNL     1      26.061  -0.569  53.989  1.00  0.00     0.038 A 
HETATM    6  C4  UNL     1      24.695  -0.650  54.057  1.00  0.00     0.003 A 
HETATM    7  C5  UNL     1      23.966   0.247  53.323  1.00  0.00     0.001 A 
HETATM    8  C6  UNL     1      24.596   1.194  52.546  1.00  0.00     0.018 A 
BRANCH   4   9
HETATM    9  O1  UNL     1      28.067   0.376  53.212  1.00  0.00    -0.355 OA
HETATM   10  C1  UNL     1      28.846   0.102  54.358  1.00  0.00     0.210 C 
ENDBRANCH   4   9
ENDBRANCH   1   3
BRANCH   1  11
HETATM   11  O2  UNL     1      27.786   2.881  52.178  1.00  0.00    -0.343 OA
HETATM   12  H8  UNL     1      28.163   2.419  53.019  1.00  0.00     0.219 HD
ENDBRANCH   1  11
BRANCH   2  13
HETATM   13  N2  UNL     1      26.929   3.606  49.742  1.00  0.00    -0.220 NA
BRANCH  13  14
HETATM   14  C9  UNL     1      26.278   4.632  49.307  1.00  0.00     0.348 C 
BRANCH  14  15
HETATM   15  S1  UNL     1      25.020   5.851  48.911  1.00  0.00    -0.139 SA
BRANCH  15  16
HETATM   16  C10 UNL     1      23.518   5.416  49.797  1.00  0.00     0.114 C 
BRANCH  16  17
HETATM   17  C11 UNL     1      22.996   4.127  49.269  1.00  0.00    -0.049 A 
HETATM   18  C12 UNL     1      22.732   3.066  50.109  1.00  0.00     0.008 A 
HETATM   19  C13 UNL     1      22.244   1.849  49.654  1.00  0.00     0.001 A 
HETATM   20  C14 UNL     1      22.003   1.661  48.308  1.00  0.00     0.000 A 
HETATM   21  C15 UNL     1      22.262   2.721  47.445  1.00  0.00     0.001 A 
HETATM   22  C16 UNL     1      22.744   3.905  47.938  1.00  0.00     0.008 A 
ENDBRANCH  16  17
ENDBRANCH  15  16
ENDBRANCH  14  15
ENDBRANCH  13  14
ENDBRANCH   2  13
TORSDOF 8
ENDMDL
MODEL 5
REMARK VINA RESULT:      -6.4      3.295      5.825
REMARK  8 active torsions:
REMARK  status: ('A' for Active; 'I' for Inactive)
REMARK    1  A    between atoms: O1_2  and  C2_3 
REMARK    2  A    between atoms: C7_8  and  C8_9 
REMARK    3  A    between atoms: C8_9  and  O2_10 
REMARK    4  A    between atoms: N1_11  and  N2_12 
REMARK    5  A    between atoms: N2_12  and  C9_13 
REMARK    6  A    between atoms: C9_13  and  S1_14 
REMARK    7  A    between atoms: S1_14  and  C10_15 
REMARK    8  A    between atoms: C10_15  and  C11_16 
ROOT
HETATM    1  C8  UNL     1      23.854   2.312  52.223  1.00  0.00     0.187 C 
HETATM    2  N1  UNL     1      23.990   3.487  52.784  1.00  0.00    -0.182 NA
ENDROOT
BRANCH   1   3
HETATM    3  C7  UNL     1      24.851   1.256  52.384  1.00  0.00     0.051 A 
HETATM    4  C2  UNL     1      24.569   0.100  53.089  1.00  0.00     0.082 A 
HETATM    5  C3  UNL     1      25.500  -0.906  53.250  1.00  0.00     0.038 A 
HETATM    6  C4  UNL     1      26.757  -0.805  52.715  1.00  0.00     0.003 A 
HETATM    7  C5  UNL     1      27.062   0.330  52.011  1.00  0.00     0.001 A 
HETATM    8  C6  UNL     1      26.127   1.330  51.856  1.00  0.00     0.018 A 
BRANCH   4   9
HETATM    9  O1  UNL     1      23.332  -0.104  53.670  1.00  0.00    -0.355 OA
HETATM   10  C1  UNL     1      22.386  -1.036  53.192  1.00  0.00     0.210 C 
ENDBRANCH   4   9
ENDBRANCH   1   3
BRANCH   1  11
HETATM   11  O2  UNL     1      22.749   2.007  51.442  1.00  0.00    -0.343 OA
HETATM   12  H8  UNL     1      22.598   2.620  50.628  1.00  0.00     0.219 HD
ENDBRANCH   1  11
BRANCH   2  13
HETATM   13  N2  UNL     1      22.979   4.429  52.569  1.00  0.00    -0.220 NA
BRANCH  13  14
HETATM   14  C9  UNL     1      23.309   5.536  51.993  1.00  0.00     0.348 C 
BRANCH  14  15
HETATM   15  S1  UNL     1      23.624   6.857  50.816  1.00  0.00    -0.139 SA
BRANCH  15  16
HETATM   16  C10 UNL     1      23.814   6.122  49.187  1.00  0.00     0.114 C 
BRANCH  16  17
HETATM   17  C11 UNL     1      25.229   5.700  49.005  1.00  0.00    -0.049 A 
HETATM   18  C12 UNL     1      25.648   4.435  49.356  1.00  0.00     0.008 A 
HETATM   19  C13 UNL     1      26.958   4.005  49.200  1.00  0.00     0.001 A 
HETATM   20  C14 UNL     1      27.907   4.858  48.673  1.00  0.00     0.000 A 
HETATM   21  C15 UNL     1      27.503   6.139  48.312  1.00  0.00     0.001 A 
HETATM   22  C16 UNL     1      26.199   6.521  48.484  1.00  0.00     0.008 A 
ENDBRANCH  16  17
ENDBRANCH  15  16
ENDBRANCH  14  15
ENDBRANCH  13  14
ENDBRANCH   2  13
TORSDOF 8
ENDMDL
MODEL 6
REMARK VINA RESULT:      -6.4      3.195      5.268
REMARK  8 active torsions:
REMARK  status: ('A' for Active; 'I' for Inactive)
REMARK    1  A    between atoms: O1_2  and  C2_3 
REMARK    2  A    between atoms: C7_8  and  C8_9 
REMARK    3  A    between atoms: C8_9  and  O2_10 
REMARK    4  A    between atoms: N1_11  and  N2_12 
REMARK    5  A    between atoms: N2_12  and  C9_13 
REMARK    6  A    between atoms: C9_13  and  S1_14 
REMARK    7  A    between atoms: S1_14  and  C10_15 
REMARK    8  A    between atoms: C10_15  and  C11_16 
ROOT
HETATM    1  C8  UNL     1      26.449   2.595  51.129  1.00  0.00     0.187 C 
HETATM    2  N1  UNL     1      26.203   3.067  49.933  1.00  0.00    -0.182 NA
ENDROOT
BRANCH   1   3
HETATM    3  C7  UNL     1      25.515   1.708  51.820  1.00  0.00     0.051 A 
HETATM    4  C2  UNL     1      25.942   0.537  52.418  1.00  0.00     0.082 A 
HETATM    5  C3  UNL     1      25.072  -0.310  53.074  1.00  0.00     0.038 A 
HETATM    6  C4  UNL     1      23.735  -0.027  53.164  1.00  0.00     0.003 A 
HETATM    7  C5  UNL     1      23.287   1.128  52.580  1.00  0.00     0.001 A 
HETATM    8  C6  UNL     1      24.161   1.968  51.927  1.00  0.00     0.018 A 
BRANCH   4   9
HETATM    9  O1  UNL     1      27.270   0.157  52.386  1.00  0.00    -0.355 OA
HETATM   10  C1  UNL     1      27.797  -0.913  53.142  1.00  0.00     0.210 C 
ENDBRANCH   4   9
ENDBRANCH   1   3
BRANCH   1  11
HETATM   11  O2  UNL     1      27.617   2.914  51.806  1.00  0.00    -0.343 OA
HETATM   12  H8  UNL     1      28.189   2.110  52.106  1.00  0.00     0.219 HD
ENDBRANCH   1  11
BRANCH   2  13
HETATM   13  N2  UNL     1      27.161   3.908  49.358  1.00  0.00    -0.220 NA
BRANCH  13  14
HETATM   14  C9  UNL     1      26.759   5.050  48.910  1.00  0.00     0.348 C 
BRANCH  14  15
HETATM   15  S1  UNL     1      26.178   6.741  48.733  1.00  0.00    -0.139 SA
BRANCH  15  16
HETATM   16  C10 UNL     1      25.705   7.344  50.359  1.00  0.00     0.114 C 
BRANCH  16  17
HETATM   17  C11 UNL     1      24.306   6.927  50.646  1.00  0.00    -0.049 A 
HETATM   18  C12 UNL     1      23.241   7.752  50.354  1.00  0.00     0.008 A 
HETATM   19  C13 UNL     1      21.923   7.397  50.607  1.00  0.00     0.001 A 
HETATM   20  C14 UNL     1      21.634   6.172  51.174  1.00  0.00     0.000 A 
HETATM   21  C15 UNL     1      22.695   5.325  51.475  1.00  0.00     0.001 A 
HETATM   22  C16 UNL     1      23.981   5.717  51.209  1.00  0.00     0.008 A 
ENDBRANCH  16  17
ENDBRANCH  15  16
ENDBRANCH  14  15
ENDBRANCH  13  14
ENDBRANCH   2  13
TORSDOF 8
ENDMDL
MODEL 7
REMARK VINA RESULT:      -6.1      2.088      2.971
REMARK  8 active torsions:
REMARK  status: ('A' for Active; 'I' for Inactive)
REMARK    1  A    between atoms: O1_2  and  C2_3 
REMARK    2  A    between atoms: C7_8  and  C8_9 
REMARK    3  A    between atoms: C8_9  and  O2_10 
REMARK    4  A    between atoms: N1_11  and  N2_12 
REMARK    5  A    between atoms: N2_12  and  C9_13 
REMARK    6  A    between atoms: C9_13  and  S1_14 
REMARK    7  A    between atoms: S1_14  and  C10_15 
REMARK    8  A    between atoms: C10_15  and  C11_16 
ROOT
HETATM    1  C8  UNL     1      25.918   2.690  51.758  1.00  0.00     0.187 C 
HETATM    2  N1  UNL     1      24.888   3.348  51.288  1.00  0.00    -0.182 NA
ENDROOT
BRANCH   1   3
HETATM    3  C7  UNL     1      25.768   1.591  52.710  1.00  0.00     0.051 A 
HETATM    4  C2  UNL     1      26.624   1.447  53.785  1.00  0.00     0.082 A 
HETATM    5  C3  UNL     1      26.495   0.414  54.692  1.00  0.00     0.038 A 
HETATM    6  C4  UNL     1      25.504  -0.524  54.566  1.00  0.00     0.003 A 
HETATM    7  C5  UNL     1      24.642  -0.403  53.509  1.00  0.00     0.001 A 
HETATM    8  C6  UNL     1      24.778   0.631  52.608  1.00  0.00     0.018 A 
BRANCH   4   9
HETATM    9  O1  UNL     1      27.658   2.337  54.005  1.00  0.00    -0.355 OA
HETATM   10  C1  UNL     1      29.007   1.949  54.158  1.00  0.00     0.210 C 
ENDBRANCH   4   9
ENDBRANCH   1   3
BRANCH   1  11
HETATM   11  O2  UNL     1      27.214   3.005  51.375  1.00  0.00    -0.343 OA
HETATM   12  H8  UNL     1      27.351   3.962  51.018  1.00  0.00     0.219 HD
ENDBRANCH   1  11
BRANCH   2  13
HETATM   13  N2  UNL     1      25.139   4.384  50.383  1.00  0.00    -0.220 NA
BRANCH  13  14
HETATM   14  C9  UNL     1      24.314   4.530  49.401  1.00  0.00     0.348 C 
BRANCH  14  15
HETATM   15  S1  UNL     1      22.853   4.665  48.364  1.00  0.00    -0.139 SA
BRANCH  15  16
HETATM   16  C10 UNL     1      21.403   4.524  49.416  1.00  0.00     0.114 C 
BRANCH  16  17
HETATM   17  C11 UNL     1      21.401   3.186  50.066  1.00  0.00    -0.049 A 
HETATM   18  C12 UNL     1      21.506   2.030  49.322  1.00  0.00     0.008 A 
HETATM   19  C13 UNL     1      21.508   0.765  49.893  1.00  0.00     0.001 A 
HETATM   20  C14 UNL     1      21.401   0.624  51.262  1.00  0.00     0.000 A 
HETATM   21  C15 UNL     1      21.295   1.779  52.030  1.00  0.00     0.001 A 
HETATM   22  C16 UNL     1      21.296   3.008  51.424  1.00  0.00     0.008 A 
ENDBRANCH  16  17
ENDBRANCH  15  16
ENDBRANCH  14  15
ENDBRANCH  13  14
ENDBRANCH   2  13
TORSDOF 8
ENDMDL
MODEL 8
REMARK VINA RESULT:      -6.1      1.429      2.315
REMARK  8 active torsions:
REMARK  status: ('A' for Active; 'I' for Inactive)
REMARK    1  A    between atoms: O1_2  and  C2_3 
REMARK    2  A    between atoms: C7_8  and  C8_9 
REMARK    3  A    between atoms: C8_9  and  O2_10 
REMARK    4  A    between atoms: N1_11  and  N2_12 
REMARK    5  A    between atoms: N2_12  and  C9_13 
REMARK    6  A    between atoms: C9_13  and  S1_14 
REMARK    7  A    between atoms: S1_14  and  C10_15 
REMARK    8  A    between atoms: C10_15  and  C11_16 
ROOT
HETATM    1  C8  UNL     1      26.903   1.920  52.790  1.00  0.00     0.187 C 
HETATM    2  N1  UNL     1      26.471   2.229  51.594  1.00  0.00    -0.182 NA
ENDROOT
BRANCH   1   3
HETATM    3  C7  UNL     1      27.759   0.759  53.029  1.00  0.00     0.051 A 
HETATM    4  C2  UNL     1      27.256  -0.528  52.985  1.00  0.00     0.082 A 
HETATM    5  C3  UNL     1      28.052  -1.634  53.208  1.00  0.00     0.038 A 
HETATM    6  C4  UNL     1      29.387  -1.505  53.487  1.00  0.00     0.003 A 
HETATM    7  C5  UNL     1      29.910  -0.241  53.536  1.00  0.00     0.001 A 
HETATM    8  C6  UNL     1      29.109   0.858  53.312  1.00  0.00     0.018 A 
BRANCH   4   9
HETATM    9  O1  UNL     1      25.923  -0.770  52.713  1.00  0.00    -0.355 OA
HETATM   10  C1  UNL     1      24.920  -0.831  53.704  1.00  0.00     0.210 C 
ENDBRANCH   4   9
ENDBRANCH   1   3
BRANCH   1  11
HETATM   11  O2  UNL     1      26.569   2.682  53.900  1.00  0.00    -0.343 OA
HETATM   12  H8  UNL     1      27.075   2.449  54.767  1.00  0.00     0.219 HD
ENDBRANCH   1  11
BRANCH   2  13
HETATM   13  N2  UNL     1      25.657   3.360  51.471  1.00  0.00    -0.220 NA
BRANCH  13  14
HETATM   14  C9  UNL     1      24.381   3.174  51.426  1.00  0.00     0.348 C 
BRANCH  14  15
HETATM   15  S1  UNL     1      22.679   2.709  51.767  1.00  0.00    -0.139 SA
BRANCH  15  16
HETATM   16  C10 UNL     1      22.416   1.044  51.144  1.00  0.00     0.114 C 
BRANCH  16  17
HETATM   17  C11 UNL     1      21.255   0.437  51.848  1.00  0.00    -0.049 A 
HETATM   18  C12 UNL     1      19.979   0.534  51.336  1.00  0.00     0.008 A 
HETATM   19  C13 UNL     1      18.872  -0.020  51.964  1.00  0.00     0.001 A 
HETATM   20  C14 UNL     1      19.022  -0.703  53.154  1.00  0.00     0.000 A 
HETATM   21  C15 UNL     1      20.302  -0.811  53.686  1.00  0.00     0.001 A 
HETATM   22  C16 UNL     1      21.367  -0.248  53.033  1.00  0.00     0.008 A 
ENDBRANCH  16  17
ENDBRANCH  15  16
ENDBRANCH  14  15
ENDBRANCH  13  14
ENDBRANCH   2  13
TORSDOF 8
ENDMDL
MODEL 9
REMARK VINA RESULT:      -6.0      1.954      2.653
REMARK  8 active torsions:
REMARK  status: ('A' for Active; 'I' for Inactive)
REMARK    1  A    between atoms: O1_2  and  C2_3 
REMARK    2  A    between atoms: C7_8  and  C8_9 
REMARK    3  A    between atoms: C8_9  and  O2_10 
REMARK    4  A    between atoms: N1_11  and  N2_12 
REMARK    5  A    between atoms: N2_12  and  C9_13 
REMARK    6  A    between atoms: C9_13  and  S1_14 
REMARK    7  A    between atoms: S1_14  and  C10_15 
REMARK    8  A    between atoms: C10_15  and  C11_16 
ROOT
HETATM    1  C8  UNL     1      24.605   2.664  52.286  1.00  0.00     0.187 C 
HETATM    2  N1  UNL     1      24.383   2.542  51.002  1.00  0.00    -0.182 NA
ENDROOT
BRANCH   1   3
HETATM    3  C7  UNL     1      24.901   1.510  53.134  1.00  0.00     0.051 A 
HETATM    4  C2  UNL     1      26.056   1.450  53.891  1.00  0.00     0.082 A 
HETATM    5  C3  UNL     1      26.349   0.368  54.696  1.00  0.00     0.038 A 
HETATM    6  C4  UNL     1      25.501  -0.705  54.783  1.00  0.00     0.003 A 
HETATM    7  C5  UNL     1      24.349  -0.669  54.044  1.00  0.00     0.001 A 
HETATM    8  C6  UNL     1      24.064   0.414  53.242  1.00  0.00     0.018 A 
BRANCH   4   9
HETATM    9  O1  UNL     1      26.979   2.478  53.876  1.00  0.00    -0.355 OA
HETATM   10  C1  UNL     1      28.334   2.309  53.516  1.00  0.00     0.210 C 
ENDBRANCH   4   9
ENDBRANCH   1   3
BRANCH   1  11
HETATM   11  O2  UNL     1      24.572   3.901  52.912  1.00  0.00    -0.343 OA
HETATM   12  H8  UNL     1      23.773   4.503  52.663  1.00  0.00     0.219 HD
ENDBRANCH   1  11
BRANCH   2  13
HETATM   13  N2  UNL     1      24.109   3.707  50.278  1.00  0.00    -0.220 NA
BRANCH  13  14
HETATM   14  C9  UNL     1      22.955   3.797  49.707  1.00  0.00     0.348 C 
BRANCH  14  15
HETATM   15  S1  UNL     1      21.333   3.472  49.006  1.00  0.00    -0.139 SA
BRANCH  15  16
HETATM   16  C10 UNL     1      21.172   1.699  48.762  1.00  0.00     0.114 C 
BRANCH  16  17
HETATM   17  C11 UNL     1      20.497   1.103  49.946  1.00  0.00    -0.049 A 
HETATM   18  C12 UNL     1      19.133   0.903  49.965  1.00  0.00     0.008 A 
HETATM   19  C13 UNL     1      18.468   0.349  51.050  1.00  0.00     0.001 A 
HETATM   20  C14 UNL     1      19.175  -0.029  52.174  1.00  0.00     0.000 A 
HETATM   21  C15 UNL     1      20.553   0.164  52.173  1.00  0.00     0.001 A 
HETATM   22  C16 UNL     1      21.168   0.715  51.079  1.00  0.00     0.008 A 
ENDBRANCH  16  17
ENDBRANCH  15  16
ENDBRANCH  14  15
ENDBRANCH  13  14
ENDBRANCH   2  13
TORSDOF 8
ENDMDL
