MODEL 1
REMARK VINA RESULT:      -7.9      0.000      0.000
REMARK  6 active torsions:
REMARK  status: ('A' for Active; 'I' for Inactive)
REMARK    1  A    between atoms: C2_2  and  C3_3 
REMARK       I    between atoms: C3_3  and  N1_5 
REMARK    2  A    between atoms: N1_5  and  C4_6 
REMARK    3  A    between atoms: C4_6  and  C6_8 
REMARK    4  A    between atoms: C7_9  and  C8_10 
REMARK    5  A    between atoms: C8_10  and  O2_11 
REMARK    6  A    between atoms: O2_11  and  C9_12 
ROOT
HETATM    1  C9  UNL     1      26.196   2.556  51.651  1.00  0.00     0.188 C 
HETATM    2  N2  UNL     1      24.948   2.794  51.426  1.00  0.00    -0.245 NA
HETATM    3  C10 UNL     1      23.819   2.252  52.150  1.00  0.00     0.272 C 
HETATM    4  N3  UNL     1      23.645   0.850  51.992  1.00  0.00    -0.381 N 
HETATM    5  C11 UNL     1      23.007   0.012  52.981  1.00  0.00     0.084 C 
HETATM    6  C12 UNL     1      23.371  -0.624  54.111  1.00  0.00     0.018 C 
HETATM    7  C13 UNL     1      24.511  -0.847  54.961  1.00  0.00     0.018 C 
HETATM    8  C14 UNL     1      25.782  -0.621  55.194  1.00  0.00     0.086 C 
HETATM    9  N4  UNL     1      26.822   0.128  54.538  1.00  0.00    -0.383 N 
HETATM   10  C15 UNL     1      28.184   0.272  54.764  1.00  0.00     0.144 C 
HETATM   11  C16 UNL     1      28.921   0.805  53.560  1.00  0.00     0.169 C 
HETATM   12  N5  UNL     1      28.171   1.766  52.777  1.00  0.00    -0.286 NA
HETATM   13  C17 UNL     1      26.925   1.734  52.617  1.00  0.00     0.099 C 
HETATM   14  C18 UNL     1      26.204   0.809  53.466  1.00  0.00     0.185 C 
HETATM   15  H15 UNL     1      24.028   0.493  51.088  1.00  0.00     0.160 HD
ENDROOT
BRANCH   1  16
HETATM   16  O2  UNL     1      26.939   3.278  50.729  1.00  0.00    -0.329 OA
BRANCH  16  17
HETATM   17  C8  UNL     1      26.529   3.447  49.387  1.00  0.00     0.204 C 
BRANCH  17  18
HETATM   18  C7  UNL     1      27.364   4.556  48.847  1.00  0.00    -0.002 C 
HETATM   19  C6  UNL     1      27.392   5.834  48.490  1.00  0.00    -0.004 C 
BRANCH  19  20
HETATM   20  C4  UNL     1      28.462   6.714  47.946  1.00  0.00     0.103 C 
HETATM   21  C5  UNL     1      27.860   8.095  47.784  1.00  0.00     0.036 C 
BRANCH  20  22
HETATM   22  N1  UNL     1      29.567   6.736  48.888  1.00  0.00    -0.350 N 
HETATM   23  C3  UNL     1      30.764   5.981  48.722  1.00  0.00     0.240 C 
HETATM   24  O1  UNL     1      30.995   5.221  47.752  1.00  0.00    -0.269 OA
HETATM   25  H4  UNL     1      29.413   7.360  49.713  1.00  0.00     0.163 HD
BRANCH  23  26
HETATM   26  C2  UNL     1      31.824   6.063  49.718  1.00  0.00     0.064 C 
HETATM   27  C1  UNL     1      31.951   7.339  49.415  1.00  0.00     0.017 C 
ENDBRANCH  23  26
ENDBRANCH  20  22
ENDBRANCH  19  20
ENDBRANCH  17  18
ENDBRANCH  16  17
ENDBRANCH   1  16
TORSDOF 6
ENDMDL
MODEL 2
REMARK VINA RESULT:      -7.8      2.108      8.639
REMARK  6 active torsions:
REMARK  status: ('A' for Active; 'I' for Inactive)
REMARK    1  A    between atoms: C2_2  and  C3_3 
REMARK       I    between atoms: C3_3  and  N1_5 
REMARK    2  A    between atoms: N1_5  and  C4_6 
REMARK    3  A    between atoms: C4_6  and  C6_8 
REMARK    4  A    between atoms: C7_9  and  C8_10 
REMARK    5  A    between atoms: C8_10  and  O2_11 
REMARK    6  A    between atoms: O2_11  and  C9_12 
ROOT
HETATM    1  C9  UNL     1      28.527   5.781  48.463  1.00  0.00     0.188 C 
HETATM    2  N2  UNL     1      27.679   6.732  48.668  1.00  0.00    -0.245 NA
HETATM    3  C10 UNL     1      27.928   8.152  48.561  1.00  0.00     0.272 C 
HETATM    4  N3  UNL     1      28.827   8.661  49.537  1.00  0.00    -0.381 N 
HETATM    5  C11 UNL     1      29.647   9.832  49.328  1.00  0.00     0.084 C 
HETATM    6  C12 UNL     1      30.835  10.111  48.754  1.00  0.00     0.018 C 
HETATM    7  C13 UNL     1      31.924   9.479  48.058  1.00  0.00     0.018 C 
HETATM    8  C14 UNL     1      32.438   8.374  47.571  1.00  0.00     0.086 C 
HETATM    9  N4  UNL     1      32.026   6.996  47.513  1.00  0.00    -0.383 N 
HETATM   10  C15 UNL     1      32.639   5.833  47.069  1.00  0.00     0.144 C 
HETATM   11  C16 UNL     1      31.989   4.586  47.615  1.00  0.00     0.169 C 
HETATM   12  N5  UNL     1      30.552   4.680  47.771  1.00  0.00    -0.286 NA
HETATM   13  C17 UNL     1      29.939   5.731  48.082  1.00  0.00     0.099 C 
HETATM   14  C18 UNL     1      30.719   6.950  48.048  1.00  0.00     0.185 C 
HETATM   15  H15 UNL     1      28.832   8.098  50.416  1.00  0.00     0.160 HD
ENDROOT
BRANCH   1  16
HETATM   16  O2  UNL     1      27.874   4.576  48.673  1.00  0.00    -0.329 OA
BRANCH  16  17
HETATM   17  C8  UNL     1      26.491   4.499  48.958  1.00  0.00     0.204 C 
BRANCH  17  18
HETATM   18  C7  UNL     1      26.384   3.745  50.237  1.00  0.00    -0.002 C 
HETATM   19  C6  UNL     1      26.492   2.560  50.823  1.00  0.00    -0.004 C 
BRANCH  19  20
HETATM   20  C4  UNL     1      26.305   2.098  52.226  1.00  0.00     0.103 C 
HETATM   21  C5  UNL     1      24.982   1.363  52.279  1.00  0.00     0.036 C 
BRANCH  20  22
HETATM   22  N1  UNL     1      27.406   1.216  52.574  1.00  0.00    -0.350 N 
HETATM   23  C3  UNL     1      28.434   1.559  53.499  1.00  0.00     0.240 C 
HETATM   24  O1  UNL     1      28.503   2.652  54.109  1.00  0.00    -0.269 OA
HETATM   25  H4  UNL     1      27.384   0.293  52.083  1.00  0.00     0.163 HD
BRANCH  23  26
HETATM   26  C2  UNL     1      29.502   0.611  53.789  1.00  0.00     0.064 C 
HETATM   27  C1  UNL     1      28.659  -0.032  54.571  1.00  0.00     0.017 C 
ENDBRANCH  23  26
ENDBRANCH  20  22
ENDBRANCH  19  20
ENDBRANCH  17  18
ENDBRANCH  16  17
ENDBRANCH   1  16
TORSDOF 6
ENDMDL
MODEL 3
REMARK VINA RESULT:      -7.3      1.979      3.668
REMARK  6 active torsions:
REMARK  status: ('A' for Active; 'I' for Inactive)
REMARK    1  A    between atoms: C2_2  and  C3_3 
REMARK       I    between atoms: C3_3  and  N1_5 
REMARK    2  A    between atoms: N1_5  and  C4_6 
REMARK    3  A    between atoms: C4_6  and  C6_8 
REMARK    4  A    between atoms: C7_9  and  C8_10 
REMARK    5  A    between atoms: C8_10  and  O2_11 
REMARK    6  A    between atoms: O2_11  and  C9_12 
ROOT
HETATM    1  C9  UNL     1      24.634   3.033  51.290  1.00  0.00     0.188 C 
HETATM    2  N2  UNL     1      25.917   3.111  51.169  1.00  0.00    -0.245 NA
HETATM    3  C10 UNL     1      26.898   2.230  51.763  1.00  0.00     0.272 C 
HETATM    4  N3  UNL     1      26.963   2.302  53.181  1.00  0.00    -0.381 N 
HETATM    5  C11 UNL     1      27.400   1.205  54.013  1.00  0.00     0.084 C 
HETATM    6  C12 UNL     1      26.848   0.101  54.554  1.00  0.00     0.018 C 
HETATM    7  C13 UNL     1      25.599  -0.610  54.633  1.00  0.00     0.018 C 
HETATM    8  C14 UNL     1      24.335  -0.672  54.289  1.00  0.00     0.086 C 
HETATM    9  N4  UNL     1      23.452   0.140  53.493  1.00  0.00    -0.383 N 
HETATM   10  C15 UNL     1      22.091   0.092  53.223  1.00  0.00     0.144 C 
HETATM   11  C16 UNL     1      21.554   1.401  52.698  1.00  0.00     0.169 C 
HETATM   12  N5  UNL     1      22.476   2.126  51.848  1.00  0.00    -0.286 NA
HETATM   13  C17 UNL     1      23.724   2.129  51.992  1.00  0.00     0.099 C 
HETATM   14  C18 UNL     1      24.253   1.157  52.926  1.00  0.00     0.185 C 
HETATM   15  H15 UNL     1      26.661   3.229  53.554  1.00  0.00     0.160 HD
ENDROOT
BRANCH   1  16
HETATM   16  O2  UNL     1      24.075   4.071  50.560  1.00  0.00    -0.329 OA
BRANCH  16  17
HETATM   17  C8  UNL     1      23.888   5.365  51.098  1.00  0.00     0.204 C 
BRANCH  17  18
HETATM   18  C7  UNL     1      24.898   6.231  50.428  1.00  0.00    -0.002 C 
HETATM   19  C6  UNL     1      25.451   7.436  50.383  1.00  0.00    -0.004 C 
BRANCH  19  20
HETATM   20  C4  UNL     1      26.519   8.033  49.534  1.00  0.00     0.103 C 
HETATM   21  C5  UNL     1      27.120   9.180  50.320  1.00  0.00     0.036 C 
BRANCH  20  22
HETATM   22  N1  UNL     1      27.514   7.012  49.257  1.00  0.00    -0.350 N 
HETATM   23  C3  UNL     1      28.370   7.028  48.118  1.00  0.00     0.240 C 
HETATM   24  O1  UNL     1      28.357   7.918  47.234  1.00  0.00    -0.269 OA
HETATM   25  H4  UNL     1      27.556   6.251  49.973  1.00  0.00     0.163 HD
BRANCH  23  26
HETATM   26  C2  UNL     1      29.343   5.962  47.919  1.00  0.00     0.064 C 
HETATM   27  C1  UNL     1      28.459   5.122  48.419  1.00  0.00     0.017 C 
ENDBRANCH  23  26
ENDBRANCH  20  22
ENDBRANCH  19  20
ENDBRANCH  17  18
ENDBRANCH  16  17
ENDBRANCH   1  16
TORSDOF 6
ENDMDL
MODEL 4
REMARK VINA RESULT:      -7.3      1.141      3.040
REMARK  6 active torsions:
REMARK  status: ('A' for Active; 'I' for Inactive)
REMARK    1  A    between atoms: C2_2  and  C3_3 
REMARK       I    between atoms: C3_3  and  N1_5 
REMARK    2  A    between atoms: N1_5  and  C4_6 
REMARK    3  A    between atoms: C4_6  and  C6_8 
REMARK    4  A    between atoms: C7_9  and  C8_10 
REMARK    5  A    between atoms: C8_10  and  O2_11 
REMARK    6  A    between atoms: O2_11  and  C9_12 
ROOT
HETATM    1  C9  UNL     1      26.036   2.639  51.317  1.00  0.00     0.188 C 
HETATM    2  N2  UNL     1      27.197   2.362  51.808  1.00  0.00    -0.245 NA
HETATM    3  C10 UNL     1      27.510   1.313  52.753  1.00  0.00     0.272 C 
HETATM    4  N3  UNL     1      26.941   1.501  54.042  1.00  0.00    -0.381 N 
HETATM    5  C11 UNL     1      26.626   0.412  54.937  1.00  0.00     0.084 C 
HETATM    6  C12 UNL     1      25.604  -0.449  55.116  1.00  0.00     0.018 C 
HETATM    7  C13 UNL     1      24.313  -0.791  54.579  1.00  0.00     0.018 C 
HETATM    8  C14 UNL     1      23.383  -0.549  53.687  1.00  0.00     0.086 C 
HETATM    9  N4  UNL     1      23.226   0.389  52.606  1.00  0.00    -0.383 N 
HETATM   10  C15 UNL     1      22.184   0.679  51.735  1.00  0.00     0.144 C 
HETATM   11  C16 UNL     1      22.335   2.026  51.073  1.00  0.00     0.169 C 
HETATM   12  N5  UNL     1      23.703   2.396  50.776  1.00  0.00    -0.286 NA
HETATM   13  C17 UNL     1      24.694   2.081  51.482  1.00  0.00     0.099 C 
HETATM   14  C18 UNL     1      24.445   1.098  52.515  1.00  0.00     0.185 C 
HETATM   15  H15 UNL     1      26.775   2.506  54.268  1.00  0.00     0.160 HD
ENDROOT
BRANCH   1  16
HETATM   16  O2  UNL     1      26.185   3.714  50.454  1.00  0.00    -0.329 OA
BRANCH  16  17
HETATM   17  C8  UNL     1      26.723   3.577  49.153  1.00  0.00     0.204 C 
BRANCH  17  18
HETATM   18  C7  UNL     1      27.293   4.910  48.811  1.00  0.00    -0.002 C 
HETATM   19  C6  UNL     1      28.340   5.561  48.323  1.00  0.00    -0.004 C 
BRANCH  19  20
HETATM   20  C4  UNL     1      28.623   7.004  48.092  1.00  0.00     0.103 C 
HETATM   21  C5  UNL     1      27.429   7.778  48.611  1.00  0.00     0.036 C 
BRANCH  20  22
HETATM   22  N1  UNL     1      29.830   7.361  48.818  1.00  0.00    -0.350 N 
HETATM   23  C3  UNL     1      31.129   7.385  48.232  1.00  0.00     0.240 C 
HETATM   24  O1  UNL     1      31.372   7.102  47.035  1.00  0.00    -0.269 OA
HETATM   25  H4  UNL     1      29.668   7.603  49.822  1.00  0.00     0.163 HD
BRANCH  23  26
HETATM   26  C2  UNL     1      32.286   7.755  49.035  1.00  0.00     0.064 C 
HETATM   27  C1  UNL     1      31.592   8.781  49.484  1.00  0.00     0.017 C 
ENDBRANCH  23  26
ENDBRANCH  20  22
ENDBRANCH  19  20
ENDBRANCH  17  18
ENDBRANCH  16  17
ENDBRANCH   1  16
TORSDOF 6
ENDMDL
MODEL 5
REMARK VINA RESULT:      -7.1      2.182      2.906
REMARK  6 active torsions:
REMARK  status: ('A' for Active; 'I' for Inactive)
REMARK    1  A    between atoms: C2_2  and  C3_3 
REMARK       I    between atoms: C3_3  and  N1_5 
REMARK    2  A    between atoms: N1_5  and  C4_6 
REMARK    3  A    between atoms: C4_6  and  C6_8 
REMARK    4  A    between atoms: C7_9  and  C8_10 
REMARK    5  A    between atoms: C8_10  and  O2_11 
REMARK    6  A    between atoms: O2_11  and  C9_12 
ROOT
HETATM    1  C9  UNL     1      23.861   2.123  51.464  1.00  0.00     0.188 C 
HETATM    2  N2  UNL     1      22.701   2.662  51.295  1.00  0.00    -0.245 NA
HETATM    3  C10 UNL     1      21.486   2.343  52.011  1.00  0.00     0.272 C 
HETATM    4  N3  UNL     1      20.986   1.037  51.757  1.00  0.00    -0.381 N 
HETATM    5  C11 UNL     1      20.181   0.297  52.701  1.00  0.00     0.084 C 
HETATM    6  C12 UNL     1      20.400  -0.493  53.771  1.00  0.00     0.018 C 
HETATM    7  C13 UNL     1      21.467  -1.041  54.566  1.00  0.00     0.018 C 
HETATM    8  C14 UNL     1      22.758  -1.136  54.776  1.00  0.00     0.086 C 
HETATM    9  N4  UNL     1      23.936  -0.601  54.146  1.00  0.00    -0.383 N 
HETATM   10  C15 UNL     1      25.297  -0.797  54.339  1.00  0.00     0.144 C 
HETATM   11  C16 UNL     1      26.123  -0.357  53.156  1.00  0.00     0.169 C 
HETATM   12  N5  UNL     1      25.610   0.810  52.469  1.00  0.00    -0.286 NA
HETATM   13  C17 UNL     1      24.389   1.082  52.345  1.00  0.00     0.099 C 
HETATM   14  C18 UNL     1      23.482   0.287  53.145  1.00  0.00     0.185 C 
HETATM   15  H15 UNL     1      21.263   0.673  50.818  1.00  0.00     0.160 HD
ENDROOT
BRANCH   1  16
HETATM   16  O2  UNL     1      24.741   2.722  50.575  1.00  0.00    -0.329 OA
BRANCH  16  17
HETATM   17  C8  UNL     1      24.315   3.314  49.363  1.00  0.00     0.204 C 
BRANCH  17  18
HETATM   18  C7  UNL     1      24.974   4.648  49.313  1.00  0.00    -0.002 C 
HETATM   19  C6  UNL     1      24.790   5.959  49.220  1.00  0.00    -0.004 C 
BRANCH  19  20
HETATM   20  C4  UNL     1      25.724   7.117  49.194  1.00  0.00     0.103 C 
HETATM   21  C5  UNL     1      25.472   7.919  50.454  1.00  0.00     0.036 C 
BRANCH  20  22
HETATM   22  N1  UNL     1      27.086   6.613  49.162  1.00  0.00    -0.350 N 
HETATM   23  C3  UNL     1      28.025   6.932  48.138  1.00  0.00     0.240 C 
HETATM   24  O1  UNL     1      27.781   7.676  47.159  1.00  0.00    -0.269 OA
HETATM   25  H4  UNL     1      27.328   5.987  49.963  1.00  0.00     0.163 HD
BRANCH  23  26
HETATM   26  C2  UNL     1      29.372   6.380  48.185  1.00  0.00     0.064 C 
HETATM   27  C1  UNL     1      28.832   5.184  48.297  1.00  0.00     0.017 C 
ENDBRANCH  23  26
ENDBRANCH  20  22
ENDBRANCH  19  20
ENDBRANCH  17  18
ENDBRANCH  16  17
ENDBRANCH   1  16
TORSDOF 6
ENDMDL
MODEL 6
REMARK VINA RESULT:      -7.1      2.072      8.718
REMARK  6 active torsions:
REMARK  status: ('A' for Active; 'I' for Inactive)
REMARK    1  A    between atoms: C2_2  and  C3_3 
REMARK       I    between atoms: C3_3  and  N1_5 
REMARK    2  A    between atoms: N1_5  and  C4_6 
REMARK    3  A    between atoms: C4_6  and  C6_8 
REMARK    4  A    between atoms: C7_9  and  C8_10 
REMARK    5  A    between atoms: C8_10  and  O2_11 
REMARK    6  A    between atoms: O2_11  and  C9_12 
ROOT
HETATM    1  C9  UNL     1      27.723   5.440  48.705  1.00  0.00     0.188 C 
HETATM    2  N2  UNL     1      26.722   6.213  48.962  1.00  0.00    -0.245 NA
HETATM    3  C10 UNL     1      26.701   7.657  48.883  1.00  0.00     0.272 C 
HETATM    4  N3  UNL     1      27.527   8.305  49.840  1.00  0.00    -0.381 N 
HETATM    5  C11 UNL     1      28.108   9.611  49.633  1.00  0.00     0.084 C 
HETATM    6  C12 UNL     1      29.201  10.116  49.027  1.00  0.00     0.018 C 
HETATM    7  C13 UNL     1      30.362   9.710  48.279  1.00  0.00     0.018 C 
HETATM    8  C14 UNL     1      31.051   8.729  47.747  1.00  0.00     0.086 C 
HETATM    9  N4  UNL     1      30.899   7.300  47.668  1.00  0.00    -0.383 N 
HETATM   10  C15 UNL     1      31.699   6.279  47.173  1.00  0.00     0.144 C 
HETATM   11  C16 UNL     1      31.311   4.923  47.710  1.00  0.00     0.169 C 
HETATM   12  N5  UNL     1      29.889   4.746  47.916  1.00  0.00    -0.286 NA
HETATM   13  C17 UNL     1      29.104   5.660  48.275  1.00  0.00     0.099 C 
HETATM   14  C18 UNL     1      29.644   7.003  48.245  1.00  0.00     0.185 C 
HETATM   15  H15 UNL     1      27.669   7.736  50.704  1.00  0.00     0.160 HD
ENDROOT
BRANCH   1  16
HETATM   16  O2  UNL     1      27.312   4.131  48.907  1.00  0.00    -0.329 OA
BRANCH  16  17
HETATM   17  C8  UNL     1      26.009   3.801  49.346  1.00  0.00     0.204 C 
BRANCH  17  18
HETATM   18  C7  UNL     1      26.194   2.979  50.574  1.00  0.00    -0.002 C 
HETATM   19  C6  UNL     1      27.055   2.289  51.311  1.00  0.00    -0.004 C 
BRANCH  19  20
HETATM   20  C4  UNL     1      26.920   1.523  52.581  1.00  0.00     0.103 C 
HETATM   21  C5  UNL     1      27.661   2.300  53.649  1.00  0.00     0.036 C 
BRANCH  20  22
HETATM   22  N1  UNL     1      25.509   1.408  52.904  1.00  0.00    -0.350 N 
HETATM   23  C3  UNL     1      24.835   0.165  53.082  1.00  0.00     0.240 C 
HETATM   24  O1  UNL     1      25.381  -0.958  52.979  1.00  0.00    -0.269 OA
HETATM   25  H4  UNL     1      25.016   2.326  52.999  1.00  0.00     0.163 HD
BRANCH  23  26
HETATM   26  C2  UNL     1      23.414   0.143  53.406  1.00  0.00     0.064 C 
HETATM   27  C1  UNL     1      23.244   1.114  52.532  1.00  0.00     0.017 C 
ENDBRANCH  23  26
ENDBRANCH  20  22
ENDBRANCH  19  20
ENDBRANCH  17  18
ENDBRANCH  16  17
ENDBRANCH   1  16
TORSDOF 6
ENDMDL
MODEL 7
REMARK VINA RESULT:      -7.0      2.088      2.669
REMARK  6 active torsions:
REMARK  status: ('A' for Active; 'I' for Inactive)
REMARK    1  A    between atoms: C2_2  and  C3_3 
REMARK       I    between atoms: C3_3  and  N1_5 
REMARK    2  A    between atoms: N1_5  and  C4_6 
REMARK    3  A    between atoms: C4_6  and  C6_8 
REMARK    4  A    between atoms: C7_9  and  C8_10 
REMARK    5  A    between atoms: C8_10  and  O2_11 
REMARK    6  A    between atoms: O2_11  and  C9_12 
ROOT
HETATM    1  C9  UNL     1      25.926   3.414  50.348  1.00  0.00     0.188 C 
HETATM    2  N2  UNL     1      24.840   3.844  49.799  1.00  0.00    -0.245 NA
HETATM    3  C10 UNL     1      23.488   3.462  50.140  1.00  0.00     0.272 C 
HETATM    4  N3  UNL     1      23.173   2.108  49.846  1.00  0.00    -0.381 N 
HETATM    5  C11 UNL     1      22.169   1.353  50.559  1.00  0.00     0.084 C 
HETATM    6  C12 UNL     1      22.101   0.641  51.701  1.00  0.00     0.018 C 
HETATM    7  C13 UNL     1      22.908   0.227  52.819  1.00  0.00     0.018 C 
HETATM    8  C14 UNL     1      24.077   0.251  53.412  1.00  0.00     0.086 C 
HETATM    9  N4  UNL     1      25.355   0.849  53.126  1.00  0.00    -0.383 N 
HETATM   10  C15 UNL     1      26.601   0.779  53.732  1.00  0.00     0.144 C 
HETATM   11  C16 UNL     1      27.719   1.223  52.821  1.00  0.00     0.169 C 
HETATM   12  N5  UNL     1      27.366   2.305  51.926  1.00  0.00    -0.286 NA
HETATM   13  C17 UNL     1      26.226   2.468  51.422  1.00  0.00     0.099 C 
HETATM   14  C18 UNL     1      25.171   1.642  51.971  1.00  0.00     0.185 C 
HETATM   15  H15 UNL     1      23.746   1.719  49.064  1.00  0.00     0.160 HD
ENDROOT
BRANCH   1  16
HETATM   16  O2  UNL     1      26.995   4.037  49.721  1.00  0.00    -0.329 OA
BRANCH  16  17
HETATM   17  C8  UNL     1      26.834   5.162  48.880  1.00  0.00     0.204 C 
BRANCH  17  18
HETATM   18  C7  UNL     1      28.207   5.543  48.449  1.00  0.00    -0.002 C 
HETATM   19  C6  UNL     1      29.423   5.104  48.151  1.00  0.00    -0.004 C 
BRANCH  19  20
HETATM   20  C4  UNL     1      30.674   5.789  47.722  1.00  0.00     0.103 C 
HETATM   21  C5  UNL     1      31.217   6.519  48.933  1.00  0.00     0.036 C 
BRANCH  20  22
HETATM   22  N1  UNL     1      31.614   4.785  47.255  1.00  0.00    -0.350 N 
HETATM   23  C3  UNL     1      32.622   5.036  46.279  1.00  0.00     0.240 C 
HETATM   24  O1  UNL     1      32.807   6.143  45.720  1.00  0.00    -0.269 OA
HETATM   25  H4  UNL     1      31.492   3.846  47.699  1.00  0.00     0.163 HD
BRANCH  23  26
HETATM   26  C2  UNL     1      33.524   3.969  45.868  1.00  0.00     0.064 C 
HETATM   27  C1  UNL     1      33.009   3.224  46.825  1.00  0.00     0.017 C 
ENDBRANCH  23  26
ENDBRANCH  20  22
ENDBRANCH  19  20
ENDBRANCH  17  18
ENDBRANCH  16  17
ENDBRANCH   1  16
TORSDOF 6
ENDMDL
MODEL 8
REMARK VINA RESULT:      -6.9      4.135      7.812
REMARK  6 active torsions:
REMARK  status: ('A' for Active; 'I' for Inactive)
REMARK    1  A    between atoms: C2_2  and  C3_3 
REMARK       I    between atoms: C3_3  and  N1_5 
REMARK    2  A    between atoms: N1_5  and  C4_6 
REMARK    3  A    between atoms: C4_6  and  C6_8 
REMARK    4  A    between atoms: C7_9  and  C8_10 
REMARK    5  A    between atoms: C8_10  and  O2_11 
REMARK    6  A    between atoms: O2_11  and  C9_12 
ROOT
HETATM    1  C9  UNL     1      22.619   2.465  50.783  1.00  0.00     0.188 C 
HETATM    2  N2  UNL     1      22.156   1.581  49.965  1.00  0.00    -0.245 NA
HETATM    3  C10 UNL     1      21.973   1.734  48.538  1.00  0.00     0.272 C 
HETATM    4  N3  UNL     1      20.976   2.681  48.178  1.00  0.00    -0.381 N 
HETATM    5  C11 UNL     1      20.986   3.407  46.929  1.00  0.00     0.084 C 
HETATM    6  C12 UNL     1      21.568   4.523  46.446  1.00  0.00     0.018 C 
HETATM    7  C13 UNL     1      22.459   5.586  46.833  1.00  0.00     0.018 C 
HETATM    8  C14 UNL     1      23.206   6.122  47.768  1.00  0.00     0.086 C 
HETATM    9  N4  UNL     1      23.529   5.790  49.131  1.00  0.00    -0.383 N 
HETATM   10  C15 UNL     1      24.255   6.432  50.124  1.00  0.00     0.144 C 
HETATM   11  C16 UNL     1      23.945   5.907  51.505  1.00  0.00     0.169 C 
HETATM   12  N5  UNL     1      23.672   4.486  51.556  1.00  0.00    -0.286 NA
HETATM   13  C17 UNL     1      23.100   3.839  50.643  1.00  0.00     0.099 C 
HETATM   14  C18 UNL     1      22.927   4.538  49.388  1.00  0.00     0.185 C 
HETATM   15  H15 UNL     1      20.240   2.794  48.910  1.00  0.00     0.160 HD
ENDROOT
BRANCH   1  16
HETATM   16  O2  UNL     1      22.627   1.905  52.052  1.00  0.00    -0.329 OA
BRANCH  16  17
HETATM   17  C8  UNL     1      22.694   0.510  52.269  1.00  0.00     0.204 C 
BRANCH  17  18
HETATM   18  C7  UNL     1      23.820   0.304  53.222  1.00  0.00    -0.002 C 
HETATM   19  C6  UNL     1      25.138   0.282  53.373  1.00  0.00    -0.004 C 
BRANCH  19  20
HETATM   20  C4  UNL     1      26.023   0.023  54.541  1.00  0.00     0.103 C 
HETATM   21  C5  UNL     1      25.298  -0.959  55.438  1.00  0.00     0.036 C 
BRANCH  20  22
HETATM   22  N1  UNL     1      27.274  -0.536  54.060  1.00  0.00    -0.350 N 
HETATM   23  C3  UNL     1      28.552   0.037  54.322  1.00  0.00     0.240 C 
HETATM   24  O1  UNL     1      28.736   1.081  54.993  1.00  0.00    -0.269 OA
HETATM   25  H4  UNL     1      27.162  -1.409  53.495  1.00  0.00     0.163 HD
BRANCH  23  26
HETATM   26  C2  UNL     1      29.757  -0.592  53.799  1.00  0.00     0.064 C 
HETATM   27  C1  UNL     1      28.993  -1.546  53.307  1.00  0.00     0.017 C 
ENDBRANCH  23  26
ENDBRANCH  20  22
ENDBRANCH  19  20
ENDBRANCH  17  18
ENDBRANCH  16  17
ENDBRANCH   1  16
TORSDOF 6
ENDMDL
MODEL 9
REMARK VINA RESULT:      -6.8      3.236      7.907
REMARK  6 active torsions:
REMARK  status: ('A' for Active; 'I' for Inactive)
REMARK    1  A    between atoms: C2_2  and  C3_3 
REMARK       I    between atoms: C3_3  and  N1_5 
REMARK    2  A    between atoms: N1_5  and  C4_6 
REMARK    3  A    between atoms: C4_6  and  C6_8 
REMARK    4  A    between atoms: C7_9  and  C8_10 
REMARK    5  A    between atoms: C8_10  and  O2_11 
REMARK    6  A    between atoms: O2_11  and  C9_12 
ROOT
HETATM    1  C9  UNL     1      22.941   4.237  50.349  1.00  0.00     0.188 C 
HETATM    2  N2  UNL     1      22.049   5.170  50.366  1.00  0.00    -0.245 NA
HETATM    3  C10 UNL     1      22.241   6.558  50.011  1.00  0.00     0.272 C 
HETATM    4  N3  UNL     1      23.095   7.273  50.894  1.00  0.00    -0.381 N 
HETATM    5  C11 UNL     1      23.870   8.424  50.492  1.00  0.00     0.084 C 
HETATM    6  C12 UNL     1      25.058   8.649  49.897  1.00  0.00     0.018 C 
HETATM    7  C13 UNL     1      26.189   7.953  49.342  1.00  0.00     0.018 C 
HETATM    8  C14 UNL     1      26.760   6.804  49.069  1.00  0.00     0.086 C 
HETATM    9  N4  UNL     1      26.407   5.421  49.252  1.00  0.00    -0.383 N 
HETATM   10  C15 UNL     1      27.078   4.226  49.033  1.00  0.00     0.144 C 
HETATM   11  C16 UNL     1      26.468   3.068  49.783  1.00  0.00     0.169 C 
HETATM   12  N5  UNL     1      25.025   3.123  49.897  1.00  0.00    -0.286 NA
HETATM   13  C17 UNL     1      24.361   4.184  50.005  1.00  0.00     0.099 C 
HETATM   14  C18 UNL     1      25.091   5.412  49.766  1.00  0.00     0.185 C 
HETATM   15  H15 UNL     1      23.102   6.876  51.860  1.00  0.00     0.160 HD
ENDROOT
BRANCH   1  16
HETATM   16  O2  UNL     1      22.333   3.061  50.761  1.00  0.00    -0.329 OA
BRANCH  16  17
HETATM   17  C8  UNL     1      21.725   2.922  52.030  1.00  0.00     0.204 C 
BRANCH  17  18
HETATM   18  C7  UNL     1      22.355   1.723  52.650  1.00  0.00    -0.002 C 
HETATM   19  C6  UNL     1      23.496   1.137  52.990  1.00  0.00    -0.004 C 
BRANCH  19  20
HETATM   20  C4  UNL     1      23.816  -0.161  53.644  1.00  0.00     0.103 C 
HETATM   21  C5  UNL     1      22.694  -1.119  53.301  1.00  0.00     0.036 C 
BRANCH  20  22
HETATM   22  N1  UNL     1      25.086  -0.639  53.127  1.00  0.00    -0.350 N 
HETATM   23  C3  UNL     1      26.344  -0.366  53.737  1.00  0.00     0.240 C 
HETATM   24  O1  UNL     1      26.493   0.313  54.780  1.00  0.00    -0.269 OA
HETATM   25  H4  UNL     1      25.003  -1.211  52.255  1.00  0.00     0.163 HD
BRANCH  23  26
HETATM   26  C2  UNL     1      27.571  -0.887  53.149  1.00  0.00     0.064 C 
HETATM   27  C1  UNL     1      26.835  -1.766  52.499  1.00  0.00     0.017 C 
ENDBRANCH  23  26
ENDBRANCH  20  22
ENDBRANCH  19  20
ENDBRANCH  17  18
ENDBRANCH  16  17
ENDBRANCH   1  16
TORSDOF 6
ENDMDL
