MODEL 1
REMARK VINA RESULT:      -7.3      0.000      0.000
REMARK  5 active torsions:
REMARK  status: ('A' for Active; 'I' for Inactive)
REMARK    1  A    between atoms: C3_3  and  C5_5 
REMARK    2  A    between atoms: C6_6  and  N1_7 
REMARK    3  A    between atoms: C7_8  and  O1_9 
REMARK    4  A    between atoms: C12_14  and  C13_15 
REMARK    5  A    between atoms: C13_15  and  O2_16 
ROOT
HETATM    1  N1  UNL     1      20.331   0.706  52.261  1.00  0.00    -0.318 N 
HETATM    2  C7  UNL     1      20.396   2.108  52.468  1.00  0.00     0.138 A 
HETATM    3  C9  UNL     1      21.731   2.053  52.650  1.00  0.00     0.117 A 
HETATM    4  C10 UNL     1      23.023   1.300  52.724  1.00  0.00     0.109 A 
HETATM    5  C11 UNL     1      24.221   1.368  52.224  1.00  0.00     0.020 C 
HETATM    6  C12 UNL     1      25.456   0.645  52.295  1.00  0.00    -0.014 C 
HETATM    7  C15 UNL     1      25.529  -0.417  53.057  1.00  0.00     0.144 C 
HETATM    8  O3  UNL     1      24.297  -0.586  53.659  1.00  0.00    -0.359 OA
HETATM    9  C16 UNL     1      24.196  -1.334  54.856  1.00  0.00     0.203 C 
HETATM   10  C17 UNL     1      22.907  -1.133  55.518  1.00  0.00     0.016 C 
HETATM   11  C18 UNL     1      22.158  -0.299  54.831  1.00  0.00     0.087 C 
HETATM   12  N2  UNL     1      22.359   0.405  53.630  1.00  0.00    -0.350 N 
HETATM   13  C19 UNL     1      21.765   0.600  52.358  1.00  0.00     0.208 A 
ENDROOT
BRANCH   1  14
HETATM   14  C6  UNL     1      19.249  -0.173  52.050  1.00  0.00     0.095 C 
HETATM   15  C5  UNL     1      18.603  -0.744  53.051  1.00  0.00     0.024 C 
BRANCH  15  16
HETATM   16  C3  UNL     1      17.474  -1.663  52.896  1.00  0.00    -0.065 C 
HETATM   17  C2  UNL     1      16.421  -1.336  52.182  1.00  0.00    -0.024 C 
HETATM   18  C1  UNL     1      15.316  -2.344  52.082  1.00  0.00     0.036 C 
HETATM   19  C4  UNL     1      17.600  -2.967  53.588  1.00  0.00     0.048 C 
ENDBRANCH  15  16
ENDBRANCH   1  14
BRANCH   2  20
HETATM   20  O1  UNL     1      19.602   3.237  52.515  1.00  0.00    -0.343 OA
HETATM   21  C8  UNL     1      19.065   3.822  51.368  1.00  0.00     0.211 C 
ENDBRANCH   2  20
BRANCH   6  22
HETATM   22  C13 UNL     1      26.632   1.118  51.548  1.00  0.00     0.207 C 
BRANCH  22  23
HETATM   23  O2  UNL     1      27.251   2.235  51.960  1.00  0.00    -0.391 OA
HETATM   24  C14 UNL     1      27.995   2.196  53.116  1.00  0.00     0.201 C 
ENDBRANCH  22  23
ENDBRANCH   6  22
TORSDOF 5
ENDMDL
MODEL 2
REMARK VINA RESULT:      -7.2      3.283      7.254
REMARK  5 active torsions:
REMARK  status: ('A' for Active; 'I' for Inactive)
REMARK    1  A    between atoms: C3_3  and  C5_5 
REMARK    2  A    between atoms: C6_6  and  N1_7 
REMARK    3  A    between atoms: C7_8  and  O1_9 
REMARK    4  A    between atoms: C12_14  and  C13_15 
REMARK    5  A    between atoms: C13_15  and  O2_16 
ROOT
HETATM    1  N1  UNL     1      24.351   0.226  52.976  1.00  0.00    -0.318 N 
HETATM    2  C7  UNL     1      23.048  -0.293  53.191  1.00  0.00     0.138 A 
HETATM    3  C9  UNL     1      22.540   0.484  52.213  1.00  0.00     0.117 A 
HETATM    4  C10 UNL     1      22.687   1.510  51.133  1.00  0.00     0.109 A 
HETATM    5  C11 UNL     1      22.367   1.662  49.882  1.00  0.00     0.020 C 
HETATM    6  C12 UNL     1      22.510   2.646  48.850  1.00  0.00    -0.014 C 
HETATM    7  C15 UNL     1      23.126   3.769  49.121  1.00  0.00     0.144 C 
HETATM    8  O3  UNL     1      23.509   3.726  50.447  1.00  0.00    -0.359 OA
HETATM    9  C16 UNL     1      23.764   4.931  51.145  1.00  0.00     0.203 C 
HETATM   10  C17 UNL     1      23.829   4.721  52.591  1.00  0.00     0.016 C 
HETATM   11  C18 UNL     1      23.631   3.455  52.886  1.00  0.00     0.087 C 
HETATM   12  N2  UNL     1      23.379   2.316  52.100  1.00  0.00    -0.350 N 
HETATM   13  C19 UNL     1      23.881   1.012  51.864  1.00  0.00     0.208 A 
ENDROOT
BRANCH   1  14
HETATM   14  C6  UNL     1      25.578   0.011  53.636  1.00  0.00     0.095 C 
HETATM   15  C5  UNL     1      26.722  -0.075  52.980  1.00  0.00     0.024 C 
BRANCH  15  16
HETATM   16  C3  UNL     1      28.025  -0.297  53.608  1.00  0.00    -0.065 C 
HETATM   17  C2  UNL     1      28.848  -1.221  53.166  1.00  0.00    -0.024 C 
HETATM   18  C1  UNL     1      30.160  -1.373  53.875  1.00  0.00     0.036 C 
HETATM   19  C4  UNL     1      28.349   0.579  54.759  1.00  0.00     0.048 C 
ENDBRANCH  15  16
ENDBRANCH   1  14
BRANCH   2  20
HETATM   20  O1  UNL     1      22.352  -1.189  53.979  1.00  0.00    -0.343 OA
HETATM   21  C8  UNL     1      20.958  -1.200  54.047  1.00  0.00     0.211 C 
ENDBRANCH   2  20
BRANCH   6  22
HETATM   22  C13 UNL     1      21.938   2.404  47.516  1.00  0.00     0.207 C 
BRANCH  22  23
HETATM   23  O2  UNL     1      21.382   3.433  46.856  1.00  0.00    -0.391 OA
HETATM   24  C14 UNL     1      21.855   3.753  45.605  1.00  0.00     0.201 C 
ENDBRANCH  22  23
ENDBRANCH   6  22
TORSDOF 5
ENDMDL
MODEL 3
REMARK VINA RESULT:      -7.2      3.625      5.575
REMARK  5 active torsions:
REMARK  status: ('A' for Active; 'I' for Inactive)
REMARK    1  A    between atoms: C3_3  and  C5_5 
REMARK    2  A    between atoms: C6_6  and  N1_7 
REMARK    3  A    between atoms: C7_8  and  O1_9 
REMARK    4  A    between atoms: C12_14  and  C13_15 
REMARK    5  A    between atoms: C13_15  and  O2_16 
ROOT
HETATM    1  N1  UNL     1      23.546   3.523  50.669  1.00  0.00    -0.318 N 
HETATM    2  C7  UNL     1      23.631   4.553  51.642  1.00  0.00     0.138 A 
HETATM    3  C9  UNL     1      24.095   3.689  52.566  1.00  0.00     0.117 A 
HETATM    4  C10 UNL     1      24.516   2.318  52.998  1.00  0.00     0.109 A 
HETATM    5  C11 UNL     1      25.527   1.749  53.585  1.00  0.00     0.020 C 
HETATM    6  C12 UNL     1      25.928   0.436  53.995  1.00  0.00    -0.014 C 
HETATM    7  C15 UNL     1      25.126  -0.575  53.772  1.00  0.00     0.144 C 
HETATM    8  O3  UNL     1      23.995  -0.082  53.151  1.00  0.00    -0.359 OA
HETATM    9  C16 UNL     1      22.786  -0.816  53.205  1.00  0.00     0.203 C 
HETATM   10  C17 UNL     1      21.638  -0.009  52.794  1.00  0.00     0.016 C 
HETATM   11  C18 UNL     1      22.017   1.209  52.477  1.00  0.00     0.087 C 
HETATM   12  N2  UNL     1      23.269   1.851  52.460  1.00  0.00    -0.350 N 
HETATM   13  C19 UNL     1      24.121   2.574  51.589  1.00  0.00     0.208 A 
ENDROOT
BRANCH   1  14
HETATM   14  C6  UNL     1      23.070   3.508  49.342  1.00  0.00     0.095 C 
HETATM   15  C5  UNL     1      22.886   4.619  48.650  1.00  0.00     0.024 C 
BRANCH  15  16
HETATM   16  C3  UNL     1      22.395   4.667  47.272  1.00  0.00    -0.065 C 
HETATM   17  C2  UNL     1      21.967   3.586  46.661  1.00  0.00    -0.024 C 
HETATM   18  C1  UNL     1      21.484   3.736  45.250  1.00  0.00     0.036 C 
HETATM   19  C4  UNL     1      22.414   5.999  46.624  1.00  0.00     0.048 C 
ENDBRANCH  15  16
ENDBRANCH   1  14
BRANCH   2  20
HETATM   20  O1  UNL     1      23.403   5.904  51.815  1.00  0.00    -0.343 OA
HETATM   21  C8  UNL     1      24.212   6.880  51.232  1.00  0.00     0.211 C 
ENDBRANCH   2  20
BRANCH   6  22
HETATM   22  C13 UNL     1      27.210   0.240  54.692  1.00  0.00     0.207 C 
BRANCH  22  23
HETATM   23  O2  UNL     1      28.007  -0.768  54.305  1.00  0.00    -0.391 OA
HETATM   24  C14 UNL     1      29.321  -0.497  54.000  1.00  0.00     0.201 C 
ENDBRANCH  22  23
ENDBRANCH   6  22
TORSDOF 5
ENDMDL
MODEL 4
REMARK VINA RESULT:      -6.7      3.597      7.363
REMARK  5 active torsions:
REMARK  status: ('A' for Active; 'I' for Inactive)
REMARK    1  A    between atoms: C3_3  and  C5_5 
REMARK    2  A    between atoms: C6_6  and  N1_7 
REMARK    3  A    between atoms: C7_8  and  O1_9 
REMARK    4  A    between atoms: C12_14  and  C13_15 
REMARK    5  A    between atoms: C13_15  and  O2_16 
ROOT
HETATM    1  N1  UNL     1      24.002   3.440  50.637  1.00  0.00    -0.318 N 
HETATM    2  C7  UNL     1      23.231   2.777  49.647  1.00  0.00     0.138 A 
HETATM    3  C9  UNL     1      23.009   1.733  50.471  1.00  0.00     0.117 A 
HETATM    4  C10 UNL     1      23.172   1.029  51.782  1.00  0.00     0.109 A 
HETATM    5  C11 UNL     1      22.426   0.453  52.678  1.00  0.00     0.020 C 
HETATM    6  C12 UNL     1      22.584  -0.220  53.934  1.00  0.00    -0.014 C 
HETATM    7  C15 UNL     1      23.786  -0.363  54.433  1.00  0.00     0.144 C 
HETATM    8  O3  UNL     1      24.678   0.211  53.548  1.00  0.00    -0.359 OA
HETATM    9  C16 UNL     1      26.037  -0.181  53.566  1.00  0.00     0.203 C 
HETATM   10  C17 UNL     1      26.752   0.268  52.371  1.00  0.00     0.016 C 
HETATM   11  C18 UNL     1      25.945   0.928  51.570  1.00  0.00     0.087 C 
HETATM   12  N2  UNL     1      24.581   1.266  51.646  1.00  0.00    -0.350 N 
HETATM   13  C19 UNL     1      23.725   2.394  51.589  1.00  0.00     0.208 A 
ENDROOT
BRANCH   1  14
HETATM   14  C6  UNL     1      24.729   4.648  50.622  1.00  0.00     0.095 C 
HETATM   15  C5  UNL     1      25.336   5.088  49.534  1.00  0.00     0.024 C 
BRANCH  15  16
HETATM   16  C3  UNL     1      26.104   6.332  49.457  1.00  0.00    -0.065 C 
HETATM   17  C2  UNL     1      25.818   7.360  50.223  1.00  0.00    -0.024 C 
HETATM   18  C1  UNL     1      26.662   8.590  50.071  1.00  0.00     0.036 C 
HETATM   19  C4  UNL     1      27.209   6.351  48.470  1.00  0.00     0.048 C 
ENDBRANCH  15  16
ENDBRANCH   1  14
BRANCH   2  20
HETATM   20  O1  UNL     1      22.770   2.921  48.354  1.00  0.00    -0.343 OA
HETATM   21  C8  UNL     1      21.422   3.134  48.059  1.00  0.00     0.211 C 
ENDBRANCH   2  20
BRANCH   6  22
HETATM   22  C13 UNL     1      21.410  -0.772  54.627  1.00  0.00     0.207 C 
BRANCH  22  23
HETATM   23  O2  UNL     1      20.515  -1.478  53.918  1.00  0.00    -0.391 OA
HETATM   24  C14 UNL     1      19.337  -0.874  53.544  1.00  0.00     0.201 C 
ENDBRANCH  22  23
ENDBRANCH   6  22
TORSDOF 5
ENDMDL
MODEL 5
REMARK VINA RESULT:      -6.6      9.641     13.341
REMARK  5 active torsions:
REMARK  status: ('A' for Active; 'I' for Inactive)
REMARK    1  A    between atoms: C3_3  and  C5_5 
REMARK    2  A    between atoms: C6_6  and  N1_7 
REMARK    3  A    between atoms: C7_8  and  O1_9 
REMARK    4  A    between atoms: C12_14  and  C13_15 
REMARK    5  A    between atoms: C13_15  and  O2_16 
ROOT
HETATM    1  N1  UNL     1      30.839   6.368  47.759  1.00  0.00    -0.318 N 
HETATM    2  C7  UNL     1      31.453   7.596  48.120  1.00  0.00     0.138 A 
HETATM    3  C9  UNL     1      32.459   7.390  47.247  1.00  0.00     0.117 A 
HETATM    4  C10 UNL     1      33.150   6.574  46.198  1.00  0.00     0.109 A 
HETATM    5  C11 UNL     1      33.643   6.736  45.006  1.00  0.00     0.020 C 
HETATM    6  C12 UNL     1      34.302   5.952  44.003  1.00  0.00    -0.014 C 
HETATM    7  C15 UNL     1      34.538   4.686  44.236  1.00  0.00     0.144 C 
HETATM    8  O3  UNL     1      34.058   4.397  45.499  1.00  0.00    -0.359 OA
HETATM    9  C16 UNL     1      34.564   3.279  46.205  1.00  0.00     0.203 C 
HETATM   10  C17 UNL     1      34.200   3.316  47.621  1.00  0.00     0.016 C 
HETATM   11  C18 UNL     1      33.489   4.389  47.888  1.00  0.00     0.087 C 
HETATM   12  N2  UNL     1      33.035   5.461  47.099  1.00  0.00    -0.350 N 
HETATM   13  C19 UNL     1      31.840   6.138  46.748  1.00  0.00     0.208 A 
ENDROOT
BRANCH   1  14
HETATM   14  C6  UNL     1      29.698   5.699  48.245  1.00  0.00     0.095 C 
HETATM   15  C5  UNL     1      28.482   6.200  48.116  1.00  0.00     0.024 C 
BRANCH  15  16
HETATM   16  C3  UNL     1      27.261   5.554  48.599  1.00  0.00    -0.065 C 
HETATM   17  C2  UNL     1      27.269   4.310  49.023  1.00  0.00    -0.024 C 
HETATM   18  C1  UNL     1      25.969   3.735  49.499  1.00  0.00     0.036 C 
HETATM   19  C4  UNL     1      26.035   6.385  48.579  1.00  0.00     0.048 C 
ENDBRANCH  15  16
ENDBRANCH   1  14
BRANCH   2  20
HETATM   20  O1  UNL     1      31.295   8.684  48.956  1.00  0.00    -0.343 OA
HETATM   21  C8  UNL     1      30.048   9.257  49.210  1.00  0.00     0.211 C 
ENDBRANCH   2  20
BRANCH   6  22
HETATM   22  C13 UNL     1      34.740   6.581  42.746  1.00  0.00     0.207 C 
BRANCH  22  23
HETATM   23  O2  UNL     1      35.767   6.036  42.076  1.00  0.00    -0.391 OA
HETATM   24  C14 UNL     1      35.817   6.175  40.708  1.00  0.00     0.201 C 
ENDBRANCH  22  23
ENDBRANCH   6  22
TORSDOF 5
ENDMDL
MODEL 6
REMARK VINA RESULT:      -6.3      1.757      2.246
REMARK  5 active torsions:
REMARK  status: ('A' for Active; 'I' for Inactive)
REMARK    1  A    between atoms: C3_3  and  C5_5 
REMARK    2  A    between atoms: C6_6  and  N1_7 
REMARK    3  A    between atoms: C7_8  and  O1_9 
REMARK    4  A    between atoms: C12_14  and  C13_15 
REMARK    5  A    between atoms: C13_15  and  O2_16 
ROOT
HETATM    1  N1  UNL     1      19.019   1.361  51.190  1.00  0.00    -0.318 N 
HETATM    2  C7  UNL     1      18.883   2.633  51.803  1.00  0.00     0.138 A 
HETATM    3  C9  UNL     1      20.123   2.552  52.325  1.00  0.00     0.117 A 
HETATM    4  C10 UNL     1      21.423   1.837  52.535  1.00  0.00     0.109 A 
HETATM    5  C11 UNL     1      22.696   2.079  52.429  1.00  0.00     0.020 C 
HETATM    6  C12 UNL     1      23.938   1.392  52.629  1.00  0.00    -0.014 C 
HETATM    7  C15 UNL     1      23.920   0.149  53.041  1.00  0.00     0.144 C 
HETATM    8  O3  UNL     1      22.598  -0.219  53.201  1.00  0.00    -0.359 OA
HETATM    9  C16 UNL     1      22.268  -1.300  54.053  1.00  0.00     0.203 C 
HETATM   10  C17 UNL     1      20.838  -1.336  54.359  1.00  0.00     0.016 C 
HETATM   11  C18 UNL     1      20.211  -0.347  53.762  1.00  0.00     0.087 C 
HETATM   12  N2  UNL     1      20.643   0.695  52.921  1.00  0.00    -0.350 N 
HETATM   13  C19 UNL     1      20.381   1.258  51.647  1.00  0.00     0.208 A 
ENDROOT
BRANCH   1  14
HETATM   14  C6  UNL     1      18.124   0.568  50.442  1.00  0.00     0.095 C 
HETATM   15  C5  UNL     1      17.092  -0.041  50.998  1.00  0.00     0.024 C 
BRANCH  15  16
HETATM   16  C3  UNL     1      16.131  -0.875  50.276  1.00  0.00    -0.065 C 
HETATM   17  C2  UNL     1      16.113  -0.915  48.963  1.00  0.00    -0.024 C 
HETATM   18  C1  UNL     1      15.091  -1.799  48.314  1.00  0.00     0.036 C 
HETATM   19  C4  UNL     1      15.195  -1.661  51.114  1.00  0.00     0.048 C 
ENDBRANCH  15  16
ENDBRANCH   1  14
BRANCH   2  20
HETATM   20  O1  UNL     1      17.992   3.678  51.952  1.00  0.00    -0.343 OA
HETATM   21  C8  UNL     1      16.609   3.490  51.933  1.00  0.00     0.211 C 
ENDBRANCH   2  20
BRANCH   6  22
HETATM   22  C13 UNL     1      25.212   2.094  52.408  1.00  0.00     0.207 C 
BRANCH  22  23
HETATM   23  O2  UNL     1      26.267   1.392  51.966  1.00  0.00    -0.391 OA
HETATM   24  C14 UNL     1      27.427   1.398  52.705  1.00  0.00     0.201 C 
ENDBRANCH  22  23
ENDBRANCH   6  22
TORSDOF 5
ENDMDL
MODEL 7
REMARK VINA RESULT:      -6.2      4.184      6.136
REMARK  5 active torsions:
REMARK  status: ('A' for Active; 'I' for Inactive)
REMARK    1  A    between atoms: C3_3  and  C5_5 
REMARK    2  A    between atoms: C6_6  and  N1_7 
REMARK    3  A    between atoms: C7_8  and  O1_9 
REMARK    4  A    between atoms: C12_14  and  C13_15 
REMARK    5  A    between atoms: C13_15  and  O2_16 
ROOT
HETATM    1  N1  UNL     1      23.718   2.253  51.595  1.00  0.00    -0.318 N 
HETATM    2  C7  UNL     1      25.098   1.961  51.438  1.00  0.00     0.138 A 
HETATM    3  C9  UNL     1      25.233   2.933  50.513  1.00  0.00     0.117 A 
HETATM    4  C10 UNL     1      24.679   4.044  49.677  1.00  0.00     0.109 A 
HETATM    5  C11 UNL     1      24.959   5.281  49.391  1.00  0.00     0.020 C 
HETATM    6  C12 UNL     1      24.426   6.344  48.590  1.00  0.00    -0.014 C 
HETATM    7  C15 UNL     1      23.340   6.132  47.890  1.00  0.00     0.144 C 
HETATM    8  O3  UNL     1      22.950   4.825  48.110  1.00  0.00    -0.359 OA
HETATM    9  C16 UNL     1      22.120   4.171  47.169  1.00  0.00     0.203 C 
HETATM   10  C17 UNL     1      22.081   2.725  47.386  1.00  0.00     0.016 C 
HETATM   11  C18 UNL     1      22.835   2.390  48.408  1.00  0.00     0.087 C 
HETATM   12  N2  UNL     1      23.638   3.133  49.294  1.00  0.00    -0.350 N 
HETATM   13  C19 UNL     1      23.823   3.360  50.680  1.00  0.00     0.208 A 
ENDROOT
BRANCH   1  14
HETATM   14  C6  UNL     1      22.703   1.649  52.364  1.00  0.00     0.095 C 
HETATM   15  C5  UNL     1      21.668   1.042  51.809  1.00  0.00     0.024 C 
BRANCH  15  16
HETATM   16  C3  UNL     1      20.585   0.398  52.553  1.00  0.00    -0.065 C 
HETATM   17  C2  UNL     1      19.491  -0.010  51.949  1.00  0.00    -0.024 C 
HETATM   18  C1  UNL     1      18.437  -0.658  52.796  1.00  0.00     0.036 C 
HETATM   19  C4  UNL     1      20.802   0.240  54.009  1.00  0.00     0.048 C 
ENDBRANCH  15  16
ENDBRANCH   1  14
BRANCH   2  20
HETATM   20  O1  UNL     1      26.089   1.118  51.900  1.00  0.00    -0.343 OA
HETATM   21  C8  UNL     1      27.217   1.588  52.575  1.00  0.00     0.211 C 
ENDBRANCH   2  20
BRANCH   6  22
HETATM   22  C13 UNL     1      25.118   7.642  48.532  1.00  0.00     0.207 C 
BRANCH  22  23
HETATM   23  O2  UNL     1      26.435   7.682  48.789  1.00  0.00    -0.391 OA
HETATM   24  C14 UNL     1      26.889   8.488  49.807  1.00  0.00     0.201 C 
ENDBRANCH  22  23
ENDBRANCH   6  22
TORSDOF 5
ENDMDL
MODEL 8
REMARK VINA RESULT:      -6.1      9.279     14.431
REMARK  5 active torsions:
REMARK  status: ('A' for Active; 'I' for Inactive)
REMARK    1  A    between atoms: C3_3  and  C5_5 
REMARK    2  A    between atoms: C6_6  and  N1_7 
REMARK    3  A    between atoms: C7_8  and  O1_9 
REMARK    4  A    between atoms: C12_14  and  C13_15 
REMARK    5  A    between atoms: C13_15  and  O2_16 
ROOT
HETATM    1  N1  UNL     1      32.456   5.384  46.411  1.00  0.00    -0.318 N 
HETATM    2  C7  UNL     1      32.586   4.456  47.476  1.00  0.00     0.138 A 
HETATM    3  C9  UNL     1      31.463   4.919  48.061  1.00  0.00     0.117 A 
HETATM    4  C10 UNL     1      30.283   5.839  48.109  1.00  0.00     0.109 A 
HETATM    5  C11 UNL     1      28.994   5.765  48.266  1.00  0.00     0.020 C 
HETATM    6  C12 UNL     1      27.866   6.648  48.310  1.00  0.00    -0.014 C 
HETATM    7  C15 UNL     1      28.058   7.935  48.163  1.00  0.00     0.144 C 
HETATM    8  O3  UNL     1      29.414   8.139  47.996  1.00  0.00    -0.359 OA
HETATM    9  C16 UNL     1      29.974   9.408  48.277  1.00  0.00     0.203 C 
HETATM   10  C17 UNL     1      31.433   9.354  48.366  1.00  0.00     0.016 C 
HETATM   11  C18 UNL     1      31.864   8.129  48.164  1.00  0.00     0.087 C 
HETATM   12  N2  UNL     1      31.210   6.914  47.890  1.00  0.00    -0.350 N 
HETATM   13  C19 UNL     1      31.204   5.859  46.944  1.00  0.00     0.208 A 
ENDROOT
BRANCH   1  14
HETATM   14  C6  UNL     1      33.275   5.674  45.300  1.00  0.00     0.095 C 
HETATM   15  C5  UNL     1      33.234   4.956  44.192  1.00  0.00     0.024 C 
BRANCH  15  16
HETATM   16  C3  UNL     1      34.058   5.206  43.008  1.00  0.00    -0.065 C 
HETATM   17  C2  UNL     1      35.055   6.061  43.039  1.00  0.00    -0.024 C 
HETATM   18  C1  UNL     1      35.841   6.250  41.776  1.00  0.00     0.036 C 
HETATM   19  C4  UNL     1      33.695   4.442  41.792  1.00  0.00     0.048 C 
ENDBRANCH  15  16
ENDBRANCH   1  14
BRANCH   2  20
HETATM   20  O1  UNL     1      33.398   3.439  47.937  1.00  0.00    -0.343 OA
HETATM   21  C8  UNL     1      34.770   3.405  47.685  1.00  0.00     0.211 C 
ENDBRANCH   2  20
BRANCH   6  22
HETATM   22  C13 UNL     1      26.518   6.110  48.555  1.00  0.00     0.207 C 
BRANCH  22  23
HETATM   23  O2  UNL     1      26.048   6.097  49.812  1.00  0.00    -0.391 OA
HETATM   24  C14 UNL     1      25.244   5.055  50.211  1.00  0.00     0.201 C 
ENDBRANCH  22  23
ENDBRANCH   6  22
TORSDOF 5
ENDMDL
MODEL 9
REMARK VINA RESULT:      -6.1      2.143      7.961
REMARK  5 active torsions:
REMARK  status: ('A' for Active; 'I' for Inactive)
REMARK    1  A    between atoms: C3_3  and  C5_5 
REMARK    2  A    between atoms: C6_6  and  N1_7 
REMARK    3  A    between atoms: C7_8  and  O1_9 
REMARK    4  A    between atoms: C12_14  and  C13_15 
REMARK    5  A    between atoms: C13_15  and  O2_16 
ROOT
HETATM    1  N1  UNL     1      21.578   0.276  52.380  1.00  0.00    -0.318 N 
HETATM    2  C7  UNL     1      21.153  -0.120  53.674  1.00  0.00     0.138 A 
HETATM    3  C9  UNL     1      19.859  -0.076  53.300  1.00  0.00     0.117 A 
HETATM    4  C10 UNL     1      18.787   0.163  52.282  1.00  0.00     0.109 A 
HETATM    5  C11 UNL     1      17.741  -0.445  51.807  1.00  0.00     0.020 C 
HETATM    6  C12 UNL     1      16.717  -0.214  50.831  1.00  0.00    -0.014 C 
HETATM    7  C15 UNL     1      16.725   0.905  50.151  1.00  0.00     0.144 C 
HETATM    8  O3  UNL     1      17.804   1.650  50.585  1.00  0.00    -0.359 OA
HETATM    9  C16 UNL     1      17.812   3.052  50.394  1.00  0.00     0.203 C 
HETATM   10  C17 UNL     1      18.849   3.706  51.193  1.00  0.00     0.016 C 
HETATM   11  C18 UNL     1      19.518   2.821  51.898  1.00  0.00     0.087 C 
HETATM   12  N2  UNL     1      19.426   1.423  52.020  1.00  0.00    -0.350 N 
HETATM   13  C19 UNL     1      20.220   0.255  51.900  1.00  0.00     0.208 A 
ENDROOT
BRANCH   1  14
HETATM   14  C6  UNL     1      22.851   0.562  51.846  1.00  0.00     0.095 C 
HETATM   15  C5  UNL     1      23.642   1.482  52.370  1.00  0.00     0.024 C 
BRANCH  15  16
HETATM   16  C3  UNL     1      24.971   1.823  51.862  1.00  0.00    -0.065 C 
HETATM   17  C2  UNL     1      25.146   2.821  51.025  1.00  0.00    -0.024 C 
HETATM   18  C1  UNL     1      26.545   3.093  50.560  1.00  0.00     0.036 C 
HETATM   19  C4  UNL     1      26.088   0.980  52.348  1.00  0.00     0.048 C 
ENDBRANCH  15  16
ENDBRANCH   1  14
BRANCH   2  20
HETATM   20  O1  UNL     1      21.641  -0.457  54.922  1.00  0.00    -0.343 OA
HETATM   21  C8  UNL     1      22.723  -1.321  55.093  1.00  0.00     0.211 C 
ENDBRANCH   2  20
BRANCH   6  22
HETATM   22  C13 UNL     1      15.654  -1.211  50.628  1.00  0.00     0.207 C 
BRANCH  22  23
HETATM   23  O2  UNL     1      15.154  -1.848  51.699  1.00  0.00    -0.391 OA
HETATM   24  C14 UNL     1      14.427  -3.000  51.508  1.00  0.00     0.201 C 
ENDBRANCH  22  23
ENDBRANCH   6  22
TORSDOF 5
ENDMDL
