MODEL 1
REMARK VINA RESULT:      -8.4      0.000      0.000
REMARK  8 active torsions:
REMARK  status: ('A' for Active; 'I' for Inactive)
REMARK    1  A    between atoms: C2_2  and  N1_3 
REMARK    2  A    between atoms: C2_2  and  C10_12 
REMARK    3  A    between atoms: N1_3  and  C3_4 
REMARK    4  A    between atoms: C3_4  and  C4_5 
REMARK    5  A    between atoms: C9_10  and  O1_11 
REMARK    6  A    between atoms: C10_12  and  C12_15 
REMARK    7  A    between atoms: C12_15  and  C13_16 
REMARK    8  A    between atoms: C16_19  and  O2_20 
ROOT
HETATM    1  C10 UNL     1      24.023  -0.348  53.412  1.00  0.00     0.147 C 
HETATM    2  C11 UNL     1      23.882   1.081  53.164  1.00  0.00     0.070 C 
HETATM    3  N2  UNL     1      23.771   2.221  52.983  1.00  0.00    -0.197 NA
ENDROOT
BRANCH   1   4
HETATM    4  C2  UNL     1      22.769  -0.843  54.037  1.00  0.00     0.014 C 
HETATM    5  C1  UNL     1      22.857  -1.334  55.253  1.00  0.00     0.039 C 
BRANCH   4   6
HETATM    6  N1  UNL     1      21.467  -0.855  53.479  1.00  0.00    -0.388 N 
HETATM    7  H3  UNL     1      21.749  -1.065  52.493  1.00  0.00     0.159 HD
BRANCH   6   8
HETATM    8  C3  UNL     1      20.101  -0.682  53.858  1.00  0.00     0.161 C 
BRANCH   8   9
HETATM    9  C4  UNL     1      19.298  -0.344  52.651  1.00  0.00    -0.007 A 
HETATM   10  C5  UNL     1      19.754   0.250  51.490  1.00  0.00     0.011 A 
HETATM   11  C6  UNL     1      18.876   0.496  50.461  1.00  0.00     0.001 A 
HETATM   12  C7  UNL     1      17.532   0.162  50.556  1.00  0.00     0.003 A 
HETATM   13  C8  UNL     1      17.044  -0.438  51.714  1.00  0.00     0.037 A 
HETATM   14  C9  UNL     1      17.947  -0.682  52.750  1.00  0.00     0.073 A 
BRANCH  14  15
HETATM   15  O1  UNL     1      17.411  -1.282  53.886  1.00  0.00    -0.360 OA
HETATM   16  H10 UNL     1      18.001  -1.408  54.702  1.00  0.00     0.217 HD
ENDBRANCH  14  15
ENDBRANCH   8   9
ENDBRANCH   6   8
ENDBRANCH   4   6
ENDBRANCH   1   4
BRANCH   1  17
HETATM   17  C12 UNL     1      25.131  -0.590  54.416  1.00  0.00     0.091 C 
BRANCH  17  18
HETATM   18  C13 UNL     1      26.448  -0.515  53.711  1.00  0.00     0.063 C 
HETATM   19  C14 UNL     1      26.599  -1.094  52.534  1.00  0.00     0.023 C 
HETATM   20  C15 UNL     1      27.281  -2.161  52.432  1.00  0.00     0.051 C 
HETATM   21  C16 UNL     1      28.340  -2.295  53.170  1.00  0.00     0.192 C 
HETATM   22  O3  UNL     1      29.210  -1.358  53.752  1.00  0.00    -0.304 OA
HETATM   23  C17 UNL     1      28.908  -0.021  54.123  1.00  0.00     0.353 C 
HETATM   24  O4  UNL     1      27.515   0.166  54.295  1.00  0.00    -0.329 OA
BRANCH  21  25
HETATM   25  O2  UNL     1      28.592  -3.642  53.380  1.00  0.00    -0.340 OA
HETATM   26  H14 UNL     1      27.788  -4.193  53.664  1.00  0.00     0.220 HD
ENDBRANCH  21  25
ENDBRANCH  17  18
ENDBRANCH   1  17
TORSDOF 8
ENDMDL
MODEL 2
REMARK VINA RESULT:      -8.3      1.880      2.401
REMARK  8 active torsions:
REMARK  status: ('A' for Active; 'I' for Inactive)
REMARK    1  A    between atoms: C2_2  and  N1_3 
REMARK    2  A    between atoms: C2_2  and  C10_12 
REMARK    3  A    between atoms: N1_3  and  C3_4 
REMARK    4  A    between atoms: C3_4  and  C4_5 
REMARK    5  A    between atoms: C9_10  and  O1_11 
REMARK    6  A    between atoms: C10_12  and  C12_15 
REMARK    7  A    between atoms: C12_15  and  C13_16 
REMARK    8  A    between atoms: C16_19  and  O2_20 
ROOT
HETATM    1  C10 UNL     1      23.800  -0.157  53.336  1.00  0.00     0.147 C 
HETATM    2  C11 UNL     1      23.973   1.280  53.162  1.00  0.00     0.070 C 
HETATM    3  N2  UNL     1      24.113   2.425  53.042  1.00  0.00    -0.197 NA
ENDROOT
BRANCH   1   4
HETATM    4  C2  UNL     1      22.477  -0.398  53.971  1.00  0.00     0.014 C 
HETATM    5  C1  UNL     1      22.437  -1.251  54.969  1.00  0.00     0.039 C 
BRANCH   4   6
HETATM    6  N1  UNL     1      21.233   0.183  53.628  1.00  0.00    -0.388 N 
HETATM    7  H3  UNL     1      21.075   0.698  54.526  1.00  0.00     0.159 HD
BRANCH   6   8
HETATM    8  C3  UNL     1      20.298   0.235  52.549  1.00  0.00     0.161 C 
BRANCH   8   9
HETATM    9  C4  UNL     1      20.860   1.073  51.455  1.00  0.00    -0.007 A 
HETATM   10  C5  UNL     1      21.457   0.628  50.291  1.00  0.00     0.011 A 
HETATM   11  C6  UNL     1      21.927   1.540  49.375  1.00  0.00     0.001 A 
HETATM   12  C7  UNL     1      21.819   2.906  49.588  1.00  0.00     0.003 A 
HETATM   13  C8  UNL     1      21.222   3.385  50.752  1.00  0.00     0.037 A 
HETATM   14  C9  UNL     1      20.750   2.447  51.673  1.00  0.00     0.073 A 
BRANCH  14  15
HETATM   15  O1  UNL     1      20.162   2.975  52.819  1.00  0.00    -0.360 OA
HETATM   16  H10 UNL     1      20.755   3.404  53.524  1.00  0.00     0.217 HD
ENDBRANCH  14  15
ENDBRANCH   8   9
ENDBRANCH   6   8
ENDBRANCH   4   6
ENDBRANCH   1   4
BRANCH   1  17
HETATM   17  C12 UNL     1      24.844  -0.689  54.296  1.00  0.00     0.091 C 
BRANCH  17  18
HETATM   18  C13 UNL     1      26.196  -0.533  53.677  1.00  0.00     0.063 C 
HETATM   19  C14 UNL     1      26.445  -1.065  52.495  1.00  0.00     0.023 C 
HETATM   20  C15 UNL     1      27.181  -2.097  52.403  1.00  0.00     0.051 C 
HETATM   21  C16 UNL     1      28.198  -2.208  53.202  1.00  0.00     0.192 C 
HETATM   22  O3  UNL     1      28.987  -1.252  53.864  1.00  0.00    -0.304 OA
HETATM   23  C17 UNL     1      28.601   0.057  54.256  1.00  0.00     0.353 C 
HETATM   24  O4  UNL     1      27.193   0.175  54.347  1.00  0.00    -0.329 OA
BRANCH  21  25
HETATM   25  O2  UNL     1      28.499  -3.549  53.387  1.00  0.00    -0.340 OA
HETATM   26  H14 UNL     1      28.744  -3.809  54.338  1.00  0.00     0.220 HD
ENDBRANCH  21  25
ENDBRANCH  17  18
ENDBRANCH   1  17
TORSDOF 8
ENDMDL
MODEL 3
REMARK VINA RESULT:      -8.2      2.419      3.671
REMARK  8 active torsions:
REMARK  status: ('A' for Active; 'I' for Inactive)
REMARK    1  A    between atoms: C2_2  and  N1_3 
REMARK    2  A    between atoms: C2_2  and  C10_12 
REMARK    3  A    between atoms: N1_3  and  C3_4 
REMARK    4  A    between atoms: C3_4  and  C4_5 
REMARK    5  A    between atoms: C9_10  and  O1_11 
REMARK    6  A    between atoms: C10_12  and  C12_15 
REMARK    7  A    between atoms: C12_15  and  C13_16 
REMARK    8  A    between atoms: C16_19  and  O2_20 
ROOT
HETATM    1  C10 UNL     1      25.128   1.447  51.901  1.00  0.00     0.147 C 
HETATM    2  C11 UNL     1      26.271   2.231  51.453  1.00  0.00     0.070 C 
HETATM    3  N2  UNL     1      27.179   2.866  51.110  1.00  0.00    -0.197 NA
ENDROOT
BRANCH   1   4
HETATM    4  C2  UNL     1      23.887   2.198  51.577  1.00  0.00     0.014 C 
HETATM    5  C1  UNL     1      23.812   3.442  51.992  1.00  0.00     0.039 C 
BRANCH   4   6
HETATM    6  N1  UNL     1      22.752   1.733  50.869  1.00  0.00    -0.388 N 
HETATM    7  H3  UNL     1      22.796   2.423  50.083  1.00  0.00     0.159 HD
BRANCH   6   8
HETATM    8  C3  UNL     1      21.738   0.730  50.943  1.00  0.00     0.161 C 
BRANCH   8   9
HETATM    9  C4  UNL     1      21.720   0.153  52.315  1.00  0.00    -0.007 A 
HETATM   10  C5  UNL     1      22.374  -0.985  52.746  1.00  0.00     0.011 A 
HETATM   11  C6  UNL     1      22.254  -1.384  54.057  1.00  0.00     0.001 A 
HETATM   12  C7  UNL     1      21.487  -0.670  54.967  1.00  0.00     0.003 A 
HETATM   13  C8  UNL     1      20.817   0.482  54.561  1.00  0.00     0.037 A 
HETATM   14  C9  UNL     1      20.948   0.874  53.228  1.00  0.00     0.073 A 
BRANCH  14  15
HETATM   15  O1  UNL     1      20.260   2.030  52.872  1.00  0.00    -0.360 OA
HETATM   16  H10 UNL     1      19.480   1.960  52.225  1.00  0.00     0.217 HD
ENDBRANCH  14  15
ENDBRANCH   8   9
ENDBRANCH   6   8
ENDBRANCH   4   6
ENDBRANCH   1   4
BRANCH   1  17
HETATM   17  C12 UNL     1      25.163   1.298  53.408  1.00  0.00     0.091 C 
BRANCH  17  18
HETATM   18  C13 UNL     1      26.055   0.152  53.762  1.00  0.00     0.063 C 
HETATM   19  C14 UNL     1      26.800   0.208  54.851  1.00  0.00     0.023 C 
HETATM   20  C15 UNL     1      28.056   0.380  54.755  1.00  0.00     0.051 C 
HETATM   21  C16 UNL     1      28.687  -0.185  53.771  1.00  0.00     0.192 C 
HETATM   22  O3  UNL     1      28.415  -1.335  53.011  1.00  0.00    -0.304 OA
HETATM   23  C17 UNL     1      27.143  -1.915  52.757  1.00  0.00     0.353 C 
HETATM   24  O4  UNL     1      26.100  -0.976  52.943  1.00  0.00    -0.329 OA
BRANCH  21  25
HETATM   25  O2  UNL     1      29.831   0.541  53.475  1.00  0.00    -0.340 OA
HETATM   26  H14 UNL     1      29.973   1.371  54.042  1.00  0.00     0.220 HD
ENDBRANCH  21  25
ENDBRANCH  17  18
ENDBRANCH   1  17
TORSDOF 8
ENDMDL
MODEL 4
REMARK VINA RESULT:      -7.9      3.960      8.014
REMARK  8 active torsions:
REMARK  status: ('A' for Active; 'I' for Inactive)
REMARK    1  A    between atoms: C2_2  and  N1_3 
REMARK    2  A    between atoms: C2_2  and  C10_12 
REMARK    3  A    between atoms: N1_3  and  C3_4 
REMARK    4  A    between atoms: C3_4  and  C4_5 
REMARK    5  A    between atoms: C9_10  and  O1_11 
REMARK    6  A    between atoms: C10_12  and  C12_15 
REMARK    7  A    between atoms: C12_15  and  C13_16 
REMARK    8  A    between atoms: C16_19  and  O2_20 
ROOT
HETATM    1  C10 UNL     1      24.485   2.429  51.998  1.00  0.00     0.147 C 
HETATM    2  C11 UNL     1      25.875   2.579  51.587  1.00  0.00     0.070 C 
HETATM    3  N2  UNL     1      26.978   2.689  51.246  1.00  0.00    -0.197 NA
ENDROOT
BRANCH   1   4
HETATM    4  C2  UNL     1      24.267   1.019  52.415  1.00  0.00     0.014 C 
HETATM    5  C1  UNL     1      23.029   0.647  52.650  1.00  0.00     0.039 C 
BRANCH   4   6
HETATM    6  N1  UNL     1      25.242   0.009  52.596  1.00  0.00    -0.388 N 
HETATM    7  H3  UNL     1      25.508  -0.101  51.590  1.00  0.00     0.159 HD
BRANCH   6   8
HETATM    8  C3  UNL     1      25.851  -0.765  53.631  1.00  0.00     0.161 C 
BRANCH   8   9
HETATM    9  C4  UNL     1      27.310  -0.476  53.664  1.00  0.00    -0.007 A 
HETATM   10  C5  UNL     1      27.914   0.710  54.035  1.00  0.00     0.011 A 
HETATM   11  C6  UNL     1      29.285   0.814  54.011  1.00  0.00     0.001 A 
HETATM   12  C7  UNL     1      30.087  -0.248  53.619  1.00  0.00     0.003 A 
HETATM   13  C8  UNL     1      29.507  -1.456  53.239  1.00  0.00     0.037 A 
HETATM   14  C9  UNL     1      28.115  -1.547  53.269  1.00  0.00     0.073 A 
BRANCH  14  15
HETATM   15  O1  UNL     1      27.584  -2.773  52.881  1.00  0.00    -0.360 OA
HETATM   16  H10 UNL     1      27.982  -3.626  53.264  1.00  0.00     0.217 HD
ENDBRANCH  14  15
ENDBRANCH   8   9
ENDBRANCH   6   8
ENDBRANCH   4   6
ENDBRANCH   1   4
BRANCH   1  17
HETATM   17  C12 UNL     1      23.569   2.677  50.816  1.00  0.00     0.091 C 
BRANCH  17  18
HETATM   18  C13 UNL     1      23.656   4.119  50.430  1.00  0.00     0.063 C 
HETATM   19  C14 UNL     1      23.942   4.452  49.185  1.00  0.00     0.023 C 
HETATM   20  C15 UNL     1      25.087   4.923  48.898  1.00  0.00     0.051 C 
HETATM   21  C16 UNL     1      25.664   5.715  49.749  1.00  0.00     0.192 C 
HETATM   22  O3  UNL     1      25.153   6.570  50.740  1.00  0.00    -0.304 OA
HETATM   23  C17 UNL     1      23.920   6.442  51.432  1.00  0.00     0.353 C 
HETATM   24  O4  UNL     1      23.436   5.112  51.384  1.00  0.00    -0.329 OA
BRANCH  21  25
HETATM   25  O2  UNL     1      27.040   5.646  49.588  1.00  0.00    -0.340 OA
HETATM   26  H14 UNL     1      27.478   4.814  49.970  1.00  0.00     0.220 HD
ENDBRANCH  21  25
ENDBRANCH  17  18
ENDBRANCH   1  17
TORSDOF 8
ENDMDL
MODEL 5
REMARK VINA RESULT:      -7.9      3.656      5.609
REMARK  8 active torsions:
REMARK  status: ('A' for Active; 'I' for Inactive)
REMARK    1  A    between atoms: C2_2  and  N1_3 
REMARK    2  A    between atoms: C2_2  and  C10_12 
REMARK    3  A    between atoms: N1_3  and  C3_4 
REMARK    4  A    between atoms: C3_4  and  C4_5 
REMARK    5  A    between atoms: C9_10  and  O1_11 
REMARK    6  A    between atoms: C10_12  and  C12_15 
REMARK    7  A    between atoms: C12_15  and  C13_16 
REMARK    8  A    between atoms: C16_19  and  O2_20 
ROOT
HETATM    1  C10 UNL     1      24.731   0.522  53.291  1.00  0.00     0.147 C 
HETATM    2  C11 UNL     1      23.523  -0.287  53.196  1.00  0.00     0.070 C 
HETATM    3  N2  UNL     1      22.563  -0.932  53.103  1.00  0.00    -0.197 NA
ENDROOT
BRANCH   1   4
HETATM    4  C2  UNL     1      24.425   1.884  52.781  1.00  0.00     0.014 C 
HETATM    5  C1  UNL     1      24.942   2.900  53.434  1.00  0.00     0.039 C 
BRANCH   4   6
HETATM    6  N1  UNL     1      23.632   2.233  51.661  1.00  0.00    -0.388 N 
HETATM    7  H3  UNL     1      22.772   2.511  52.190  1.00  0.00     0.159 HD
BRANCH   6   8
HETATM    8  C3  UNL     1      23.699   2.291  50.235  1.00  0.00     0.161 C 
BRANCH   8   9
HETATM    9  C4  UNL     1      24.729   3.287  49.834  1.00  0.00    -0.007 A 
HETATM   10  C5  UNL     1      26.071   3.050  49.610  1.00  0.00     0.011 A 
HETATM   11  C6  UNL     1      26.895   4.087  49.242  1.00  0.00     0.001 A 
HETATM   12  C7  UNL     1      26.412   5.379  49.088  1.00  0.00     0.003 A 
HETATM   13  C8  UNL     1      25.063   5.650  49.307  1.00  0.00     0.037 A 
HETATM   14  C9  UNL     1      24.240   4.586  49.681  1.00  0.00     0.073 A 
BRANCH  14  15
HETATM   15  O1  UNL     1      22.901   4.907  49.888  1.00  0.00    -0.360 OA
HETATM   16  H10 UNL     1      22.473   4.679  50.780  1.00  0.00     0.217 HD
ENDBRANCH  14  15
ENDBRANCH   8   9
ENDBRANCH   6   8
ENDBRANCH   4   6
ENDBRANCH   1   4
BRANCH   1  17
HETATM   17  C12 UNL     1      25.805  -0.048  52.386  1.00  0.00     0.091 C 
BRANCH  17  18
HETATM   18  C13 UNL     1      26.812  -0.767  53.224  1.00  0.00     0.063 C 
HETATM   19  C14 UNL     1      27.260  -0.214  54.336  1.00  0.00     0.023 C 
HETATM   20  C15 UNL     1      28.440   0.257  54.384  1.00  0.00     0.051 C 
HETATM   21  C16 UNL     1      29.383  -0.366  53.745  1.00  0.00     0.192 C 
HETATM   22  O3  UNL     1      29.539  -1.710  53.366  1.00  0.00    -0.304 OA
HETATM   23  C17 UNL     1      28.510  -2.658  53.122  1.00  0.00     0.353 C 
HETATM   24  O4  UNL     1      27.279  -2.021  52.832  1.00  0.00    -0.329 OA
BRANCH  21  25
HETATM   25  O2  UNL     1      30.386   0.531  53.408  1.00  0.00    -0.340 OA
HETATM   26  H14 UNL     1      30.968   0.253  52.625  1.00  0.00     0.220 HD
ENDBRANCH  21  25
ENDBRANCH  17  18
ENDBRANCH   1  17
TORSDOF 8
ENDMDL
MODEL 6
REMARK VINA RESULT:      -7.9      4.652      7.191
REMARK  8 active torsions:
REMARK  status: ('A' for Active; 'I' for Inactive)
REMARK    1  A    between atoms: C2_2  and  N1_3 
REMARK    2  A    between atoms: C2_2  and  C10_12 
REMARK    3  A    between atoms: N1_3  and  C3_4 
REMARK    4  A    between atoms: C3_4  and  C4_5 
REMARK    5  A    between atoms: C9_10  and  O1_11 
REMARK    6  A    between atoms: C10_12  and  C12_15 
REMARK    7  A    between atoms: C12_15  and  C13_16 
REMARK    8  A    between atoms: C16_19  and  O2_20 
ROOT
HETATM    1  C10 UNL     1      24.747   2.596  52.497  1.00  0.00     0.147 C 
HETATM    2  C11 UNL     1      23.555   1.808  52.781  1.00  0.00     0.070 C 
HETATM    3  N2  UNL     1      22.604   1.177  52.990  1.00  0.00    -0.197 NA
ENDROOT
BRANCH   1   4
HETATM    4  C2  UNL     1      24.325   3.890  51.900  1.00  0.00     0.014 C 
HETATM    5  C1  UNL     1      23.274   4.480  52.424  1.00  0.00     0.039 C 
BRANCH   4   6
HETATM    6  N1  UNL     1      24.919   4.579  50.815  1.00  0.00    -0.388 N 
HETATM    7  H3  UNL     1      25.683   5.046  51.358  1.00  0.00     0.159 HD
BRANCH   6   8
HETATM    8  C3  UNL     1      24.766   4.764  49.407  1.00  0.00     0.161 C 
BRANCH   8   9
HETATM    9  C4  UNL     1      25.933   5.527  48.885  1.00  0.00    -0.007 A 
HETATM   10  C5  UNL     1      25.944   6.842  48.462  1.00  0.00     0.011 A 
HETATM   11  C6  UNL     1      27.114   7.401  48.004  1.00  0.00     0.001 A 
HETATM   12  C7  UNL     1      28.295   6.674  47.954  1.00  0.00     0.003 A 
HETATM   13  C8  UNL     1      28.315   5.346  48.374  1.00  0.00     0.037 A 
HETATM   14  C9  UNL     1      27.119   4.793  48.836  1.00  0.00     0.073 A 
BRANCH  14  15
HETATM   15  O1  UNL     1      27.191   3.464  49.244  1.00  0.00    -0.360 OA
HETATM   16  H10 UNL     1      28.077   2.973  49.170  1.00  0.00     0.217 HD
ENDBRANCH  14  15
ENDBRANCH   8   9
ENDBRANCH   6   8
ENDBRANCH   4   6
ENDBRANCH   1   4
BRANCH   1  17
HETATM   17  C12 UNL     1      25.593   1.894  51.454  1.00  0.00     0.091 C 
BRANCH  17  18
HETATM   18  C13 UNL     1      26.823   1.354  52.111  1.00  0.00     0.063 C 
HETATM   19  C14 UNL     1      26.994   0.049  52.216  1.00  0.00     0.023 C 
HETATM   20  C15 UNL     1      26.864  -0.521  53.345  1.00  0.00     0.051 C 
HETATM   21  C16 UNL     1      27.273   0.103  54.407  1.00  0.00     0.192 C 
HETATM   22  O3  UNL     1      28.256   1.087  54.604  1.00  0.00    -0.304 OA
HETATM   23  C17 UNL     1      28.724   2.035  53.655  1.00  0.00     0.353 C 
HETATM   24  O4  UNL     1      27.788   2.227  52.611  1.00  0.00    -0.329 OA
BRANCH  21  25
HETATM   25  O2  UNL     1      26.558  -0.339  55.510  1.00  0.00    -0.340 OA
HETATM   26  H14 UNL     1      26.723  -1.306  55.772  1.00  0.00     0.220 HD
ENDBRANCH  21  25
ENDBRANCH  17  18
ENDBRANCH   1  17
TORSDOF 8
ENDMDL
MODEL 7
REMARK VINA RESULT:      -7.9      4.085      6.308
REMARK  8 active torsions:
REMARK  status: ('A' for Active; 'I' for Inactive)
REMARK    1  A    between atoms: C2_2  and  N1_3 
REMARK    2  A    between atoms: C2_2  and  C10_12 
REMARK    3  A    between atoms: N1_3  and  C3_4 
REMARK    4  A    between atoms: C3_4  and  C4_5 
REMARK    5  A    between atoms: C9_10  and  O1_11 
REMARK    6  A    between atoms: C10_12  and  C12_15 
REMARK    7  A    between atoms: C12_15  and  C13_16 
REMARK    8  A    between atoms: C16_19  and  O2_20 
ROOT
HETATM    1  C10 UNL     1      25.331   1.014  51.986  1.00  0.00     0.147 C 
HETATM    2  C11 UNL     1      26.483   1.893  51.830  1.00  0.00     0.070 C 
HETATM    3  N2  UNL     1      27.394   2.601  51.720  1.00  0.00    -0.197 NA
ENDROOT
BRANCH   1   4
HETATM    4  C2  UNL     1      24.113   1.756  51.569  1.00  0.00     0.014 C 
HETATM    5  C1  UNL     1      22.953   1.178  51.785  1.00  0.00     0.039 C 
BRANCH   4   6
HETATM    6  N1  UNL     1      24.042   3.029  50.953  1.00  0.00    -0.388 N 
HETATM    7  H3  UNL     1      24.040   2.696  49.961  1.00  0.00     0.159 HD
BRANCH   6   8
HETATM    8  C3  UNL     1      23.983   4.417  51.289  1.00  0.00     0.161 C 
BRANCH   8   9
HETATM    9  C4  UNL     1      24.943   5.168  50.435  1.00  0.00    -0.007 A 
HETATM   10  C5  UNL     1      25.693   4.665  49.389  1.00  0.00     0.011 A 
HETATM   11  C6  UNL     1      26.539   5.499  48.696  1.00  0.00     0.001 A 
HETATM   12  C7  UNL     1      26.663   6.843  49.019  1.00  0.00     0.003 A 
HETATM   13  C8  UNL     1      25.919   7.378  50.069  1.00  0.00     0.037 A 
HETATM   14  C9  UNL     1      25.064   6.519  50.763  1.00  0.00     0.073 A 
BRANCH  14  15
HETATM   15  O1  UNL     1      24.344   7.101  51.802  1.00  0.00    -0.360 OA
HETATM   16  H10 UNL     1      24.755   7.132  52.730  1.00  0.00     0.217 HD
ENDBRANCH  14  15
ENDBRANCH   8   9
ENDBRANCH   6   8
ENDBRANCH   4   6
ENDBRANCH   1   4
BRANCH   1  17
HETATM   17  C12 UNL     1      25.144   0.665  53.449  1.00  0.00     0.091 C 
BRANCH  17  18
HETATM   18  C13 UNL     1      26.225  -0.282  53.863  1.00  0.00     0.063 C 
HETATM   19  C14 UNL     1      26.962  -0.017  54.926  1.00  0.00     0.023 C 
HETATM   20  C15 UNL     1      28.168   0.359  54.787  1.00  0.00     0.051 C 
HETATM   21  C16 UNL     1      28.875  -0.162  53.832  1.00  0.00     0.192 C 
HETATM   22  O3  UNL     1      28.796  -1.396  53.164  1.00  0.00    -0.304 OA
HETATM   23  C17 UNL     1      27.641  -2.202  52.984  1.00  0.00     0.353 C 
HETATM   24  O4  UNL     1      26.454  -1.444  53.128  1.00  0.00    -0.329 OA
BRANCH  21  25
HETATM   25  O2  UNL     1      29.873   0.724  53.456  1.00  0.00    -0.340 OA
HETATM   26  H14 UNL     1      30.722   0.679  54.011  1.00  0.00     0.220 HD
ENDBRANCH  21  25
ENDBRANCH  17  18
ENDBRANCH   1  17
TORSDOF 8
ENDMDL
MODEL 8
REMARK VINA RESULT:      -7.9      4.399      6.912
REMARK  8 active torsions:
REMARK  status: ('A' for Active; 'I' for Inactive)
REMARK    1  A    between atoms: C2_2  and  N1_3 
REMARK    2  A    between atoms: C2_2  and  C10_12 
REMARK    3  A    between atoms: N1_3  and  C3_4 
REMARK    4  A    between atoms: C3_4  and  C4_5 
REMARK    5  A    between atoms: C9_10  and  O1_11 
REMARK    6  A    between atoms: C10_12  and  C12_15 
REMARK    7  A    between atoms: C12_15  and  C13_16 
REMARK    8  A    between atoms: C16_19  and  O2_20 
ROOT
HETATM    1  C10 UNL     1      25.497   1.603  52.061  1.00  0.00     0.147 C 
HETATM    2  C11 UNL     1      26.859   2.114  52.151  1.00  0.00     0.070 C 
HETATM    3  N2  UNL     1      27.939   2.528  52.238  1.00  0.00    -0.197 NA
ENDROOT
BRANCH   1   4
HETATM    4  C2  UNL     1      24.593   2.733  51.724  1.00  0.00     0.014 C 
HETATM    5  C1  UNL     1      23.408   2.745  52.292  1.00  0.00     0.039 C 
BRANCH   4   6
HETATM    6  N1  UNL     1      24.849   3.817  50.850  1.00  0.00    -0.388 N 
HETATM    7  H3  UNL     1      25.395   4.404  51.523  1.00  0.00     0.159 HD
BRANCH   6   8
HETATM    8  C3  UNL     1      24.595   4.239  49.509  1.00  0.00     0.161 C 
BRANCH   8   9
HETATM    9  C4  UNL     1      25.698   5.132  49.060  1.00  0.00    -0.007 A 
HETATM   10  C5  UNL     1      25.607   6.477  48.758  1.00  0.00     0.011 A 
HETATM   11  C6  UNL     1      26.729   7.162  48.355  1.00  0.00     0.001 A 
HETATM   12  C7  UNL     1      27.962   6.536  48.242  1.00  0.00     0.003 A 
HETATM   13  C8  UNL     1      28.085   5.181  48.541  1.00  0.00     0.037 A 
HETATM   14  C9  UNL     1      26.937   4.499  48.948  1.00  0.00     0.073 A 
BRANCH  14  15
HETATM   15  O1  UNL     1      27.112   3.148  49.234  1.00  0.00    -0.360 OA
HETATM   16  H10 UNL     1      26.306   2.530  49.205  1.00  0.00     0.217 HD
ENDBRANCH  14  15
ENDBRANCH   8   9
ENDBRANCH   6   8
ENDBRANCH   4   6
ENDBRANCH   1   4
BRANCH   1  17
HETATM   17  C12 UNL     1      25.053   1.082  53.413  1.00  0.00     0.091 C 
BRANCH  17  18
HETATM   18  C13 UNL     1      25.908  -0.085  53.787  1.00  0.00     0.063 C 
HETATM   19  C14 UNL     1      26.544  -0.092  54.944  1.00  0.00     0.023 C 
HETATM   20  C15 UNL     1      27.803   0.080  54.980  1.00  0.00     0.051 C 
HETATM   21  C16 UNL     1      28.527  -0.432  54.032  1.00  0.00     0.192 C 
HETATM   22  O3  UNL     1      28.332  -1.538  53.187  1.00  0.00    -0.304 OA
HETATM   23  C17 UNL     1      27.092  -2.098  52.780  1.00  0.00     0.353 C 
HETATM   24  O4  UNL     1      26.034  -1.167  52.916  1.00  0.00    -0.329 OA
BRANCH  21  25
HETATM   25  O2  UNL     1      29.693   0.305  53.889  1.00  0.00    -0.340 OA
HETATM   26  H14 UNL     1      30.123   0.604  54.758  1.00  0.00     0.220 HD
ENDBRANCH  21  25
ENDBRANCH  17  18
ENDBRANCH   1  17
TORSDOF 8
ENDMDL
MODEL 9
REMARK VINA RESULT:      -7.9      2.625      3.794
REMARK  8 active torsions:
REMARK  status: ('A' for Active; 'I' for Inactive)
REMARK    1  A    between atoms: C2_2  and  N1_3 
REMARK    2  A    between atoms: C2_2  and  C10_12 
REMARK    3  A    between atoms: N1_3  and  C3_4 
REMARK    4  A    between atoms: C3_4  and  C4_5 
REMARK    5  A    between atoms: C9_10  and  O1_11 
REMARK    6  A    between atoms: C10_12  and  C12_15 
REMARK    7  A    between atoms: C12_15  and  C13_16 
REMARK    8  A    between atoms: C16_19  and  O2_20 
ROOT
HETATM    1  C10 UNL     1      25.594   2.380  51.130  1.00  0.00     0.147 C 
HETATM    2  C11 UNL     1      25.845   3.357  50.079  1.00  0.00     0.070 C 
HETATM    3  N2  UNL     1      26.047   4.148  49.255  1.00  0.00    -0.197 NA
ENDROOT
BRANCH   1   4
HETATM    4  C2  UNL     1      24.253   2.648  51.712  1.00  0.00     0.014 C 
HETATM    5  C1  UNL     1      24.213   3.268  52.870  1.00  0.00     0.039 C 
BRANCH   4   6
HETATM    6  N1  UNL     1      22.989   2.312  51.168  1.00  0.00    -0.388 N 
HETATM    7  H3  UNL     1      22.709   3.278  50.878  1.00  0.00     0.159 HD
BRANCH   6   8
HETATM    8  C3  UNL     1      22.146   1.179  50.953  1.00  0.00     0.161 C 
BRANCH   8   9
HETATM    9  C4  UNL     1      21.954   0.460  52.241  1.00  0.00    -0.007 A 
HETATM   10  C5  UNL     1      22.581  -0.704  52.644  1.00  0.00     0.011 A 
HETATM   11  C6  UNL     1      22.291  -1.243  53.875  1.00  0.00     0.001 A 
HETATM   12  C7  UNL     1      21.378  -0.646  54.733  1.00  0.00     0.003 A 
HETATM   13  C8  UNL     1      20.732   0.528  54.356  1.00  0.00     0.037 A 
HETATM   14  C9  UNL     1      21.036   1.063  53.103  1.00  0.00     0.073 A 
BRANCH  14  15
HETATM   15  O1  UNL     1      20.364   2.237  52.772  1.00  0.00    -0.360 OA
HETATM   16  H10 UNL     1      20.688   2.783  51.978  1.00  0.00     0.217 HD
ENDBRANCH  14  15
ENDBRANCH   8   9
ENDBRANCH   6   8
ENDBRANCH   4   6
ENDBRANCH   1   4
BRANCH   1  17
HETATM   17  C12 UNL     1      26.596   2.561  52.252  1.00  0.00     0.091 C 
BRANCH  17  18
HETATM   18  C13 UNL     1      27.236   1.243  52.548  1.00  0.00     0.063 C 
HETATM   19  C14 UNL     1      26.625   0.123  52.208  1.00  0.00     0.023 C 
HETATM   20  C15 UNL     1      26.093  -0.610  53.100  1.00  0.00     0.051 C 
HETATM   21  C16 UNL     1      26.686  -0.718  54.249  1.00  0.00     0.192 C 
HETATM   22  O3  UNL     1      28.032  -0.591  54.633  1.00  0.00    -0.304 OA
HETATM   23  C17 UNL     1      29.039   0.177  53.990  1.00  0.00     0.353 C 
HETATM   24  O4  UNL     1      28.476   1.195  53.183  1.00  0.00    -0.329 OA
BRANCH  21  25
HETATM   25  O2  UNL     1      25.750  -1.015  55.229  1.00  0.00    -0.340 OA
HETATM   26  H14 UNL     1      24.797  -1.118  54.897  1.00  0.00     0.220 HD
ENDBRANCH  21  25
ENDBRANCH  17  18
ENDBRANCH   1  17
TORSDOF 8
ENDMDL
