MODEL 1
REMARK VINA RESULT:      -6.9      0.000      0.000
REMARK  4 active torsions:
REMARK  status: ('A' for Active; 'I' for Inactive)
REMARK    1  A    between atoms: C2_2  and  N1_3 
REMARK    2  A    between atoms: N1_3  and  C3_4 
REMARK    3  A    between atoms: N1_3  and  S1_30 
REMARK    4  A    between atoms: C18_24  and  O2_25 
ROOT
HETATM    1  C3  UNL     1      32.369   7.173  47.311  1.00  0.00     0.155 C 
HETATM    2  C4  UNL     1      31.696   5.935  46.670  1.00  0.00     0.269 C 
HETATM    3  N2  UNL     1      32.037   6.435  45.182  1.00  0.00    -0.249 NA
HETATM    4  C5  UNL     1      31.494   7.390  44.656  1.00  0.00     0.230 C 
HETATM    5  N3  UNL     1      32.140   7.447  43.315  1.00  0.00    -0.236 NA
HETATM    6  C6  UNL     1      33.084   6.523  43.143  1.00  0.00     0.130 C 
HETATM    7  C7  UNL     1      33.465   6.900  41.738  1.00  0.00     0.270 C 
HETATM    8  O1  UNL     1      33.270   7.676  40.732  1.00  0.00    -0.266 OA
HETATM    9  N4  UNL     1      34.518   5.990  41.331  1.00  0.00    -0.352 N 
HETATM   10  C8  UNL     1      34.365   4.808  42.182  1.00  0.00     0.160 C 
HETATM   11  C9  UNL     1      33.959   5.408  43.476  1.00  0.00    -0.013 C 
HETATM   12  C10 UNL     1      34.026   5.438  44.672  1.00  0.00     0.073 C 
HETATM   13  C11 UNL     1      35.028   4.130  44.805  1.00  0.00     0.267 C 
HETATM   14  N5  UNL     1      34.037   3.805  45.741  1.00  0.00     0.009 N 
HETATM   15  C12 UNL     1      34.390   3.940  46.919  1.00  0.00     0.162 A 
HETATM   16  C13 UNL     1      34.767   4.008  48.206  1.00  0.00     0.036 A 
HETATM   17  C14 UNL     1      35.090   5.136  48.917  1.00  0.00     0.002 A 
HETATM   18  C15 UNL     1      35.024   6.403  48.288  1.00  0.00     0.008 A 
HETATM   19  C16 UNL     1      34.654   6.178  47.019  1.00  0.00    -0.005 A 
HETATM   20  C17 UNL     1      34.337   5.246  46.120  1.00  0.00     0.228 A 
HETATM   21  C18 UNL     1      33.773   7.414  46.617  1.00  0.00     0.175 C 
HETATM   22  C20 UNL     1      32.554   3.710  46.060  1.00  0.00     0.331 C 
HETATM   23  C21 UNL     1      32.344   2.538  46.915  1.00  0.00     0.071 C 
HETATM   24  O3  UNL     1      32.418   4.889  46.813  1.00  0.00    -0.330 OA
HETATM   25  H9  UNL     1      35.303   6.003  40.595  1.00  0.00     0.163 HD
ENDROOT
BRANCH   1  26
HETATM   26  N1  UNL     1      31.522   8.300  47.250  1.00  0.00    -0.222 NA
BRANCH  26  27
HETATM   27  C2  UNL     1      31.869   9.278  48.263  1.00  0.00     0.101 C 
HETATM   28  C1  UNL     1      31.518  10.693  47.856  1.00  0.00     0.021 C 
ENDBRANCH  26  27
BRANCH  26  29
HETATM   29  S1  UNL     1      29.854   7.913  47.565  1.00  0.00     0.088 S 
HETATM   30  C22 UNL     1      28.681   8.563  46.444  1.00  0.00     0.146 C 
HETATM   31  O4  UNL     1      29.477   7.762  48.987  1.00  0.00    -0.242 OA
ENDBRANCH  26  29
ENDBRANCH   1  26
BRANCH  21  32
HETATM   32  O2  UNL     1      34.342   8.501  47.247  1.00  0.00    -0.384 OA
HETATM   33  C19 UNL     1      34.893   9.418  46.332  1.00  0.00     0.202 C 
ENDBRANCH  21  32
TORSDOF 4
ENDMDL
MODEL 2
REMARK VINA RESULT:      -6.7      4.632      7.871
REMARK  4 active torsions:
REMARK  status: ('A' for Active; 'I' for Inactive)
REMARK    1  A    between atoms: C2_2  and  N1_3 
REMARK    2  A    between atoms: N1_3  and  C3_4 
REMARK    3  A    between atoms: N1_3  and  S1_30 
REMARK    4  A    between atoms: C18_24  and  O2_25 
ROOT
HETATM    1  C3  UNL     1      26.249   8.027  46.501  1.00  0.00     0.155 C 
HETATM    2  C4  UNL     1      27.493   8.579  45.764  1.00  0.00     0.269 C 
HETATM    3  N2  UNL     1      27.403   9.990  46.527  1.00  0.00    -0.249 NA
HETATM    4  C5  UNL     1      26.528  10.810  46.315  1.00  0.00     0.230 C 
HETATM    5  N3  UNL     1      26.874  11.918  47.249  1.00  0.00    -0.236 NA
HETATM    6  C6  UNL     1      27.937  11.657  48.008  1.00  0.00     0.130 C 
HETATM    7  C7  UNL     1      27.951  12.956  48.766  1.00  0.00     0.270 C 
HETATM    8  O1  UNL     1      27.409  14.105  48.962  1.00  0.00    -0.266 OA
HETATM    9  N4  UNL     1      29.071  12.892  49.686  1.00  0.00    -0.352 N 
HETATM   10  C8  UNL     1      29.991  11.906  49.115  1.00  0.00     0.160 C 
HETATM   11  C9  UNL     1      29.057  10.902  48.549  1.00  0.00    -0.013 C 
HETATM   12  C10 UNL     1      28.763   9.759  48.346  1.00  0.00     0.073 C 
HETATM   13  C11 UNL     1      30.134   9.122  49.015  1.00  0.00     0.267 C 
HETATM   14  N5  UNL     1      30.090   8.438  47.793  1.00  0.00     0.009 N 
HETATM   15  C12 UNL     1      29.738   7.256  47.887  1.00  0.00     0.162 A 
HETATM   16  C13 UNL     1      29.430   5.951  47.966  1.00  0.00     0.036 A 
HETATM   17  C14 UNL     1      28.225   5.404  48.332  1.00  0.00     0.002 A 
HETATM   18  C15 UNL     1      27.142   6.255  48.660  1.00  0.00     0.008 A 
HETATM   19  C16 UNL     1      27.598   7.511  48.553  1.00  0.00    -0.005 A 
HETATM   20  C17 UNL     1      28.658   8.270  48.274  1.00  0.00     0.228 A 
HETATM   21  C18 UNL     1      26.376   8.356  48.045  1.00  0.00     0.175 C 
HETATM   22  C20 UNL     1      29.897   8.511  46.288  1.00  0.00     0.331 C 
HETATM   23  C21 UNL     1      30.799   7.539  45.663  1.00  0.00     0.071 C 
HETATM   24  O3  UNL     1      28.569   8.056  46.216  1.00  0.00    -0.330 OA
HETATM   25  H9  UNL     1      29.339  13.381  50.606  1.00  0.00     0.163 HD
ENDROOT
BRANCH   1  26
HETATM   26  N1  UNL     1      25.058   8.520  45.927  1.00  0.00    -0.222 NA
BRANCH  26  27
HETATM   27  C2  UNL     1      23.920   7.693  46.278  1.00  0.00     0.101 C 
HETATM   28  C1  UNL     1      22.627   8.475  46.348  1.00  0.00     0.021 C 
ENDBRANCH  26  27
BRANCH  26  29
HETATM   29  S1  UNL     1      25.089   8.511  44.186  1.00  0.00     0.088 S 
HETATM   30  C22 UNL     1      24.888  10.059  43.398  1.00  0.00     0.146 C 
HETATM   31  O4  UNL     1      24.552   7.299  43.530  1.00  0.00    -0.242 OA
ENDBRANCH  26  29
ENDBRANCH   1  26
BRANCH  21  32
HETATM   32  O2  UNL     1      25.265   7.813  48.657  1.00  0.00    -0.384 OA
HETATM   33  C19 UNL     1      24.762   8.640  49.679  1.00  0.00     0.202 C 
ENDBRANCH  21  32
TORSDOF 4
ENDMDL
MODEL 3
REMARK VINA RESULT:      -6.6      9.779     12.670
REMARK  4 active torsions:
REMARK  status: ('A' for Active; 'I' for Inactive)
REMARK    1  A    between atoms: C2_2  and  N1_3 
REMARK    2  A    between atoms: N1_3  and  C3_4 
REMARK    3  A    between atoms: N1_3  and  S1_30 
REMARK    4  A    between atoms: C18_24  and  O2_25 
ROOT
HETATM    1  C3  UNL     1      21.128   3.747  50.330  1.00  0.00     0.155 C 
HETATM    2  C4  UNL     1      21.949   4.540  51.374  1.00  0.00     0.269 C 
HETATM    3  N2  UNL     1      22.762   3.232  51.831  1.00  0.00    -0.249 NA
HETATM    4  C5  UNL     1      22.259   2.319  52.461  1.00  0.00     0.230 C 
HETATM    5  N3  UNL     1      23.392   1.368  52.633  1.00  0.00    -0.236 NA
HETATM    6  C6  UNL     1      24.515   1.769  52.039  1.00  0.00     0.130 C 
HETATM    7  C7  UNL     1      25.367   0.594  52.431  1.00  0.00     0.270 C 
HETATM    8  O1  UNL     1      25.448  -0.532  53.047  1.00  0.00    -0.266 OA
HETATM    9  N4  UNL     1      26.684   0.826  51.870  1.00  0.00    -0.352 N 
HETATM   10  C8  UNL     1      26.777   2.274  51.673  1.00  0.00     0.160 C 
HETATM   11  C9  UNL     1      25.397   2.618  51.252  1.00  0.00    -0.013 C 
HETATM   12  C10 UNL     1      24.652   3.242  50.552  1.00  0.00     0.073 C 
HETATM   13  C11 UNL     1      25.839   4.103  49.787  1.00  0.00     0.267 C 
HETATM   14  N5  UNL     1      24.955   5.128  50.151  1.00  0.00     0.009 N 
HETATM   15  C12 UNL     1      24.297   5.586  49.208  1.00  0.00     0.162 A 
HETATM   16  C13 UNL     1      23.622   6.153  48.195  1.00  0.00     0.036 A 
HETATM   17  C14 UNL     1      22.652   5.572  47.418  1.00  0.00     0.002 A 
HETATM   18  C15 UNL     1      22.262   4.235  47.670  1.00  0.00     0.008 A 
HETATM   19  C16 UNL     1      23.022   3.801  48.685  1.00  0.00    -0.005 A 
HETATM   20  C17 UNL     1      23.997   4.121  49.536  1.00  0.00     0.228 A 
HETATM   21  C18 UNL     1      22.108   2.818  49.500  1.00  0.00     0.175 C 
HETATM   22  C20 UNL     1      24.087   5.751  51.230  1.00  0.00     0.331 C 
HETATM   23  C21 UNL     1      24.143   7.209  51.079  1.00  0.00     0.071 C 
HETATM   24  O3  UNL     1      22.836   5.268  50.810  1.00  0.00    -0.330 OA
HETATM   25  H9  UNL     1      27.527   0.210  51.605  1.00  0.00     0.163 HD
ENDROOT
BRANCH   1  26
HETATM   26  N1  UNL     1      20.079   3.031  50.946  1.00  0.00    -0.222 NA
BRANCH  26  27
HETATM   27  C2  UNL     1      19.848   1.760  50.286  1.00  0.00     0.101 C 
HETATM   28  C1  UNL     1      19.117   0.769  51.165  1.00  0.00     0.021 C 
ENDBRANCH  26  27
BRANCH  26  29
HETATM   29  S1  UNL     1      18.549   3.858  50.857  1.00  0.00     0.088 S 
HETATM   30  C22 UNL     1      18.471   5.231  49.778  1.00  0.00     0.146 C 
HETATM   31  O4  UNL     1      17.744   3.875  52.097  1.00  0.00    -0.242 OA
ENDBRANCH  26  29
ENDBRANCH   1  26
BRANCH  21  32
HETATM   32  O2  UNL     1      21.334   2.163  48.565  1.00  0.00    -0.384 OA
HETATM   33  C19 UNL     1      21.930   0.967  48.124  1.00  0.00     0.202 C 
ENDBRANCH  21  32
TORSDOF 4
ENDMDL
MODEL 4
REMARK VINA RESULT:      -6.6      9.428     12.466
REMARK  4 active torsions:
REMARK  status: ('A' for Active; 'I' for Inactive)
REMARK    1  A    between atoms: C2_2  and  N1_3 
REMARK    2  A    between atoms: N1_3  and  C3_4 
REMARK    3  A    between atoms: N1_3  and  S1_30 
REMARK    4  A    between atoms: C18_24  and  O2_25 
ROOT
HETATM    1  C3  UNL     1      23.681   4.638  50.606  1.00  0.00     0.155 C 
HETATM    2  C4  UNL     1      23.792   3.325  49.795  1.00  0.00     0.269 C 
HETATM    3  N2  UNL     1      24.691   2.621  50.924  1.00  0.00    -0.249 NA
HETATM    4  C5  UNL     1      25.843   2.940  51.156  1.00  0.00     0.230 C 
HETATM    5  N3  UNL     1      26.230   2.019  52.261  1.00  0.00    -0.236 NA
HETATM    6  C6  UNL     1      25.240   1.221  52.655  1.00  0.00     0.130 C 
HETATM    7  C7  UNL     1      26.001   0.488  53.725  1.00  0.00     0.270 C 
HETATM    8  O1  UNL     1      27.111   0.332  54.354  1.00  0.00    -0.266 OA
HETATM    9  N4  UNL     1      25.084  -0.469  54.311  1.00  0.00    -0.352 N 
HETATM   10  C8  UNL     1      24.058  -0.703  53.293  1.00  0.00     0.160 C 
HETATM   11  C9  UNL     1      23.903   0.645  52.693  1.00  0.00    -0.013 C 
HETATM   12  C10 UNL     1      23.202   1.507  52.247  1.00  0.00     0.073 C 
HETATM   13  C11 UNL     1      21.795   0.650  52.382  1.00  0.00     0.267 C 
HETATM   14  N5  UNL     1      21.706   1.104  51.059  1.00  0.00     0.009 N 
HETATM   15  C12 UNL     1      20.894   2.023  50.893  1.00  0.00     0.162 A 
HETATM   16  C13 UNL     1      19.968   2.969  50.668  1.00  0.00     0.036 A 
HETATM   17  C14 UNL     1      19.977   4.263  51.127  1.00  0.00     0.002 A 
HETATM   18  C15 UNL     1      21.059   4.717  51.918  1.00  0.00     0.008 A 
HETATM   19  C16 UNL     1      21.886   3.672  52.069  1.00  0.00    -0.005 A 
HETATM   20  C17 UNL     1      22.086   2.386  51.784  1.00  0.00     0.228 A 
HETATM   21  C18 UNL     1      23.330   4.286  52.111  1.00  0.00     0.175 C 
HETATM   22  C20 UNL     1      22.397   1.298  49.720  1.00  0.00     0.331 C 
HETATM   23  C21 UNL     1      21.410   1.075  48.659  1.00  0.00     0.071 C 
HETATM   24  O3  UNL     1      22.695   2.667  49.825  1.00  0.00    -0.330 OA
HETATM   25  H9  UNL     1      25.017  -0.997  55.247  1.00  0.00     0.163 HD
ENDROOT
BRANCH   1  26
HETATM   26  N1  UNL     1      24.853   5.413  50.479  1.00  0.00    -0.222 NA
BRANCH  26  27
HETATM   27  C2  UNL     1      24.604   6.805  50.804  1.00  0.00     0.101 C 
HETATM   28  C1  UNL     1      25.813   7.685  50.573  1.00  0.00     0.021 C 
ENDBRANCH  26  27
BRANCH  26  29
HETATM   29  S1  UNL     1      25.473   5.446  48.853  1.00  0.00     0.088 S 
HETATM   30  C22 UNL     1      27.189   5.163  48.670  1.00  0.00     0.146 C 
HETATM   31  O4  UNL     1      24.796   6.366  47.914  1.00  0.00    -0.242 OA
ENDBRANCH  26  29
ENDBRANCH   1  26
BRANCH  21  32
HETATM   32  O2  UNL     1      23.209   5.487  52.778  1.00  0.00    -0.384 OA
HETATM   33  C19 UNL     1      23.811   5.452  54.050  1.00  0.00     0.202 C 
ENDBRANCH  21  32
TORSDOF 4
ENDMDL
MODEL 5
REMARK VINA RESULT:      -6.3      2.443      4.822
REMARK  4 active torsions:
REMARK  status: ('A' for Active; 'I' for Inactive)
REMARK    1  A    between atoms: C2_2  and  N1_3 
REMARK    2  A    between atoms: N1_3  and  C3_4 
REMARK    3  A    between atoms: N1_3  and  S1_30 
REMARK    4  A    between atoms: C18_24  and  O2_25 
ROOT
HETATM    1  C3  UNL     1      31.362   9.618  45.741  1.00  0.00     0.155 C 
HETATM    2  C4  UNL     1      30.339   8.471  45.563  1.00  0.00     0.269 C 
HETATM    3  N2  UNL     1      31.496   7.361  45.464  1.00  0.00    -0.249 NA
HETATM    4  C5  UNL     1      32.244   7.259  44.509  1.00  0.00     0.230 C 
HETATM    5  N3  UNL     1      33.117   6.113  44.887  1.00  0.00    -0.236 NA
HETATM    6  C6  UNL     1      32.851   5.623  46.097  1.00  0.00     0.130 C 
HETATM    7  C7  UNL     1      33.893   4.539  46.095  1.00  0.00     0.270 C 
HETATM    8  O1  UNL     1      34.844   3.948  45.463  1.00  0.00    -0.266 OA
HETATM    9  N4  UNL     1      33.782   3.848  47.365  1.00  0.00    -0.352 N 
HETATM   10  C8  UNL     1      32.418   4.104  47.832  1.00  0.00     0.160 C 
HETATM   11  C9  UNL     1      32.196   5.503  47.391  1.00  0.00    -0.013 C 
HETATM   12  C10 UNL     1      31.760   6.599  47.599  1.00  0.00     0.073 C 
HETATM   13  C11 UNL     1      31.086   6.224  49.061  1.00  0.00     0.267 C 
HETATM   14  N5  UNL     1      30.014   6.870  48.429  1.00  0.00     0.009 N 
HETATM   15  C12 UNL     1      29.794   8.013  48.849  1.00  0.00     0.162 A 
HETATM   16  C13 UNL     1      29.485   9.227  49.332  1.00  0.00     0.036 A 
HETATM   17  C14 UNL     1      30.242  10.370  49.250  1.00  0.00     0.002 A 
HETATM   18  C15 UNL     1      31.489  10.336  48.582  1.00  0.00     0.008 A 
HETATM   19  C16 UNL     1      31.667   9.072  48.171  1.00  0.00    -0.005 A 
HETATM   20  C17 UNL     1      31.148   7.845  48.152  1.00  0.00     0.228 A 
HETATM   21  C18 UNL     1      32.445   9.181  46.812  1.00  0.00     0.175 C 
HETATM   22  C20 UNL     1      29.168   7.026  47.177  1.00  0.00     0.331 C 
HETATM   23  C21 UNL     1      27.785   7.286  47.588  1.00  0.00     0.071 C 
HETATM   24  O3  UNL     1      29.750   8.199  46.666  1.00  0.00    -0.330 OA
HETATM   25  H9  UNL     1      34.432   3.239  47.969  1.00  0.00     0.163 HD
ENDROOT
BRANCH   1  26
HETATM   26  N1  UNL     1      31.928   9.990  44.503  1.00  0.00    -0.222 NA
BRANCH  26  27
HETATM   27  C2  UNL     1      32.511  11.316  44.566  1.00  0.00     0.101 C 
HETATM   28  C1  UNL     1      33.749  11.453  43.707  1.00  0.00     0.021 C 
ENDBRANCH  26  27
BRANCH  26  29
HETATM   29  S1  UNL     1      30.754  10.085  43.221  1.00  0.00     0.088 S 
HETATM   30  C22 UNL     1      31.293   9.581  41.636  1.00  0.00     0.146 C 
HETATM   31  O4  UNL     1      29.761  11.176  43.326  1.00  0.00    -0.242 OA
ENDBRANCH  26  29
ENDBRANCH   1  26
BRANCH  21  32
HETATM   32  O2  UNL     1      33.308  10.247  46.958  1.00  0.00    -0.384 OA
HETATM   33  C19 UNL     1      34.648   9.835  47.083  1.00  0.00     0.202 C 
ENDBRANCH  21  32
TORSDOF 4
ENDMDL
MODEL 6
REMARK VINA RESULT:      -6.2      8.990     12.612
REMARK  4 active torsions:
REMARK  status: ('A' for Active; 'I' for Inactive)
REMARK    1  A    between atoms: C2_2  and  N1_3 
REMARK    2  A    between atoms: N1_3  and  C3_4 
REMARK    3  A    between atoms: N1_3  and  S1_30 
REMARK    4  A    between atoms: C18_24  and  O2_25 
ROOT
HETATM    1  C3  UNL     1      20.672   3.786  49.568  1.00  0.00     0.155 C 
HETATM    2  C4  UNL     1      21.115   4.995  50.426  1.00  0.00     0.269 C 
HETATM    3  N2  UNL     1      22.616   4.439  50.560  1.00  0.00    -0.249 NA
HETATM    4  C5  UNL     1      22.910   3.462  51.226  1.00  0.00     0.230 C 
HETATM    5  N3  UNL     1      24.382   3.355  51.031  1.00  0.00    -0.236 NA
HETATM    6  C6  UNL     1      24.875   4.274  50.202  1.00  0.00     0.130 C 
HETATM    7  C7  UNL     1      26.314   3.843  50.274  1.00  0.00     0.270 C 
HETATM    8  O1  UNL     1      27.180   3.028  50.762  1.00  0.00    -0.266 OA
HETATM    9  N4  UNL     1      27.063   4.740  49.415  1.00  0.00    -0.352 N 
HETATM   10  C8  UNL     1      26.251   5.953  49.312  1.00  0.00     0.160 C 
HETATM   11  C9  UNL     1      24.873   5.403  49.284  1.00  0.00    -0.013 C 
HETATM   12  C10 UNL     1      23.759   5.421  48.846  1.00  0.00     0.073 C 
HETATM   13  C11 UNL     1      23.993   6.736  47.872  1.00  0.00     0.267 C 
HETATM   14  N5  UNL     1      22.806   7.095  48.525  1.00  0.00     0.009 N 
HETATM   15  C12 UNL     1      21.794   7.006  47.819  1.00  0.00     0.162 A 
HETATM   16  C13 UNL     1      20.688   6.991  47.058  1.00  0.00     0.036 A 
HETATM   17  C14 UNL     1      20.073   5.891  46.512  1.00  0.00     0.002 A 
HETATM   18  C15 UNL     1      20.604   4.601  46.752  1.00  0.00     0.008 A 
HETATM   19  C16 UNL     1      21.701   4.775  47.504  1.00  0.00    -0.005 A 
HETATM   20  C17 UNL     1      22.488   5.670  48.100  1.00  0.00     0.228 A 
HETATM   21  C18 UNL     1      21.761   3.521  48.448  1.00  0.00     0.175 C 
HETATM   22  C20 UNL     1      22.043   7.197  49.835  1.00  0.00     0.331 C 
HETATM   23  C21 UNL     1      21.208   8.401  49.785  1.00  0.00     0.071 C 
HETATM   24  O3  UNL     1      21.243   6.048  49.711  1.00  0.00    -0.330 OA
HETATM   25  H9  UNL     1      28.006   4.700  48.898  1.00  0.00     0.163 HD
ENDROOT
BRANCH   1  26
HETATM   26  N1  UNL     1      20.424   2.655  50.374  1.00  0.00    -0.222 NA
BRANCH  26  27
HETATM   27  C2  UNL     1      19.735   1.617  49.632  1.00  0.00     0.101 C 
HETATM   28  C1  UNL     1      19.098   0.579  50.530  1.00  0.00     0.021 C 
ENDBRANCH  26  27
BRANCH  26  29
HETATM   29  S1  UNL     1      19.378   2.999  51.723  1.00  0.00     0.088 S 
HETATM   30  C22 UNL     1      17.931   3.913  51.369  1.00  0.00     0.146 C 
HETATM   31  O4  UNL     1      20.041   3.187  53.032  1.00  0.00    -0.242 OA
ENDBRANCH  26  29
ENDBRANCH   1  26
BRANCH  21  32
HETATM   32  O2  UNL     1      21.302   2.462  47.694  1.00  0.00    -0.384 OA
HETATM   33  C19 UNL     1      22.317   1.525  47.419  1.00  0.00     0.202 C 
ENDBRANCH  21  32
TORSDOF 4
ENDMDL
MODEL 7
REMARK VINA RESULT:      -6.1     10.019     12.940
REMARK  4 active torsions:
REMARK  status: ('A' for Active; 'I' for Inactive)
REMARK    1  A    between atoms: C2_2  and  N1_3 
REMARK    2  A    between atoms: N1_3  and  C3_4 
REMARK    3  A    between atoms: N1_3  and  S1_30 
REMARK    4  A    between atoms: C18_24  and  O2_25 
ROOT
HETATM    1  C3  UNL     1      22.621   5.271  49.638  1.00  0.00     0.155 C 
HETATM    2  C4  UNL     1      22.419   5.132  51.166  1.00  0.00     0.269 C 
HETATM    3  N2  UNL     1      21.098   4.238  50.980  1.00  0.00    -0.249 NA
HETATM    4  C5  UNL     1      20.042   4.683  50.568  1.00  0.00     0.230 C 
HETATM    5  N3  UNL     1      19.151   3.490  50.574  1.00  0.00    -0.236 NA
HETATM    6  C6  UNL     1      19.765   2.372  50.959  1.00  0.00     0.130 C 
HETATM    7  C7  UNL     1      18.581   1.453  50.835  1.00  0.00     0.270 C 
HETATM    8  O1  UNL     1      17.337   1.318  50.539  1.00  0.00    -0.266 OA
HETATM    9  N4  UNL     1      19.035   0.131  51.220  1.00  0.00    -0.352 N 
HETATM   10  C8  UNL     1      20.212   0.351  52.063  1.00  0.00     0.160 C 
HETATM   11  C9  UNL     1      20.854   1.514  51.403  1.00  0.00    -0.013 C 
HETATM   12  C10 UNL     1      21.841   2.080  51.029  1.00  0.00     0.073 C 
HETATM   13  C11 UNL     1      22.900   0.962  51.630  1.00  0.00     0.267 C 
HETATM   14  N5  UNL     1      23.460   2.150  52.118  1.00  0.00     0.009 N 
HETATM   15  C12 UNL     1      24.486   2.506  51.526  1.00  0.00     0.162 A 
HETATM   16  C13 UNL     1      25.642   2.879  50.952  1.00  0.00     0.036 A 
HETATM   17  C14 UNL     1      25.825   3.305  49.660  1.00  0.00     0.002 A 
HETATM   18  C15 UNL     1      24.713   3.399  48.789  1.00  0.00     0.008 A 
HETATM   19  C16 UNL     1      23.646   2.985  49.488  1.00  0.00    -0.005 A 
HETATM   20  C17 UNL     1      23.222   2.515  50.661  1.00  0.00     0.228 A 
HETATM   21  C18 UNL     1      22.444   3.848  48.963  1.00  0.00     0.175 C 
HETATM   22  C20 UNL     1      23.236   3.487  52.805  1.00  0.00     0.331 C 
HETATM   23  C21 UNL     1      24.392   3.759  53.665  1.00  0.00     0.071 C 
HETATM   24  O3  UNL     1      23.268   4.321  51.674  1.00  0.00    -0.330 OA
HETATM   25  H9  UNL     1      18.708  -0.878  51.038  1.00  0.00     0.163 HD
ENDROOT
BRANCH   1  26
HETATM   26  N1  UNL     1      21.758   6.249  49.099  1.00  0.00    -0.222 NA
BRANCH  26  27
HETATM   27  C2  UNL     1      22.199   6.675  47.784  1.00  0.00     0.101 C 
HETATM   28  C1  UNL     1      21.047   7.002  46.858  1.00  0.00     0.021 C 
ENDBRANCH  26  27
BRANCH  26  29
HETATM   29  S1  UNL     1      21.715   7.711  50.043  1.00  0.00     0.088 S 
HETATM   30  C22 UNL     1      20.207   8.595  50.035  1.00  0.00     0.146 C 
HETATM   31  O4  UNL     1      22.984   8.462  50.141  1.00  0.00    -0.242 OA
ENDBRANCH  26  29
ENDBRANCH   1  26
BRANCH  21  32
HETATM   32  O2  UNL     1      22.668   4.021  47.613  1.00  0.00    -0.384 OA
HETATM   33  C19 UNL     1      21.771   3.276  46.825  1.00  0.00     0.202 C 
ENDBRANCH  21  32
TORSDOF 4
ENDMDL
MODEL 8
REMARK VINA RESULT:      -6.1      2.238      5.010
REMARK  4 active torsions:
REMARK  status: ('A' for Active; 'I' for Inactive)
REMARK    1  A    between atoms: C2_2  and  N1_3 
REMARK    2  A    between atoms: N1_3  and  C3_4 
REMARK    3  A    between atoms: N1_3  and  S1_30 
REMARK    4  A    between atoms: C18_24  and  O2_25 
ROOT
HETATM    1  C3  UNL     1      34.217   7.370  44.545  1.00  0.00     0.155 C 
HETATM    2  C4  UNL     1      34.249   7.797  46.031  1.00  0.00     0.269 C 
HETATM    3  N2  UNL     1      32.666   8.065  46.061  1.00  0.00    -0.249 NA
HETATM    4  C5  UNL     1      32.135   8.996  45.483  1.00  0.00     0.230 C 
HETATM    5  N3  UNL     1      30.692   8.811  45.806  1.00  0.00    -0.236 NA
HETATM    6  C6  UNL     1      30.449   7.727  46.539  1.00  0.00     0.130 C 
HETATM    7  C7  UNL     1      28.959   7.898  46.642  1.00  0.00     0.270 C 
HETATM    8  O1  UNL     1      27.922   8.596  46.341  1.00  0.00    -0.266 OA
HETATM    9  N4  UNL     1      28.463   6.786  47.430  1.00  0.00    -0.352 N 
HETATM   10  C8  UNL     1      29.605   6.327  48.223  1.00  0.00     0.160 C 
HETATM   11  C9  UNL     1      30.732   6.502  47.274  1.00  0.00    -0.013 C 
HETATM   12  C10 UNL     1      31.755   6.105  46.795  1.00  0.00     0.073 C 
HETATM   13  C11 UNL     1      31.869   4.765  47.756  1.00  0.00     0.267 C 
HETATM   14  N5  UNL     1      33.158   5.300  47.889  1.00  0.00     0.009 N 
HETATM   15  C12 UNL     1      34.029   4.679  47.267  1.00  0.00     0.162 A 
HETATM   16  C13 UNL     1      35.008   3.985  46.664  1.00  0.00     0.036 A 
HETATM   17  C14 UNL     1      35.198   3.823  45.314  1.00  0.00     0.002 A 
HETATM   18  C15 UNL     1      34.308   4.442  44.403  1.00  0.00     0.008 A 
HETATM   19  C16 UNL     1      33.388   5.078  45.142  1.00  0.00    -0.005 A 
HETATM   20  C17 UNL     1      32.975   5.347  46.380  1.00  0.00     0.228 A 
HETATM   21  C18 UNL     1      33.013   6.364  44.323  1.00  0.00     0.175 C 
HETATM   22  C20 UNL     1      34.018   6.529  48.128  1.00  0.00     0.331 C 
HETATM   23  C21 UNL     1      35.183   6.124  48.921  1.00  0.00     0.071 C 
HETATM   24  O3  UNL     1      34.402   6.787  46.801  1.00  0.00    -0.330 OA
HETATM   25  H9  UNL     1      27.516   6.287  47.545  1.00  0.00     0.163 HD
ENDROOT
BRANCH   1  26
HETATM   26  N1  UNL     1      34.161   8.494  43.694  1.00  0.00    -0.222 NA
BRANCH  26  27
HETATM   27  C2  UNL     1      34.857   8.248  42.446  1.00  0.00     0.101 C 
HETATM   28  C1  UNL     1      36.040   7.317  42.609  1.00  0.00     0.021 C 
ENDBRANCH  26  27
BRANCH  26  29
HETATM   29  S1  UNL     1      34.945   9.895  44.367  1.00  0.00     0.088 S 
HETATM   30  C22 UNL     1      34.383  11.449  43.797  1.00  0.00     0.146 C 
HETATM   31  O4  UNL     1      36.372   9.737  44.721  1.00  0.00    -0.242 OA
ENDBRANCH  26  29
ENDBRANCH   1  26
BRANCH  21  32
HETATM   32  O2  UNL     1      33.051   5.989  42.997  1.00  0.00    -0.384 OA
HETATM   33  C19 UNL     1      31.994   6.549  42.254  1.00  0.00     0.202 C 
ENDBRANCH  21  32
TORSDOF 4
ENDMDL
MODEL 9
REMARK VINA RESULT:      -5.9     11.552     14.437
REMARK  4 active torsions:
REMARK  status: ('A' for Active; 'I' for Inactive)
REMARK    1  A    between atoms: C2_2  and  N1_3 
REMARK    2  A    between atoms: N1_3  and  C3_4 
REMARK    3  A    between atoms: N1_3  and  S1_30 
REMARK    4  A    between atoms: C18_24  and  O2_25 
ROOT
HETATM    1  C3  UNL     1      19.927   3.956  48.886  1.00  0.00     0.155 C 
HETATM    2  C4  UNL     1      19.865   2.417  48.738  1.00  0.00     0.269 C 
HETATM    3  N2  UNL     1      21.309   2.224  49.414  1.00  0.00    -0.249 NA
HETATM    4  C5  UNL     1      22.350   2.546  48.871  1.00  0.00     0.230 C 
HETATM    5  N3  UNL     1      23.382   2.177  49.880  1.00  0.00    -0.236 NA
HETATM    6  C6  UNL     1      22.869   1.686  51.007  1.00  0.00     0.130 C 
HETATM    7  C7  UNL     1      24.171   1.450  51.721  1.00  0.00     0.270 C 
HETATM    8  O1  UNL     1      25.454   1.521  51.691  1.00  0.00    -0.266 OA
HETATM    9  N4  UNL     1      23.842   0.896  53.020  1.00  0.00    -0.352 N 
HETATM   10  C8  UNL     1      22.513   0.302  52.867  1.00  0.00     0.160 C 
HETATM   11  C9  UNL     1      21.847   1.261  51.952  1.00  0.00    -0.013 C 
HETATM   12  C10 UNL     1      20.875   1.882  51.629  1.00  0.00     0.073 C 
HETATM   13  C11 UNL     1      19.890   1.250  52.797  1.00  0.00     0.267 C 
HETATM   14  N5  UNL     1      19.092   1.088  51.657  1.00  0.00     0.009 N 
HETATM   15  C12 UNL     1      18.151   1.888  51.581  1.00  0.00     0.162 A 
HETATM   16  C13 UNL     1      17.079   2.693  51.507  1.00  0.00     0.036 A 
HETATM   17  C14 UNL     1      17.075   4.055  51.334  1.00  0.00     0.002 A 
HETATM   18  C15 UNL     1      18.303   4.746  51.197  1.00  0.00     0.008 A 
HETATM   19  C16 UNL     1      19.272   3.825  51.305  1.00  0.00    -0.005 A 
HETATM   20  C17 UNL     1      19.537   2.534  51.500  1.00  0.00     0.228 A 
HETATM   21  C18 UNL     1      20.418   4.314  50.350  1.00  0.00     0.175 C 
HETATM   22  C20 UNL     1      19.000   0.641  50.207  1.00  0.00     0.331 C 
HETATM   23  C21 UNL     1      17.682   0.036  49.998  1.00  0.00     0.071 C 
HETATM   24  O3  UNL     1      19.059   1.901  49.587  1.00  0.00    -0.330 OA
HETATM   25  H9  UNL     1      24.334   0.832  53.975  1.00  0.00     0.163 HD
ENDROOT
BRANCH   1  26
HETATM   26  N1  UNL     1      20.729   4.532  47.878  1.00  0.00    -0.222 NA
BRANCH  26  27
HETATM   27  C2  UNL     1      20.431   5.940  47.706  1.00  0.00     0.101 C 
HETATM   28  C1  UNL     1      21.656   6.760  47.362  1.00  0.00     0.021 C 
ENDBRANCH  26  27
BRANCH  26  29
HETATM   29  S1  UNL     1      20.455   3.829  46.309  1.00  0.00     0.088 S 
HETATM   30  C22 UNL     1      21.829   3.782  45.229  1.00  0.00     0.146 C 
HETATM   31  O4  UNL     1      19.103   4.013  45.739  1.00  0.00    -0.242 OA
ENDBRANCH  26  29
ENDBRANCH   1  26
BRANCH  21  32
HETATM   32  O2  UNL     1      20.421   5.690  50.439  1.00  0.00    -0.384 OA
HETATM   33  C19 UNL     1      21.579   6.179  51.073  1.00  0.00     0.202 C 
ENDBRANCH  21  32
TORSDOF 4
ENDMDL
