MODEL 1
REMARK VINA RESULT:      -8.5      0.000      0.000
REMARK  7 active torsions:
REMARK  status: ('A' for Active; 'I' for Inactive)
REMARK    1  A    between atoms: C2_2  and  C3_3 
REMARK    2  A    between atoms: C9_9  and  N1_10 
REMARK    3  A    between atoms: N1_10  and  C10_11 
REMARK    4  A    between atoms: C18_23  and  O3_24 
REMARK    5  A    between atoms: O3_24  and  C19_25 
REMARK    6  A    between atoms: C19_25  and  C20_26 
REMARK    7  A    between atoms: C20_26  and  O4_27 
ROOT
HETATM    1  C10 UNL     1      23.385   0.101  53.057  1.00  0.00     0.041 A 
HETATM    2  P1  UNL     1      22.841  -0.921  54.391  1.00  0.00     0.012 P 
HETATM    3  C11 UNL     1      21.123  -0.967  54.522  1.00  0.00     0.134 A 
HETATM    4  N2  UNL     1      20.730  -0.180  53.529  1.00  0.00    -0.266 NA
HETATM    5  C12 UNL     1      21.345   0.483  52.655  1.00  0.00     0.039 A 
HETATM    6  C13 UNL     1      22.562   0.785  52.218  1.00  0.00     0.085 A 
HETATM    7  C14 UNL     1      23.424   1.396  51.440  1.00  0.00     0.173 C 
HETATM    8  O1  UNL     1      22.604   2.094  50.591  1.00  0.00    -0.380 OA
HETATM    9  C15 UNL     1      22.527   2.016  49.206  1.00  0.00     0.194 C 
HETATM   10  C16 UNL     1      21.161   1.431  48.876  1.00  0.00     0.194 C 
HETATM   11  O2  UNL     1      20.134   2.240  49.394  1.00  0.00    -0.379 OA
HETATM   12  C17 UNL     1      19.016   1.645  50.061  1.00  0.00     0.183 C 
HETATM   13  C18 UNL     1      19.594   1.095  51.159  1.00  0.00     0.082 C 
HETATM   14  C22 UNL     1      21.083   1.115  51.563  1.00  0.00     0.169 A 
ENDROOT
BRANCH   1  15
HETATM   15  N1  UNL     1      24.817  -0.016  53.105  1.00  0.00    -0.366 N 
HETATM   16  H10 UNL     1      25.181   0.817  53.531  1.00  0.00     0.165 HD
BRANCH  15  17
HETATM   17  C9  UNL     1      25.875  -0.885  52.784  1.00  0.00     0.100 C 
HETATM   18  C8  UNL     1      27.096  -0.638  52.989  1.00  0.00    -0.014 C 
HETATM   19  C3  UNL     1      28.166   0.216  53.460  1.00  0.00    -0.036 C 
HETATM   20  C7  UNL     1      27.643  -2.057  52.812  1.00  0.00     0.013 C 
HETATM   21  C4  UNL     1      29.136  -0.335  54.178  1.00  0.00    -0.018 C 
HETATM   22  C5  UNL     1      29.831  -1.310  53.615  1.00  0.00     0.013 C 
HETATM   23  C6  UNL     1      28.918  -2.352  53.107  1.00  0.00     0.002 C 
BRANCH  19  24
HETATM   24  C2  UNL     1      27.806   1.538  52.930  1.00  0.00     0.036 C 
HETATM   25  C1  UNL     1      28.747   2.541  53.616  1.00  0.00     0.010 C 
ENDBRANCH  19  24
ENDBRANCH  15  17
ENDBRANCH   1  15
BRANCH  13  26
HETATM   26  O3  UNL     1      18.528   0.478  51.856  1.00  0.00    -0.380 OA
BRANCH  26  27
HETATM   27  C19 UNL     1      17.679  -0.487  51.461  1.00  0.00     0.194 C 
BRANCH  27  28
HETATM   28  C20 UNL     1      16.721  -0.724  52.664  1.00  0.00     0.193 C 
BRANCH  28  29
HETATM   29  O4  UNL     1      17.503  -1.183  53.709  1.00  0.00    -0.394 OA
HETATM   30  C21 UNL     1      17.783  -2.503  53.613  1.00  0.00     0.201 C 
ENDBRANCH  28  29
ENDBRANCH  27  28
ENDBRANCH  26  27
ENDBRANCH  13  26
TORSDOF 7
ENDMDL
MODEL 2
REMARK VINA RESULT:      -8.3      4.372      6.596
REMARK  7 active torsions:
REMARK  status: ('A' for Active; 'I' for Inactive)
REMARK    1  A    between atoms: C2_2  and  C3_3 
REMARK    2  A    between atoms: C9_9  and  N1_10 
REMARK    3  A    between atoms: N1_10  and  C10_11 
REMARK    4  A    between atoms: C18_23  and  O3_24 
REMARK    5  A    between atoms: O3_24  and  C19_25 
REMARK    6  A    between atoms: C19_25  and  C20_26 
REMARK    7  A    between atoms: C20_26  and  O4_27 
ROOT
HETATM    1  C10 UNL     1      25.252   3.016  50.981  1.00  0.00     0.041 A 
HETATM    2  P1  UNL     1      23.649   3.424  50.361  1.00  0.00     0.012 P 
HETATM    3  C11 UNL     1      22.447   2.295  50.864  1.00  0.00     0.134 A 
HETATM    4  N2  UNL     1      23.139   1.433  51.595  1.00  0.00    -0.266 NA
HETATM    5  C12 UNL     1      24.354   1.346  51.913  1.00  0.00     0.039 A 
HETATM    6  C13 UNL     1      25.531   1.940  51.764  1.00  0.00     0.085 A 
HETATM    7  C14 UNL     1      26.827   2.062  51.930  1.00  0.00     0.173 C 
HETATM    8  O1  UNL     1      27.121   0.977  52.716  1.00  0.00    -0.380 OA
HETATM    9  C15 UNL     1      27.704   0.957  53.976  1.00  0.00     0.194 C 
HETATM   10  C16 UNL     1      26.642   0.455  54.943  1.00  0.00     0.194 C 
HETATM   11  O2  UNL     1      26.196  -0.825  54.573  1.00  0.00    -0.379 OA
HETATM   12  C17 UNL     1      24.798  -1.134  54.588  1.00  0.00     0.183 C 
HETATM   13  C18 UNL     1      24.312  -0.317  53.618  1.00  0.00     0.082 C 
HETATM   14  C22 UNL     1      25.089   0.683  52.739  1.00  0.00     0.169 A 
ENDROOT
BRANCH   1  15
HETATM   15  N1  UNL     1      26.087   4.074  50.478  1.00  0.00    -0.366 N 
HETATM   16  H10 UNL     1      25.940   4.883  51.054  1.00  0.00     0.165 HD
BRANCH  15  17
HETATM   17  C9  UNL     1      27.038   4.366  49.485  1.00  0.00     0.100 C 
HETATM   18  C8  UNL     1      27.131   5.470  48.880  1.00  0.00    -0.014 C 
HETATM   19  C3  UNL     1      26.700   6.829  48.626  1.00  0.00    -0.036 C 
HETATM   20  C7  UNL     1      28.526   5.278  48.278  1.00  0.00     0.013 C 
HETATM   21  C4  UNL     1      27.629   7.769  48.508  1.00  0.00    -0.018 C 
HETATM   22  C5  UNL     1      28.532   7.616  47.553  1.00  0.00     0.013 C 
HETATM   23  C6  UNL     1      29.162   6.286  47.663  1.00  0.00     0.002 C 
BRANCH  19  24
HETATM   24  C2  UNL     1      25.236   6.716  48.560  1.00  0.00     0.036 C 
HETATM   25  C1  UNL     1      24.809   7.477  47.295  1.00  0.00     0.010 C 
ENDBRANCH  19  24
ENDBRANCH  15  17
ENDBRANCH   1  15
BRANCH  13  26
HETATM   26  O3  UNL     1      22.920  -0.574  53.597  1.00  0.00    -0.380 OA
BRANCH  26  27
HETATM   27  C19 UNL     1      22.049  -0.706  54.612  1.00  0.00     0.194 C 
BRANCH  27  28
HETATM   28  C20 UNL     1      20.891   0.287  54.305  1.00  0.00     0.193 C 
BRANCH  28  29
HETATM   29  O4  UNL     1      19.990  -0.392  53.503  1.00  0.00    -0.394 OA
HETATM   30  C21 UNL     1      19.605   0.326  52.423  1.00  0.00     0.201 C 
ENDBRANCH  28  29
ENDBRANCH  27  28
ENDBRANCH  26  27
ENDBRANCH  13  26
TORSDOF 7
ENDMDL
MODEL 3
REMARK VINA RESULT:      -8.2      2.113      2.636
REMARK  7 active torsions:
REMARK  status: ('A' for Active; 'I' for Inactive)
REMARK    1  A    between atoms: C2_2  and  C3_3 
REMARK    2  A    between atoms: C9_9  and  N1_10 
REMARK    3  A    between atoms: N1_10  and  C10_11 
REMARK    4  A    between atoms: C18_23  and  O3_24 
REMARK    5  A    between atoms: O3_24  and  C19_25 
REMARK    6  A    between atoms: C19_25  and  C20_26 
REMARK    7  A    between atoms: C20_26  and  O4_27 
ROOT
HETATM    1  C10 UNL     1      23.441   0.768  53.188  1.00  0.00     0.041 A 
HETATM    2  P1  UNL     1      22.398  -0.611  53.544  1.00  0.00     0.012 P 
HETATM    3  C11 UNL     1      20.729  -0.246  53.313  1.00  0.00     0.134 A 
HETATM    4  N2  UNL     1      20.755   1.020  52.919  1.00  0.00    -0.266 NA
HETATM    5  C12 UNL     1      21.683   1.848  52.728  1.00  0.00     0.039 A 
HETATM    6  C13 UNL     1      23.002   1.988  52.778  1.00  0.00     0.085 A 
HETATM    7  C14 UNL     1      24.128   2.655  52.677  1.00  0.00     0.173 C 
HETATM    8  O1  UNL     1      23.696   3.891  52.268  1.00  0.00    -0.380 OA
HETATM    9  C15 UNL     1      24.035   4.586  51.115  1.00  0.00     0.194 C 
HETATM   10  C16 UNL     1      22.775   4.668  50.266  1.00  0.00     0.194 C 
HETATM   11  O2  UNL     1      21.745   5.322  50.964  1.00  0.00    -0.379 OA
HETATM   12  C17 UNL     1      20.413   4.798  50.942  1.00  0.00     0.183 C 
HETATM   13  C18 UNL     1      20.558   3.614  51.591  1.00  0.00     0.082 C 
HETATM   14  C22 UNL     1      21.844   3.007  52.189  1.00  0.00     0.169 A 
ENDROOT
BRANCH   1  15
HETATM   15  N1  UNL     1      24.766   0.256  53.414  1.00  0.00    -0.366 N 
HETATM   16  H10 UNL     1      25.170   0.771  54.175  1.00  0.00     0.165 HD
BRANCH  15  17
HETATM   17  C9  UNL     1      25.678  -0.713  52.960  1.00  0.00     0.100 C 
HETATM   18  C8  UNL     1      26.934  -0.598  53.009  1.00  0.00    -0.014 C 
HETATM   19  C3  UNL     1      28.138   0.132  53.344  1.00  0.00    -0.036 C 
HETATM   20  C7  UNL     1      27.302  -2.064  52.761  1.00  0.00     0.013 C 
HETATM   21  C4  UNL     1      29.127  -0.528  53.933  1.00  0.00    -0.018 C 
HETATM   22  C5  UNL     1      29.640  -1.561  53.284  1.00  0.00     0.013 C 
HETATM   23  C6  UNL     1      28.566  -2.494  52.892  1.00  0.00     0.002 C 
BRANCH  19  24
HETATM   24  C2  UNL     1      27.856   1.493  52.867  1.00  0.00     0.036 C 
HETATM   25  C1  UNL     1      28.705   2.433  53.737  1.00  0.00     0.010 C 
ENDBRANCH  19  24
ENDBRANCH  15  17
ENDBRANCH   1  15
BRANCH  13  26
HETATM   26  O3  UNL     1      19.264   3.042  51.588  1.00  0.00    -0.380 OA
BRANCH  26  27
HETATM   27  C19 UNL     1      18.359   2.954  50.598  1.00  0.00     0.194 C 
BRANCH  27  28
HETATM   28  C20 UNL     1      16.975   2.848  51.301  1.00  0.00     0.193 C 
BRANCH  28  29
HETATM   29  O4  UNL     1      16.838   3.984  52.079  1.00  0.00    -0.394 OA
HETATM   30  C21 UNL     1      15.621   4.078  52.661  1.00  0.00     0.201 C 
ENDBRANCH  28  29
ENDBRANCH  27  28
ENDBRANCH  26  27
ENDBRANCH  13  26
TORSDOF 7
ENDMDL
MODEL 4
REMARK VINA RESULT:      -7.8      4.432      5.985
REMARK  7 active torsions:
REMARK  status: ('A' for Active; 'I' for Inactive)
REMARK    1  A    between atoms: C2_2  and  C3_3 
REMARK    2  A    between atoms: C9_9  and  N1_10 
REMARK    3  A    between atoms: N1_10  and  C10_11 
REMARK    4  A    between atoms: C18_23  and  O3_24 
REMARK    5  A    between atoms: O3_24  and  C19_25 
REMARK    6  A    between atoms: C19_25  and  C20_26 
REMARK    7  A    between atoms: C20_26  and  O4_27 
ROOT
HETATM    1  C10 UNL     1      25.153   3.571  51.095  1.00  0.00     0.041 A 
HETATM    2  P1  UNL     1      26.288   2.247  51.371  1.00  0.00     0.012 P 
HETATM    3  C11 UNL     1      25.588   0.965  52.287  1.00  0.00     0.134 A 
HETATM    4  N2  UNL     1      24.354   1.398  52.506  1.00  0.00    -0.266 NA
HETATM    5  C12 UNL     1      23.735   2.447  52.187  1.00  0.00     0.039 A 
HETATM    6  C13 UNL     1      23.870   3.599  51.544  1.00  0.00     0.085 A 
HETATM    7  C14 UNL     1      23.464   4.772  51.114  1.00  0.00     0.173 C 
HETATM    8  O1  UNL     1      22.170   4.814  51.566  1.00  0.00    -0.380 OA
HETATM    9  C15 UNL     1      21.002   4.960  50.829  1.00  0.00     0.194 C 
HETATM   10  C16 UNL     1      20.237   3.651  50.954  1.00  0.00     0.194 C 
HETATM   11  O2  UNL     1      19.951   3.368  52.301  1.00  0.00    -0.379 OA
HETATM   12  C17 UNL     1      20.137   2.045  52.815  1.00  0.00     0.183 C 
HETATM   13  C18 UNL     1      21.482   1.884  52.718  1.00  0.00     0.082 C 
HETATM   14  C22 UNL     1      22.524   2.887  52.183  1.00  0.00     0.169 A 
ENDROOT
BRANCH   1  15
HETATM   15  N1  UNL     1      25.911   4.506  50.309  1.00  0.00    -0.366 N 
HETATM   16  H10 UNL     1      25.558   5.427  50.498  1.00  0.00     0.165 HD
BRANCH  15  17
HETATM   17  C9  UNL     1      26.973   4.586  49.390  1.00  0.00     0.100 C 
HETATM   18  C8  UNL     1      27.303   5.629  48.761  1.00  0.00    -0.014 C 
HETATM   19  C3  UNL     1      27.135   7.028  48.429  1.00  0.00    -0.036 C 
HETATM   20  C7  UNL     1      28.686   5.174  48.285  1.00  0.00     0.013 C 
HETATM   21  C4  UNL     1      28.220   7.789  48.361  1.00  0.00    -0.018 C 
HETATM   22  C5  UNL     1      29.154   7.441  47.491  1.00  0.00     0.013 C 
HETATM   23  C6  UNL     1      29.533   6.030  47.695  1.00  0.00     0.002 C 
BRANCH  19  24
HETATM   24  C2  UNL     1      25.685   7.163  48.243  1.00  0.00     0.036 C 
HETATM   25  C1  UNL     1      25.494   7.878  46.896  1.00  0.00     0.010 C 
ENDBRANCH  19  24
ENDBRANCH  15  17
ENDBRANCH   1  15
BRANCH  13  26
HETATM   26  O3  UNL     1      21.723   0.578  53.206  1.00  0.00    -0.380 OA
BRANCH  26  27
HETATM   27  C19 UNL     1      21.614   0.086  54.452  1.00  0.00     0.194 C 
BRANCH  27  28
HETATM   28  C20 UNL     1      21.161  -1.393  54.283  1.00  0.00     0.193 C 
BRANCH  28  29
HETATM   29  O4  UNL     1      21.979  -2.153  55.100  1.00  0.00    -0.394 OA
HETATM   30  C21 UNL     1      23.098  -1.494  55.481  1.00  0.00     0.201 C 
ENDBRANCH  28  29
ENDBRANCH  27  28
ENDBRANCH  26  27
ENDBRANCH  13  26
TORSDOF 7
ENDMDL
MODEL 5
REMARK VINA RESULT:      -7.8      3.339      7.814
REMARK  7 active torsions:
REMARK  status: ('A' for Active; 'I' for Inactive)
REMARK    1  A    between atoms: C2_2  and  C3_3 
REMARK    2  A    between atoms: C9_9  and  N1_10 
REMARK    3  A    between atoms: N1_10  and  C10_11 
REMARK    4  A    between atoms: C18_23  and  O3_24 
REMARK    5  A    between atoms: O3_24  and  C19_25 
REMARK    6  A    between atoms: C19_25  and  C20_26 
REMARK    7  A    between atoms: C20_26  and  O4_27 
ROOT
HETATM    1  C10 UNL     1      23.890   3.793  50.584  1.00  0.00     0.041 A 
HETATM    2  P1  UNL     1      25.591   3.747  50.109  1.00  0.00     0.012 P 
HETATM    3  C11 UNL     1      26.477   2.545  50.970  1.00  0.00     0.134 A 
HETATM    4  N2  UNL     1      25.557   2.006  51.756  1.00  0.00    -0.266 NA
HETATM    5  C12 UNL     1      24.329   2.222  51.927  1.00  0.00     0.039 A 
HETATM    6  C13 UNL     1      23.323   2.985  51.518  1.00  0.00     0.085 A 
HETATM    7  C14 UNL     1      22.083   3.416  51.526  1.00  0.00     0.173 C 
HETATM    8  O1  UNL     1      21.502   2.610  52.470  1.00  0.00    -0.380 OA
HETATM    9  C15 UNL     1      20.424   1.747  52.323  1.00  0.00     0.194 C 
HETATM   10  C16 UNL     1      20.964   0.336  52.501  1.00  0.00     0.194 C 
HETATM   11  O2  UNL     1      21.561   0.187  53.765  1.00  0.00    -0.379 OA
HETATM   12  C17 UNL     1      22.816  -0.489  53.895  1.00  0.00     0.183 C 
HETATM   13  C18 UNL     1      23.659   0.338  53.223  1.00  0.00     0.082 C 
HETATM   14  C22 UNL     1      23.323   1.662  52.507  1.00  0.00     0.169 A 
ENDROOT
BRANCH   1  15
HETATM   15  N1  UNL     1      23.335   4.824  49.748  1.00  0.00    -0.366 N 
HETATM   16  H10 UNL     1      22.938   5.526  50.346  1.00  0.00     0.165 HD
BRANCH  15  17
HETATM   17  C9  UNL     1      23.169   5.198  48.403  1.00  0.00     0.100 C 
HETATM   18  C8  UNL     1      22.555   4.517  47.536  1.00  0.00    -0.014 C 
HETATM   19  C3  UNL     1      21.802   3.350  47.127  1.00  0.00    -0.036 C 
HETATM   20  C7  UNL     1      22.395   5.604  46.470  1.00  0.00     0.013 C 
HETATM   21  C4  UNL     1      20.733   3.533  46.361  1.00  0.00    -0.018 C 
HETATM   22  C5  UNL     1      20.915   4.129  45.194  1.00  0.00     0.013 C 
HETATM   23  C6  UNL     1      21.630   5.406  45.386  1.00  0.00     0.002 C 
BRANCH  19  24
HETATM   24  C2  UNL     1      22.540   2.236  47.735  1.00  0.00     0.036 C 
HETATM   25  C1  UNL     1      21.503   1.418  48.521  1.00  0.00     0.010 C 
ENDBRANCH  19  24
ENDBRANCH  15  17
ENDBRANCH   1  15
BRANCH  13  26
HETATM   26  O3  UNL     1      24.924  -0.291  53.309  1.00  0.00    -0.380 OA
BRANCH  26  27
HETATM   27  C19 UNL     1      25.576  -0.778  54.378  1.00  0.00     0.194 C 
BRANCH  27  28
HETATM   28  C20 UNL     1      26.564   0.342  54.816  1.00  0.00     0.193 C 
BRANCH  28  29
HETATM   29  O4  UNL     1      27.790  -0.267  55.014  1.00  0.00    -0.394 OA
HETATM   30  C21 UNL     1      28.505  -0.391  53.872  1.00  0.00     0.201 C 
ENDBRANCH  28  29
ENDBRANCH  27  28
ENDBRANCH  26  27
ENDBRANCH  13  26
TORSDOF 7
ENDMDL
MODEL 6
REMARK VINA RESULT:      -7.8      2.315      8.299
REMARK  7 active torsions:
REMARK  status: ('A' for Active; 'I' for Inactive)
REMARK    1  A    between atoms: C2_2  and  C3_3 
REMARK    2  A    between atoms: C9_9  and  N1_10 
REMARK    3  A    between atoms: N1_10  and  C10_11 
REMARK    4  A    between atoms: C18_23  and  O3_24 
REMARK    5  A    between atoms: O3_24  and  C19_25 
REMARK    6  A    between atoms: C19_25  and  C20_26 
REMARK    7  A    between atoms: C20_26  and  O4_27 
ROOT
HETATM    1  C10 UNL     1      21.564  -0.069  52.987  1.00  0.00     0.041 A 
HETATM    2  P1  UNL     1      21.570  -1.038  54.463  1.00  0.00     0.012 P 
HETATM    3  C11 UNL     1      23.158  -1.249  55.100  1.00  0.00     0.134 A 
HETATM    4  N2  UNL     1      23.913  -0.584  54.238  1.00  0.00    -0.266 NA
HETATM    5  C12 UNL     1      23.663   0.070  53.191  1.00  0.00     0.039 A 
HETATM    6  C13 UNL     1      22.671   0.459  52.400  1.00  0.00     0.085 A 
HETATM    7  C14 UNL     1      22.157   1.052  51.348  1.00  0.00     0.173 C 
HETATM    8  O1  UNL     1      23.267   1.585  50.745  1.00  0.00    -0.380 OA
HETATM    9  C15 UNL     1      23.535   2.915  50.449  1.00  0.00     0.194 C 
HETATM   10  C16 UNL     1      24.705   3.333  51.327  1.00  0.00     0.194 C 
HETATM   11  O2  UNL     1      25.828   2.525  51.078  1.00  0.00    -0.379 OA
HETATM   12  C17 UNL     1      26.606   2.017  52.167  1.00  0.00     0.183 C 
HETATM   13  C18 UNL     1      25.728   1.187  52.786  1.00  0.00     0.082 C 
HETATM   14  C22 UNL     1      24.266   0.886  52.398  1.00  0.00     0.169 A 
ENDROOT
BRANCH   1  15
HETATM   15  N1  UNL     1      20.170   0.008  52.640  1.00  0.00    -0.366 N 
HETATM   16  H10 UNL     1      20.066   0.712  51.932  1.00  0.00     0.165 HD
BRANCH  15  17
HETATM   17  C9  UNL     1      18.917  -0.561  52.929  1.00  0.00     0.100 C 
HETATM   18  C8  UNL     1      17.882  -0.421  52.220  1.00  0.00    -0.014 C 
HETATM   19  C3  UNL     1      17.185   0.110  51.068  1.00  0.00    -0.036 C 
HETATM   20  C7  UNL     1      17.043  -1.550  52.824  1.00  0.00     0.013 C 
HETATM   21  C4  UNL     1      16.381  -0.703  50.394  1.00  0.00    -0.018 C 
HETATM   22  C5  UNL     1      15.376  -1.252  51.057  1.00  0.00     0.013 C 
HETATM   23  C6  UNL     1      15.879  -1.923  52.271  1.00  0.00     0.002 C 
BRANCH  19  24
HETATM   24  C2  UNL     1      17.622   1.512  51.020  1.00  0.00     0.036 C 
HETATM   25  C1  UNL     1      18.578   1.618  49.822  1.00  0.00     0.010 C 
ENDBRANCH  19  24
ENDBRANCH  15  17
ENDBRANCH   1  15
BRANCH  13  26
HETATM   26  O3  UNL     1      26.445   0.660  53.886  1.00  0.00    -0.380 OA
BRANCH  26  27
HETATM   27  C19 UNL     1      27.406  -0.279  53.923  1.00  0.00     0.194 C 
BRANCH  27  28
HETATM   28  C20 UNL     1      28.559   0.330  54.772  1.00  0.00     0.193 C 
BRANCH  28  29
HETATM   29  O4  UNL     1      29.727   0.127  54.057  1.00  0.00    -0.394 OA
HETATM   30  C21 UNL     1      29.767  -1.081  53.451  1.00  0.00     0.201 C 
ENDBRANCH  28  29
ENDBRANCH  27  28
ENDBRANCH  26  27
ENDBRANCH  13  26
TORSDOF 7
ENDMDL
MODEL 7
REMARK VINA RESULT:      -7.6      2.329      4.624
REMARK  7 active torsions:
REMARK  status: ('A' for Active; 'I' for Inactive)
REMARK    1  A    between atoms: C2_2  and  C3_3 
REMARK    2  A    between atoms: C9_9  and  N1_10 
REMARK    3  A    between atoms: N1_10  and  C10_11 
REMARK    4  A    between atoms: C18_23  and  O3_24 
REMARK    5  A    between atoms: O3_24  and  C19_25 
REMARK    6  A    between atoms: C19_25  and  C20_26 
REMARK    7  A    between atoms: C20_26  and  O4_27 
ROOT
HETATM    1  C10 UNL     1      24.403   2.399  51.924  1.00  0.00     0.041 A 
HETATM    2  P1  UNL     1      25.251   3.366  50.713  1.00  0.00     0.012 P 
HETATM    3  C11 UNL     1      24.417   3.403  49.205  1.00  0.00     0.134 A 
HETATM    4  N2  UNL     1      23.347   2.656  49.441  1.00  0.00    -0.266 NA
HETATM    5  C12 UNL     1      22.933   2.030  50.451  1.00  0.00     0.039 A 
HETATM    6  C13 UNL     1      23.228   1.748  51.713  1.00  0.00     0.085 A 
HETATM    7  C14 UNL     1      23.033   1.170  52.876  1.00  0.00     0.173 C 
HETATM    8  O1  UNL     1      21.851   0.505  52.674  1.00  0.00    -0.380 OA
HETATM    9  C15 UNL     1      20.655   0.639  53.368  1.00  0.00     0.194 C 
HETATM   10  C16 UNL     1      19.648   1.234  52.395  1.00  0.00     0.194 C 
HETATM   11  O2  UNL     1      19.489   0.404  51.272  1.00  0.00    -0.379 OA
HETATM   12  C17 UNL     1      19.450   0.969  49.958  1.00  0.00     0.183 C 
HETATM   13  C18 UNL     1      20.703   1.476  49.824  1.00  0.00     0.082 C 
HETATM   14  C22 UNL     1      21.857   1.441  50.846  1.00  0.00     0.169 A 
ENDROOT
BRANCH   1  15
HETATM   15  N1  UNL     1      25.235   2.516  53.091  1.00  0.00    -0.366 N 
HETATM   16  H10 UNL     1      24.697   2.967  53.809  1.00  0.00     0.165 HD
BRANCH  15  17
HETATM   17  C9  UNL     1      26.517   2.210  53.581  1.00  0.00     0.100 C 
HETATM   18  C8  UNL     1      27.000   1.047  53.656  1.00  0.00    -0.014 C 
HETATM   19  C3  UNL     1      26.915  -0.387  53.471  1.00  0.00    -0.036 C 
HETATM   20  C7  UNL     1      28.468   1.428  53.867  1.00  0.00     0.013 C 
HETATM   21  C4  UNL     1      27.961  -1.013  52.946  1.00  0.00    -0.018 C 
HETATM   22  C5  UNL     1      29.113  -0.917  53.590  1.00  0.00     0.013 C 
HETATM   23  C6  UNL     1      29.438   0.502  53.835  1.00  0.00     0.002 C 
BRANCH  19  24
HETATM   24  C2  UNL     1      25.579  -0.719  53.984  1.00  0.00     0.036 C 
HETATM   25  C1  UNL     1      25.666  -0.584  55.512  1.00  0.00     0.010 C 
ENDBRANCH  19  24
ENDBRANCH  15  17
ENDBRANCH   1  15
BRANCH  13  26
HETATM   26  O3  UNL     1      20.718   2.062  48.536  1.00  0.00    -0.380 OA
BRANCH  26  27
HETATM   27  C19 UNL     1      19.874   2.947  47.979  1.00  0.00     0.194 C 
BRANCH  27  28
HETATM   28  C20 UNL     1      20.775   4.031  47.319  1.00  0.00     0.193 C 
BRANCH  28  29
HETATM   29  O4  UNL     1      21.673   3.358  46.508  1.00  0.00    -0.394 OA
HETATM   30  C21 UNL     1      21.749   3.881  45.263  1.00  0.00     0.201 C 
ENDBRANCH  28  29
ENDBRANCH  27  28
ENDBRANCH  26  27
ENDBRANCH  13  26
TORSDOF 7
ENDMDL
MODEL 8
REMARK VINA RESULT:      -7.5      3.469      5.575
REMARK  7 active torsions:
REMARK  status: ('A' for Active; 'I' for Inactive)
REMARK    1  A    between atoms: C2_2  and  C3_3 
REMARK    2  A    between atoms: C9_9  and  N1_10 
REMARK    3  A    between atoms: N1_10  and  C10_11 
REMARK    4  A    between atoms: C18_23  and  O3_24 
REMARK    5  A    between atoms: O3_24  and  C19_25 
REMARK    6  A    between atoms: C19_25  and  C20_26 
REMARK    7  A    between atoms: C20_26  and  O4_27 
ROOT
HETATM    1  C10 UNL     1      25.121   3.075  50.476  1.00  0.00     0.041 A 
HETATM    2  P1  UNL     1      26.021   4.347  49.644  1.00  0.00     0.012 P 
HETATM    3  C11 UNL     1      24.981   5.488  48.876  1.00  0.00     0.134 A 
HETATM    4  N2  UNL     1      23.772   5.028  49.167  1.00  0.00    -0.266 NA
HETATM    5  C12 UNL     1      23.357   4.035  49.818  1.00  0.00     0.039 A 
HETATM    6  C13 UNL     1      23.765   2.984  50.518  1.00  0.00     0.085 A 
HETATM    7  C14 UNL     1      23.595   1.884  51.214  1.00  0.00     0.173 C 
HETATM    8  O1  UNL     1      22.228   1.779  51.259  1.00  0.00    -0.380 OA
HETATM    9  C15 UNL     1      21.402   1.737  52.374  1.00  0.00     0.194 C 
HETATM   10  C16 UNL     1      20.577   3.016  52.357  1.00  0.00     0.194 C 
HETATM   11  O2  UNL     1      19.823   3.106  51.173  1.00  0.00    -0.379 OA
HETATM   12  C17 UNL     1      19.751   4.344  50.458  1.00  0.00     0.183 C 
HETATM   13  C18 UNL     1      21.035   4.517  50.051  1.00  0.00     0.082 C 
HETATM   14  C22 UNL     1      22.248   3.599  50.309  1.00  0.00     0.169 A 
ENDROOT
BRANCH   1  15
HETATM   15  N1  UNL     1      26.152   2.259  51.059  1.00  0.00    -0.366 N 
HETATM   16  H10 UNL     1      26.277   1.453  50.473  1.00  0.00     0.165 HD
BRANCH  15  17
HETATM   17  C9  UNL     1      27.050   2.203  52.139  1.00  0.00     0.100 C 
HETATM   18  C8  UNL     1      27.393   1.144  52.735  1.00  0.00    -0.014 C 
HETATM   19  C3  UNL     1      27.339  -0.290  52.926  1.00  0.00    -0.036 C 
HETATM   20  C7  UNL     1      28.615   1.692  53.478  1.00  0.00     0.013 C 
HETATM   21  C4  UNL     1      28.479  -0.938  53.125  1.00  0.00    -0.018 C 
HETATM   22  C5  UNL     1      29.210  -0.580  54.168  1.00  0.00     0.013 C 
HETATM   23  C6  UNL     1      29.448   0.876  54.141  1.00  0.00     0.002 C 
BRANCH  19  24
HETATM   24  C2  UNL     1      25.903  -0.591  52.846  1.00  0.00     0.036 C 
HETATM   25  C1  UNL     1      25.345  -0.382  54.262  1.00  0.00     0.010 C 
ENDBRANCH  19  24
ENDBRANCH  15  17
ENDBRANCH   1  15
BRANCH  13  26
HETATM   26  O3  UNL     1      21.025   5.742  49.342  1.00  0.00    -0.380 OA
BRANCH  26  27
HETATM   27  C19 UNL     1      20.225   6.813  49.477  1.00  0.00     0.194 C 
BRANCH  27  28
HETATM   28  C20 UNL     1      21.008   7.813  50.376  1.00  0.00     0.193 C 
BRANCH  28  29
HETATM   29  O4  UNL     1      22.282   7.911  49.843  1.00  0.00    -0.394 OA
HETATM   30  C21 UNL     1      22.419   8.959  49.000  1.00  0.00     0.201 C 
ENDBRANCH  28  29
ENDBRANCH  27  28
ENDBRANCH  26  27
ENDBRANCH  13  26
TORSDOF 7
ENDMDL
MODEL 9
REMARK VINA RESULT:      -7.4      4.770      6.812
REMARK  7 active torsions:
REMARK  status: ('A' for Active; 'I' for Inactive)
REMARK    1  A    between atoms: C2_2  and  C3_3 
REMARK    2  A    between atoms: C9_9  and  N1_10 
REMARK    3  A    between atoms: N1_10  and  C10_11 
REMARK    4  A    between atoms: C18_23  and  O3_24 
REMARK    5  A    between atoms: O3_24  and  C19_25 
REMARK    6  A    between atoms: C19_25  and  C20_26 
REMARK    7  A    between atoms: C20_26  and  O4_27 
ROOT
HETATM    1  C10 UNL     1      24.712   3.821  50.160  1.00  0.00     0.041 A 
HETATM    2  P1  UNL     1      23.047   4.306  49.827  1.00  0.00     0.012 P 
HETATM    3  C11 UNL     1      21.899   3.244  50.553  1.00  0.00     0.134 A 
HETATM    4  N2  UNL     1      22.666   2.352  51.164  1.00  0.00    -0.266 NA
HETATM    5  C12 UNL     1      23.912   2.206  51.264  1.00  0.00     0.039 A 
HETATM    6  C13 UNL     1      25.072   2.738  50.899  1.00  0.00     0.085 A 
HETATM    7  C14 UNL     1      26.382   2.794  50.831  1.00  0.00     0.173 C 
HETATM    8  O1  UNL     1      26.757   1.702  51.571  1.00  0.00    -0.380 OA
HETATM    9  C15 UNL     1      27.553   1.661  52.708  1.00  0.00     0.194 C 
HETATM   10  C16 UNL     1      26.655   1.221  53.856  1.00  0.00     0.194 C 
HETATM   11  O2  UNL     1      26.088  -0.037  53.591  1.00  0.00    -0.379 OA
HETATM   12  C17 UNL     1      24.702  -0.274  53.858  1.00  0.00     0.183 C 
HETATM   13  C18 UNL     1      24.092   0.559  52.977  1.00  0.00     0.082 C 
HETATM   14  C22 UNL     1      24.749   1.512  51.957  1.00  0.00     0.169 A 
ENDROOT
BRANCH   1  15
HETATM   15  N1  UNL     1      25.495   4.831  49.501  1.00  0.00    -0.366 N 
HETATM   16  H10 UNL     1      25.918   4.414  48.691  1.00  0.00     0.165 HD
BRANCH  15  17
HETATM   17  C9  UNL     1      25.859   6.187  49.579  1.00  0.00     0.100 C 
HETATM   18  C8  UNL     1      26.800   6.718  48.928  1.00  0.00    -0.014 C 
HETATM   19  C3  UNL     1      27.891   6.657  47.979  1.00  0.00    -0.036 C 
HETATM   20  C7  UNL     1      26.420   8.186  49.144  1.00  0.00     0.013 C 
HETATM   21  C4  UNL     1      27.990   7.624  47.075  1.00  0.00    -0.018 C 
HETATM   22  C5  UNL     1      28.123   8.862  47.521  1.00  0.00     0.013 C 
HETATM   23  C6  UNL     1      27.046   9.170  48.483  1.00  0.00     0.002 C 
BRANCH  19  24
HETATM   24  C2  UNL     1      28.614   5.438  48.367  1.00  0.00     0.036 C 
HETATM   25  C1  UNL     1      30.108   5.769  48.229  1.00  0.00     0.010 C 
ENDBRANCH  19  24
ENDBRANCH  15  17
ENDBRANCH   1  15
BRANCH  13  26
HETATM   26  O3  UNL     1      22.708   0.374  53.206  1.00  0.00    -0.380 OA
BRANCH  26  27
HETATM   27  C19 UNL     1      21.967  -0.747  53.165  1.00  0.00     0.194 C 
BRANCH  27  28
HETATM   28  C20 UNL     1      20.485  -0.273  53.203  1.00  0.00     0.193 C 
BRANCH  28  29
HETATM   29  O4  UNL     1      20.153   0.090  51.909  1.00  0.00    -0.394 OA
HETATM   30  C21 UNL     1      18.828  -0.018  51.658  1.00  0.00     0.201 C 
ENDBRANCH  28  29
ENDBRANCH  27  28
ENDBRANCH  26  27
ENDBRANCH  13  26
TORSDOF 7
ENDMDL
