MODEL 1
REMARK VINA RESULT:      -7.7      0.000      0.000
REMARK  3 active torsions:
REMARK  status: ('A' for Active; 'I' for Inactive)
REMARK    1  A    between atoms: N1_2  and  C2_3 
REMARK    2  A    between atoms: N2_6  and  C5_7 
REMARK    3  A    between atoms: C11_13  and  O1_14 
ROOT
HETATM    1  C5  UNL     1      24.707   0.706  53.724  1.00  0.00     0.215 C 
HETATM    2  C6  UNL     1      25.527   1.638  54.106  1.00  0.00     0.148 C 
HETATM    3  C7  UNL     1      26.534   0.446  54.176  1.00  0.00     0.296 C 
HETATM    4  C8  UNL     1      27.888   0.650  54.277  1.00  0.00     0.160 C 
HETATM    5  C9  UNL     1      28.456   2.073  54.179  1.00  0.00     0.078 C 
HETATM    6  C10 UNL     1      27.831   2.275  52.655  1.00  0.00     0.041 C 
HETATM    7  C11 UNL     1      26.860   1.573  51.812  1.00  0.00     0.254 C 
HETATM    8  N3  UNL     1      26.054   0.511  52.613  1.00  0.00     0.090 N 
HETATM    9  C13 UNL     1      26.681  -0.921  52.536  1.00  0.00     0.372 C 
HETATM   10  C14 UNL     1      28.121  -1.116  52.891  1.00  0.00     0.232 C 
HETATM   11  O2  UNL     1      28.286  -0.714  54.404  1.00  0.00    -0.367 OA
HETATM   12  O3  UNL     1      26.386  -1.125  54.017  1.00  0.00    -0.313 OA
ENDROOT
BRANCH   1  13
HETATM   13  N2  UNL     1      23.355   0.141  53.801  1.00  0.00    -0.314 N 
HETATM   14  C4  UNL     1      22.575   0.999  52.977  1.00  0.00     0.112 A 
HETATM   15  C3  UNL     1      21.304   0.677  52.789  1.00  0.00     0.022 A 
HETATM   16  C2  UNL     1      20.807  -0.322  53.441  1.00  0.00     0.069 A 
HETATM   17  C16 UNL     1      21.601  -1.193  54.284  1.00  0.00     0.050 A 
HETATM   18  C15 UNL     1      22.859  -0.981  54.473  1.00  0.00     0.100 A 
BRANCH  16  19
HETATM   19  N1  UNL     1      19.439  -0.557  53.311  1.00  0.00    -0.271 NA
HETATM   20  C1  UNL     1      18.783  -0.254  52.240  1.00  0.00     0.149 C 
ENDBRANCH  16  19
ENDBRANCH   1  13
BRANCH   7  21
HETATM   21  O1  UNL     1      26.846   1.989  50.494  1.00  0.00    -0.335 OA
HETATM   22  C12 UNL     1      26.420   3.226  50.021  1.00  0.00     0.211 C 
ENDBRANCH   7  21
TORSDOF 3
ENDMDL
MODEL 2
REMARK VINA RESULT:      -7.3      3.159      6.546
REMARK  3 active torsions:
REMARK  status: ('A' for Active; 'I' for Inactive)
REMARK    1  A    between atoms: N1_2  and  C2_3 
REMARK    2  A    between atoms: N2_6  and  C5_7 
REMARK    3  A    between atoms: C11_13  and  O1_14 
ROOT
HETATM    1  C5  UNL     1      22.845   0.962  52.402  1.00  0.00     0.215 C 
HETATM    2  C6  UNL     1      21.721   0.344  52.201  1.00  0.00     0.148 C 
HETATM    3  C7  UNL     1      21.134   1.786  52.330  1.00  0.00     0.296 C 
HETATM    4  C8  UNL     1      19.851   2.079  51.941  1.00  0.00     0.160 C 
HETATM    5  C9  UNL     1      19.003   1.014  51.232  1.00  0.00     0.078 C 
HETATM    6  C10 UNL     1      20.098   0.892  49.991  1.00  0.00     0.041 C 
HETATM    7  C11 UNL     1      21.474   1.335  49.751  1.00  0.00     0.254 C 
HETATM    8  N3  UNL     1      22.155   1.849  51.052  1.00  0.00     0.090 N 
HETATM    9  C13 UNL     1      22.025   3.398  51.240  1.00  0.00     0.372 C 
HETATM   10  C14 UNL     1      20.674   4.038  51.179  1.00  0.00     0.232 C 
HETATM   11  O2  UNL     1      19.823   3.443  52.362  1.00  0.00    -0.367 OA
HETATM   12  O3  UNL     1      21.755   3.190  52.726  1.00  0.00    -0.313 OA
ENDROOT
BRANCH   1  13
HETATM   13  N2  UNL     1      24.155   0.963  53.063  1.00  0.00    -0.314 N 
HETATM   14  C4  UNL     1      24.332  -0.386  53.480  1.00  0.00     0.112 A 
HETATM   15  C3  UNL     1      25.487  -0.705  54.044  1.00  0.00     0.022 A 
HETATM   16  C2  UNL     1      26.345   0.229  54.289  1.00  0.00     0.069 A 
HETATM   17  C16 UNL     1      26.163   1.603  53.868  1.00  0.00     0.050 A 
HETATM   18  C15 UNL     1      25.090   1.984  53.261  1.00  0.00     0.100 A 
BRANCH  16  19
HETATM   19  N1  UNL     1      27.496  -0.124  54.991  1.00  0.00    -0.271 NA
HETATM   20  C1  UNL     1      28.672   0.288  54.646  1.00  0.00     0.149 C 
ENDBRANCH  16  19
ENDBRANCH   1  13
BRANCH   7  21
HETATM   21  O1  UNL     1      21.893   1.204  48.440  1.00  0.00    -0.335 OA
HETATM   22  C12 UNL     1      22.330   2.227  47.606  1.00  0.00     0.211 C 
ENDBRANCH   7  21
TORSDOF 3
ENDMDL
MODEL 3
REMARK VINA RESULT:      -7.0      2.987      6.251
REMARK  3 active torsions:
REMARK  status: ('A' for Active; 'I' for Inactive)
REMARK    1  A    between atoms: N1_2  and  C2_3 
REMARK    2  A    between atoms: N2_6  and  C5_7 
REMARK    3  A    between atoms: C11_13  and  O1_14 
ROOT
HETATM    1  C5  UNL     1      24.217   1.430  52.339  1.00  0.00     0.215 C 
HETATM    2  C6  UNL     1      22.950   1.387  52.619  1.00  0.00     0.148 C 
HETATM    3  C7  UNL     1      23.059   2.934  52.428  1.00  0.00     0.296 C 
HETATM    4  C8  UNL     1      21.945   3.723  52.290  1.00  0.00     0.160 C 
HETATM    5  C9  UNL     1      20.557   3.076  52.175  1.00  0.00     0.078 C 
HETATM    6  C10 UNL     1      20.999   2.244  50.809  1.00  0.00     0.041 C 
HETATM    7  C11 UNL     1      22.255   1.942  50.118  1.00  0.00     0.254 C 
HETATM    8  N3  UNL     1      23.496   2.292  50.988  1.00  0.00     0.090 N 
HETATM    9  C13 UNL     1      24.056   3.726  50.708  1.00  0.00     0.372 C 
HETATM   10  C14 UNL     1      23.135   4.904  50.779  1.00  0.00     0.232 C 
HETATM   11  O2  UNL     1      22.601   4.990  52.257  1.00  0.00    -0.367 OA
HETATM   12  O3  UNL     1      24.274   3.928  52.204  1.00  0.00    -0.313 OA
ENDROOT
BRANCH   1  13
HETATM   13  N2  UNL     1      25.566   0.930  52.630  1.00  0.00    -0.314 N 
HETATM   14  C4  UNL     1      25.366  -0.446  52.931  1.00  0.00     0.112 A 
HETATM   15  C3  UNL     1      26.442  -1.185  53.158  1.00  0.00     0.022 A 
HETATM   16  C2  UNL     1      27.598  -0.612  53.203  1.00  0.00     0.069 A 
HETATM   17  C16 UNL     1      27.801   0.790  52.900  1.00  0.00     0.050 A 
HETATM   18  C15 UNL     1      26.811   1.567  52.614  1.00  0.00     0.100 A 
BRANCH  16  19
HETATM   19  N1  UNL     1      28.691  -1.399  53.562  1.00  0.00    -0.271 NA
HETATM   20  C1  UNL     1      29.889  -0.923  53.647  1.00  0.00     0.149 C 
ENDBRANCH  16  19
ENDBRANCH   1  13
BRANCH   7  21
HETATM   21  O1  UNL     1      22.094   1.408  48.853  1.00  0.00    -0.335 OA
HETATM   22  C12 UNL     1      22.423   2.020  47.649  1.00  0.00     0.211 C 
ENDBRANCH   7  21
TORSDOF 3
ENDMDL
MODEL 4
REMARK VINA RESULT:      -7.0      2.993      6.295
REMARK  3 active torsions:
REMARK  status: ('A' for Active; 'I' for Inactive)
REMARK    1  A    between atoms: N1_2  and  C2_3 
REMARK    2  A    between atoms: N2_6  and  C5_7 
REMARK    3  A    between atoms: C11_13  and  O1_14 
ROOT
HETATM    1  C5  UNL     1      24.430   2.294  52.718  1.00  0.00     0.215 C 
HETATM    2  C6  UNL     1      23.973   3.483  52.971  1.00  0.00     0.148 C 
HETATM    3  C7  UNL     1      23.898   3.568  51.413  1.00  0.00     0.296 C 
HETATM    4  C8  UNL     1      23.189   4.556  50.778  1.00  0.00     0.160 C 
HETATM    5  C9  UNL     1      22.325   5.526  51.597  1.00  0.00     0.078 C 
HETATM    6  C10 UNL     1      21.407   4.283  52.201  1.00  0.00     0.041 C 
HETATM    7  C11 UNL     1      21.508   2.821  52.245  1.00  0.00     0.254 C 
HETATM    8  N3  UNL     1      22.919   2.323  51.822  1.00  0.00     0.090 N 
HETATM    9  C13 UNL     1      23.014   1.967  50.301  1.00  0.00     0.372 C 
HETATM   10  C14 UNL     1      22.591   2.977  49.280  1.00  0.00     0.232 C 
HETATM   11  O2  UNL     1      23.540   4.222  49.435  1.00  0.00    -0.367 OA
HETATM   12  O3  UNL     1      24.390   2.621  50.239  1.00  0.00    -0.313 OA
ENDROOT
BRANCH   1  13
HETATM   13  N2  UNL     1      25.400   1.245  53.053  1.00  0.00    -0.314 N 
HETATM   14  C4  UNL     1      26.530   1.962  53.537  1.00  0.00     0.112 A 
HETATM   15  C3  UNL     1      27.551   1.255  53.998  1.00  0.00     0.022 A 
HETATM   16  C2  UNL     1      27.524  -0.031  53.889  1.00  0.00     0.069 A 
HETATM   17  C16 UNL     1      26.374  -0.761  53.393  1.00  0.00     0.050 A 
HETATM   18  C15 UNL     1      25.317  -0.149  52.977  1.00  0.00     0.100 A 
BRANCH  16  19
HETATM   19  N1  UNL     1      28.665  -0.733  54.275  1.00  0.00    -0.271 NA
HETATM   20  C1  UNL     1      29.769  -0.681  53.606  1.00  0.00     0.149 C 
ENDBRANCH  16  19
ENDBRANCH   1  13
BRANCH   7  21
HETATM   21  O1  UNL     1      20.350   2.184  52.652  1.00  0.00    -0.335 OA
HETATM   22  C12 UNL     1      20.186   0.819  52.855  1.00  0.00     0.211 C 
ENDBRANCH   7  21
TORSDOF 3
ENDMDL
MODEL 5
REMARK VINA RESULT:      -6.7      3.913      6.442
REMARK  3 active torsions:
REMARK  status: ('A' for Active; 'I' for Inactive)
REMARK    1  A    between atoms: N1_2  and  C2_3 
REMARK    2  A    between atoms: N2_6  and  C5_7 
REMARK    3  A    between atoms: C11_13  and  O1_14 
ROOT
HETATM    1  C5  UNL     1      25.036   2.945  51.287  1.00  0.00     0.215 C 
HETATM    2  C6  UNL     1      24.842   3.176  50.024  1.00  0.00     0.148 C 
HETATM    3  C7  UNL     1      23.366   3.379  50.491  1.00  0.00     0.296 C 
HETATM    4  C8  UNL     1      22.429   3.973  49.683  1.00  0.00     0.160 C 
HETATM    5  C9  UNL     1      22.854   4.587  48.342  1.00  0.00     0.078 C 
HETATM    6  C10 UNL     1      23.897   5.637  49.092  1.00  0.00     0.041 C 
HETATM    7  C11 UNL     1      24.475   5.773  50.432  1.00  0.00     0.254 C 
HETATM    8  N3  UNL     1      24.231   4.507  51.301  1.00  0.00     0.090 N 
HETATM    9  C13 UNL     1      22.947   4.611  52.190  1.00  0.00     0.372 C 
HETATM   10  C14 UNL     1      21.637   4.956  51.554  1.00  0.00     0.232 C 
HETATM   11  O2  UNL     1      21.297   3.806  50.535  1.00  0.00    -0.367 OA
HETATM   12  O3  UNL     1      22.613   3.159  51.869  1.00  0.00    -0.313 OA
ENDROOT
BRANCH   1  13
HETATM   13  N2  UNL     1      25.709   2.132  52.306  1.00  0.00    -0.314 N 
HETATM   14  C4  UNL     1      26.422   1.157  51.555  1.00  0.00     0.112 A 
HETATM   15  C3  UNL     1      27.203   0.320  52.223  1.00  0.00     0.022 A 
HETATM   16  C2  UNL     1      27.198   0.353  53.514  1.00  0.00     0.069 A 
HETATM   17  C16 UNL     1      26.469   1.344  54.279  1.00  0.00     0.050 A 
HETATM   18  C15 UNL     1      25.730   2.231  53.702  1.00  0.00     0.100 A 
BRANCH  16  19
HETATM   19  N1  UNL     1      27.938  -0.619  54.184  1.00  0.00    -0.271 NA
HETATM   20  C1  UNL     1      29.140  -0.938  53.834  1.00  0.00     0.149 C 
ENDBRANCH  16  19
ENDBRANCH   1  13
BRANCH   7  21
HETATM   21  O1  UNL     1      25.118   6.976  50.654  1.00  0.00    -0.335 OA
HETATM   22  C12 UNL     1      26.159   7.509  49.901  1.00  0.00     0.211 C 
ENDBRANCH   7  21
TORSDOF 3
ENDMDL
MODEL 6
REMARK VINA RESULT:      -6.4     10.585     11.980
REMARK  3 active torsions:
REMARK  status: ('A' for Active; 'I' for Inactive)
REMARK    1  A    between atoms: N1_2  and  C2_3 
REMARK    2  A    between atoms: N2_6  and  C5_7 
REMARK    3  A    between atoms: C11_13  and  O1_14 
ROOT
HETATM    1  C5  UNL     1      33.075   6.403  47.423  1.00  0.00     0.215 C 
HETATM    2  C6  UNL     1      34.248   5.936  47.118  1.00  0.00     0.148 C 
HETATM    3  C7  UNL     1      33.599   4.580  47.543  1.00  0.00     0.296 C 
HETATM    4  C8  UNL     1      34.183   3.376  47.241  1.00  0.00     0.160 C 
HETATM    5  C9  UNL     1      35.427   3.332  46.343  1.00  0.00     0.078 C 
HETATM    6  C10 UNL     1      34.613   4.048  45.088  1.00  0.00     0.041 C 
HETATM    7  C11 UNL     1      33.338   4.753  44.922  1.00  0.00     0.254 C 
HETATM    8  N3  UNL     1      32.693   5.115  46.290  1.00  0.00     0.090 N 
HETATM    9  C13 UNL     1      31.670   4.040  46.789  1.00  0.00     0.372 C 
HETATM   10  C14 UNL     1      32.092   2.607  46.878  1.00  0.00     0.232 C 
HETATM   11  O2  UNL     1      33.261   2.530  47.929  1.00  0.00    -0.367 OA
HETATM   12  O3  UNL     1      32.213   4.189  48.206  1.00  0.00    -0.313 OA
ENDROOT
BRANCH   1  13
HETATM   13  N2  UNL     1      32.297   7.476  48.052  1.00  0.00    -0.314 N 
HETATM   14  C4  UNL     1      32.436   8.573  47.157  1.00  0.00     0.112 A 
HETATM   15  C3  UNL     1      31.758   9.678  47.432  1.00  0.00     0.022 A 
HETATM   16  C2  UNL     1      31.099   9.748  48.541  1.00  0.00     0.069 A 
HETATM   17  C16 UNL     1      30.960   8.632  49.454  1.00  0.00     0.050 A 
HETATM   18  C15 UNL     1      31.542   7.503  49.229  1.00  0.00     0.100 A 
BRANCH  16  19
HETATM   19  N1  UNL     1      30.497  10.966  48.853  1.00  0.00    -0.271 NA
HETATM   20  C1  UNL     1      29.219  11.145  48.788  1.00  0.00     0.149 C 
ENDBRANCH  16  19
ENDBRANCH   1  13
BRANCH   7  21
HETATM   21  O1  UNL     1      32.970   4.960  43.606  1.00  0.00    -0.335 OA
HETATM   22  C12 UNL     1      33.740   4.691  42.480  1.00  0.00     0.211 C 
ENDBRANCH   7  21
TORSDOF 3
ENDMDL
MODEL 7
REMARK VINA RESULT:      -6.2      2.750      4.710
REMARK  3 active torsions:
REMARK  status: ('A' for Active; 'I' for Inactive)
REMARK    1  A    between atoms: N1_2  and  C2_3 
REMARK    2  A    between atoms: N2_6  and  C5_7 
REMARK    3  A    between atoms: C11_13  and  O1_14 
ROOT
HETATM    1  C5  UNL     1      22.237   1.669  51.399  1.00  0.00     0.215 C 
HETATM    2  C6  UNL     1      22.699   1.952  50.219  1.00  0.00     0.148 C 
HETATM    3  C7  UNL     1      22.568   3.419  50.737  1.00  0.00     0.296 C 
HETATM    4  C8  UNL     1      23.169   4.469  50.088  1.00  0.00     0.160 C 
HETATM    5  C9  UNL     1      24.113   4.201  48.907  1.00  0.00     0.078 C 
HETATM    6  C10 UNL     1      25.126   3.291  49.855  1.00  0.00     0.041 C 
HETATM    7  C11 UNL     1      25.061   2.680  51.186  1.00  0.00     0.254 C 
HETATM    8  N3  UNL     1      23.617   2.695  51.762  1.00  0.00     0.090 N 
HETATM    9  C13 UNL     1      23.331   3.939  52.668  1.00  0.00     0.372 C 
HETATM   10  C14 UNL     1      23.596   5.313  52.138  1.00  0.00     0.232 C 
HETATM   11  O2  UNL     1      22.651   5.525  50.897  1.00  0.00    -0.367 OA
HETATM   12  O3  UNL     1      21.946   4.069  52.043  1.00  0.00    -0.313 OA
ENDROOT
BRANCH   1  13
HETATM   13  N2  UNL     1      21.340   0.838  52.210  1.00  0.00    -0.314 N 
HETATM   14  C4  UNL     1      20.146   0.765  51.438  1.00  0.00     0.112 A 
HETATM   15  C3  UNL     1      19.169  -0.004  51.895  1.00  0.00     0.022 A 
HETATM   16  C2  UNL     1      19.297  -0.558  53.054  1.00  0.00     0.069 A 
HETATM   17  C16 UNL     1      20.511  -0.481  53.841  1.00  0.00     0.050 A 
HETATM   18  C15 UNL     1      21.530   0.202  53.441  1.00  0.00     0.100 A 
BRANCH  16  19
HETATM   19  N1  UNL     1      18.202  -1.262  53.554  1.00  0.00    -0.271 NA
HETATM   20  C1  UNL     1      17.124  -1.445  52.866  1.00  0.00     0.149 C 
ENDBRANCH  16  19
ENDBRANCH   1  13
BRANCH   7  21
HETATM   21  O1  UNL     1      26.274   2.213  51.656  1.00  0.00    -0.335 OA
HETATM   22  C12 UNL     1      26.622   0.884  51.871  1.00  0.00     0.211 C 
ENDBRANCH   7  21
TORSDOF 3
ENDMDL
MODEL 8
REMARK VINA RESULT:      -6.2      3.627      6.527
REMARK  3 active torsions:
REMARK  status: ('A' for Active; 'I' for Inactive)
REMARK    1  A    between atoms: N1_2  and  C2_3 
REMARK    2  A    between atoms: N2_6  and  C5_7 
REMARK    3  A    between atoms: C11_13  and  O1_14 
ROOT
HETATM    1  C5  UNL     1      23.274   2.650  52.080  1.00  0.00     0.215 C 
HETATM    2  C6  UNL     1      21.999   2.613  51.835  1.00  0.00     0.148 C 
HETATM    3  C7  UNL     1      22.153   4.167  51.854  1.00  0.00     0.296 C 
HETATM    4  C8  UNL     1      21.172   4.994  51.368  1.00  0.00     0.160 C 
HETATM    5  C9  UNL     1      19.950   4.397  50.655  1.00  0.00     0.078 C 
HETATM    6  C10 UNL     1      20.905   3.689  49.498  1.00  0.00     0.041 C 
HETATM    7  C11 UNL     1      22.336   3.421  49.329  1.00  0.00     0.254 C 
HETATM    8  N3  UNL     1      23.130   3.654  50.645  1.00  0.00     0.090 N 
HETATM    9  C13 UNL     1      23.734   5.094  50.750  1.00  0.00     0.372 C 
HETATM   10  C14 UNL     1      22.844   6.283  50.569  1.00  0.00     0.232 C 
HETATM   11  O2  UNL     1      21.771   6.241  51.719  1.00  0.00    -0.367 OA
HETATM   12  O3  UNL     1      23.344   5.146  52.223  1.00  0.00    -0.313 OA
ENDROOT
BRANCH   1  13
HETATM   13  N2  UNL     1      24.407   2.090  52.826  1.00  0.00    -0.314 N 
HETATM   14  C4  UNL     1      24.230   0.682  52.716  1.00  0.00     0.112 A 
HETATM   15  C3  UNL     1      25.169  -0.095  53.236  1.00  0.00     0.022 A 
HETATM   16  C2  UNL     1      26.131   0.447  53.905  1.00  0.00     0.069 A 
HETATM   17  C16 UNL     1      26.309   1.881  54.021  1.00  0.00     0.050 A 
HETATM   18  C15 UNL     1      25.469   2.707  53.494  1.00  0.00     0.100 A 
BRANCH  16  19
HETATM   19  N1  UNL     1      27.034  -0.406  54.538  1.00  0.00    -0.271 NA
HETATM   20  C1  UNL     1      28.247  -0.055  54.808  1.00  0.00     0.149 C 
ENDBRANCH  16  19
ENDBRANCH   1  13
BRANCH   7  21
HETATM   21  O1  UNL     1      22.692   3.015  48.056  1.00  0.00    -0.335 OA
HETATM   22  C12 UNL     1      22.435   1.775  47.482  1.00  0.00     0.211 C 
ENDBRANCH   7  21
TORSDOF 3
ENDMDL
MODEL 9
REMARK VINA RESULT:      -6.1      7.998     10.768
REMARK  3 active torsions:
REMARK  status: ('A' for Active; 'I' for Inactive)
REMARK    1  A    between atoms: N1_2  and  C2_3 
REMARK    2  A    between atoms: N2_6  and  C5_7 
REMARK    3  A    between atoms: C11_13  and  O1_14 
ROOT
HETATM    1  C5  UNL     1      31.429   7.172  48.037  1.00  0.00     0.215 C 
HETATM    2  C6  UNL     1      32.316   8.096  48.254  1.00  0.00     0.148 C 
HETATM    3  C7  UNL     1      33.245   6.866  48.503  1.00  0.00     0.296 C 
HETATM    4  C8  UNL     1      34.611   6.993  48.554  1.00  0.00     0.160 C 
HETATM    5  C9  UNL     1      35.268   8.341  48.221  1.00  0.00     0.078 C 
HETATM    6  C10 UNL     1      34.622   8.338  46.693  1.00  0.00     0.041 C 
HETATM    7  C11 UNL     1      33.590   7.577  45.984  1.00  0.00     0.254 C 
HETATM    8  N3  UNL     1      32.736   6.713  46.955  1.00  0.00     0.090 N 
HETATM    9  C13 UNL     1      33.267   5.248  47.102  1.00  0.00     0.372 C 
HETATM   10  C14 UNL     1      34.700   5.017  47.467  1.00  0.00     0.232 C 
HETATM   11  O2  UNL     1      34.924   5.643  48.894  1.00  0.00    -0.367 OA
HETATM   12  O3  UNL     1      32.993   5.303  48.601  1.00  0.00    -0.313 OA
ENDROOT
BRANCH   1  13
HETATM   13  N2  UNL     1      30.046   6.719  48.220  1.00  0.00    -0.314 N 
HETATM   14  C4  UNL     1      29.315   7.919  48.441  1.00  0.00     0.112 A 
HETATM   15  C3  UNL     1      27.999   7.821  48.559  1.00  0.00     0.022 A 
HETATM   16  C2  UNL     1      27.457   6.649  48.578  1.00  0.00     0.069 A 
HETATM   17  C16 UNL     1      28.201   5.426  48.357  1.00  0.00     0.050 A 
HETATM   18  C15 UNL     1      29.479   5.440  48.177  1.00  0.00     0.100 A 
BRANCH  16  19
HETATM   19  N1  UNL     1      26.086   6.580  48.824  1.00  0.00    -0.271 NA
HETATM   20  C1  UNL     1      25.596   6.568  50.019  1.00  0.00     0.149 C 
ENDBRANCH  16  19
ENDBRANCH   1  13
BRANCH   7  21
HETATM   21  O1  UNL     1      33.573   7.777  44.617  1.00  0.00    -0.335 OA
HETATM   22  C12 UNL     1      34.216   7.000  43.659  1.00  0.00     0.211 C 
ENDBRANCH   7  21
TORSDOF 3
ENDMDL
