MODEL 1
REMARK VINA RESULT:      -8.9      0.000      0.000
REMARK  3 active torsions:
REMARK  status: ('A' for Active; 'I' for Inactive)
REMARK    1  A    between atoms: C6_8  and  N3_9 
REMARK       I    between atoms: N3_9  and  C7_10 
REMARK    2  A    between atoms: C7_10  and  C8_12 
REMARK    3  A    between atoms: C9_13  and  C10_14 
ROOT
HETATM    1  N3  UNL     1      24.213   0.156  52.666  1.00  0.00    -0.324 N 
HETATM    2  C7  UNL     1      23.432  -0.467  53.676  1.00  0.00     0.245 C 
HETATM    3  O1  UNL     1      24.018  -0.877  54.717  1.00  0.00    -0.268 OA
HETATM    4  H5  UNL     1      23.730   0.495  51.804  1.00  0.00     0.169 HD
ENDROOT
BRANCH   1   5
HETATM    5  C6  UNL     1      25.608   0.230  52.996  1.00  0.00     0.035 A 
HETATM    6  C5  UNL     1      26.186   1.439  53.392  1.00  0.00     0.032 A 
HETATM    7  C4  UNL     1      27.520   1.411  53.686  1.00  0.00     0.035 A 
HETATM    8  C3  UNL     1      28.260   0.233  53.595  1.00  0.00     0.069 A 
HETATM    9  N2  UNL     1      29.650   0.057  53.869  1.00  0.00    -0.258 NA
HETATM   10  C17 UNL     1      27.669  -0.953  53.202  1.00  0.00     0.024 A 
HETATM   11  C2  UNL     1      29.948  -1.187  53.664  1.00  0.00     0.149 A 
HETATM   12  C1  UNL     1      28.761  -1.924  53.236  1.00  0.00     0.078 A 
HETATM   13  N1  UNL     1      28.603  -3.172  52.927  1.00  0.00    -0.298 NA
HETATM   14  H1  UNL     1      29.470  -3.763  52.993  1.00  0.00     0.187 HD
HETATM   15  C16 UNL     1      26.323  -0.946  52.900  1.00  0.00     0.045 A 
ENDBRANCH   1   5
BRANCH   2  16
HETATM   16  C8  UNL     1      21.971  -0.662  53.570  1.00  0.00     0.075 C 
HETATM   17  C9  UNL     1      21.274  -0.099  52.599  1.00  0.00     0.017 C 
BRANCH  17  18
HETATM   18  C10 UNL     1      19.835  -0.267  52.461  1.00  0.00    -0.036 A 
HETATM   19  C11 UNL     1      19.067  -0.993  53.342  1.00  0.00     0.011 A 
HETATM   20  C12 UNL     1      17.690  -1.138  53.186  1.00  0.00     0.001 A 
HETATM   21  C13 UNL     1      17.060  -0.539  52.116  1.00  0.00     0.000 A 
HETATM   22  C14 UNL     1      17.803   0.194  51.218  1.00  0.00     0.001 A 
HETATM   23  C15 UNL     1      19.164   0.313  51.407  1.00  0.00     0.011 A 
ENDBRANCH  17  18
ENDBRANCH   2  16
TORSDOF 3
ENDMDL
MODEL 2
REMARK VINA RESULT:      -8.1      4.614      7.932
REMARK  3 active torsions:
REMARK  status: ('A' for Active; 'I' for Inactive)
REMARK    1  A    between atoms: C6_8  and  N3_9 
REMARK       I    between atoms: N3_9  and  C7_10 
REMARK    2  A    between atoms: C7_10  and  C8_12 
REMARK    3  A    between atoms: C9_13  and  C10_14 
ROOT
HETATM    1  N3  UNL     1      24.351   2.106  50.830  1.00  0.00    -0.324 N 
HETATM    2  C7  UNL     1      24.433   3.461  51.251  1.00  0.00     0.245 C 
HETATM    3  O1  UNL     1      23.885   3.781  52.343  1.00  0.00    -0.268 OA
HETATM    4  H5  UNL     1      24.803   1.840  49.926  1.00  0.00     0.169 HD
ENDROOT
BRANCH   1   5
HETATM    5  C6  UNL     1      23.630   1.271  51.749  1.00  0.00     0.035 A 
HETATM    6  C5  UNL     1      22.254   1.078  51.610  1.00  0.00     0.032 A 
HETATM    7  C4  UNL     1      21.655   0.267  52.533  1.00  0.00     0.035 A 
HETATM    8  C3  UNL     1      22.388  -0.334  53.556  1.00  0.00     0.069 A 
HETATM    9  N2  UNL     1      21.899  -1.198  54.582  1.00  0.00    -0.258 NA
HETATM   10  C17 UNL     1      23.750  -0.130  53.675  1.00  0.00     0.024 A 
HETATM   11  C2  UNL     1      22.898  -1.539  55.333  1.00  0.00     0.149 A 
HETATM   12  C1  UNL     1      24.127  -0.917  54.847  1.00  0.00     0.078 A 
HETATM   13  N1  UNL     1      25.343  -0.983  55.289  1.00  0.00    -0.298 NA
HETATM   14  H1  UNL     1      25.478  -1.584  56.140  1.00  0.00     0.187 HD
HETATM   15  C16 UNL     1      24.373   0.687  52.754  1.00  0.00     0.045 A 
ENDBRANCH   1   5
BRANCH   2  16
HETATM   16  C8  UNL     1      25.123   4.514  50.476  1.00  0.00     0.075 C 
HETATM   17  C9  UNL     1      26.165   4.232  49.715  1.00  0.00     0.017 C 
BRANCH  17  18
HETATM   18  C10 UNL     1      26.870   5.239  48.938  1.00  0.00    -0.036 A 
HETATM   19  C11 UNL     1      28.199   5.142  48.595  1.00  0.00     0.011 A 
HETATM   20  C12 UNL     1      28.850   6.122  47.849  1.00  0.00     0.001 A 
HETATM   21  C13 UNL     1      28.151   7.235  47.432  1.00  0.00     0.000 A 
HETATM   22  C14 UNL     1      26.820   7.360  47.760  1.00  0.00     0.001 A 
HETATM   23  C15 UNL     1      26.212   6.367  48.500  1.00  0.00     0.011 A 
ENDBRANCH  17  18
ENDBRANCH   2  16
TORSDOF 3
ENDMDL
MODEL 3
REMARK VINA RESULT:      -8.0      5.614      7.643
REMARK  3 active torsions:
REMARK  status: ('A' for Active; 'I' for Inactive)
REMARK    1  A    between atoms: C6_8  and  N3_9 
REMARK       I    between atoms: N3_9  and  C7_10 
REMARK    2  A    between atoms: C7_10  and  C8_12 
REMARK    3  A    between atoms: C9_13  and  C10_14 
ROOT
HETATM    1  N3  UNL     1      25.546   3.370  51.374  1.00  0.00    -0.324 N 
HETATM    2  C7  UNL     1      26.098   3.680  50.102  1.00  0.00     0.245 C 
HETATM    3  O1  UNL     1      27.026   2.947  49.659  1.00  0.00    -0.268 OA
HETATM    4  H5  UNL     1      24.778   3.975  51.742  1.00  0.00     0.169 HD
ENDROOT
BRANCH   1   5
HETATM    5  C6  UNL     1      26.150   2.221  51.987  1.00  0.00     0.035 A 
HETATM    6  C5  UNL     1      25.640   0.940  51.764  1.00  0.00     0.032 A 
HETATM    7  C4  UNL     1      26.282  -0.091  52.391  1.00  0.00     0.035 A 
HETATM    8  C3  UNL     1      27.389   0.133  53.209  1.00  0.00     0.069 A 
HETATM    9  N2  UNL     1      28.153  -0.840  53.921  1.00  0.00    -0.258 NA
HETATM   10  C17 UNL     1      27.878   1.409  53.417  1.00  0.00     0.024 A 
HETATM   11  C2  UNL     1      29.095  -0.224  54.562  1.00  0.00     0.149 A 
HETATM   12  C1  UNL     1      29.016   1.213  54.312  1.00  0.00     0.078 A 
HETATM   13  N1  UNL     1      29.748   2.190  54.745  1.00  0.00    -0.298 NA
HETATM   14  H1  UNL     1      30.535   1.912  55.384  1.00  0.00     0.187 HD
HETATM   15  C16 UNL     1      27.244   2.464  52.793  1.00  0.00     0.045 A 
ENDBRANCH   1   5
BRANCH   2  16
HETATM   16  C8  UNL     1      25.644   4.816  49.273  1.00  0.00     0.075 C 
HETATM   17  C9  UNL     1      26.485   5.756  48.880  1.00  0.00     0.017 C 
BRANCH  17  18
HETATM   18  C10 UNL     1      26.076   6.889  48.063  1.00  0.00    -0.036 A 
HETATM   19  C11 UNL     1      26.964   7.745  47.453  1.00  0.00     0.011 A 
HETATM   20  C12 UNL     1      26.545   8.823  46.676  1.00  0.00     0.001 A 
HETATM   21  C13 UNL     1      25.197   9.052  46.501  1.00  0.00     0.000 A 
HETATM   22  C14 UNL     1      24.285   8.212  47.099  1.00  0.00     0.001 A 
HETATM   23  C15 UNL     1      24.740   7.156  47.861  1.00  0.00     0.011 A 
ENDBRANCH  17  18
ENDBRANCH   2  16
TORSDOF 3
ENDMDL
MODEL 4
REMARK VINA RESULT:      -7.9      4.516      8.125
REMARK  3 active torsions:
REMARK  status: ('A' for Active; 'I' for Inactive)
REMARK    1  A    between atoms: C6_8  and  N3_9 
REMARK       I    between atoms: N3_9  and  C7_10 
REMARK    2  A    between atoms: C7_10  and  C8_12 
REMARK    3  A    between atoms: C9_13  and  C10_14 
ROOT
HETATM    1  N3  UNL     1      24.646   1.835  51.219  1.00  0.00    -0.324 N 
HETATM    2  C7  UNL     1      24.533   3.203  51.587  1.00  0.00     0.245 C 
HETATM    3  O1  UNL     1      23.955   3.483  52.675  1.00  0.00    -0.268 OA
HETATM    4  H5  UNL     1      25.124   1.602  50.319  1.00  0.00     0.169 HD
ENDROOT
BRANCH   1   5
HETATM    5  C6  UNL     1      24.062   0.942  52.179  1.00  0.00     0.035 A 
HETATM    6  C5  UNL     1      24.860   0.280  53.117  1.00  0.00     0.032 A 
HETATM    7  C4  UNL     1      24.215  -0.550  53.989  1.00  0.00     0.035 A 
HETATM    8  C3  UNL     1      22.832  -0.722  53.941  1.00  0.00     0.069 A 
HETATM    9  N2  UNL     1      22.031  -1.551  54.783  1.00  0.00    -0.258 NA
HETATM   10  C17 UNL     1      22.061  -0.059  53.006  1.00  0.00     0.024 A 
HETATM   11  C2  UNL     1      20.795  -1.430  54.412  1.00  0.00     0.149 A 
HETATM   12  C1  UNL     1      20.698  -0.503  53.286  1.00  0.00     0.078 A 
HETATM   13  N1  UNL     1      19.671  -0.096  52.610  1.00  0.00    -0.298 NA
HETATM   14  H1  UNL     1      18.747  -0.493  52.916  1.00  0.00     0.187 HD
HETATM   15  C16 UNL     1      22.693   0.785  52.114  1.00  0.00     0.045 A 
ENDBRANCH   1   5
BRANCH   2  16
HETATM   16  C8  UNL     1      25.056   4.313  50.764  1.00  0.00     0.075 C 
HETATM   17  C9  UNL     1      26.051   4.126  49.914  1.00  0.00     0.017 C 
BRANCH  17  18
HETATM   18  C10 UNL     1      26.592   5.193  49.086  1.00  0.00    -0.036 A 
HETATM   19  C11 UNL     1      25.857   6.278  48.669  1.00  0.00     0.011 A 
HETATM   20  C12 UNL     1      26.401   7.286  47.876  1.00  0.00     0.001 A 
HETATM   21  C13 UNL     1      27.721   7.209  47.488  1.00  0.00     0.000 A 
HETATM   22  C14 UNL     1      28.482   6.134  47.890  1.00  0.00     0.001 A 
HETATM   23  C15 UNL     1      27.907   5.157  48.675  1.00  0.00     0.011 A 
ENDBRANCH  17  18
ENDBRANCH   2  16
TORSDOF 3
ENDMDL
MODEL 5
REMARK VINA RESULT:      -7.9      2.374      8.745
REMARK  3 active torsions:
REMARK  status: ('A' for Active; 'I' for Inactive)
REMARK    1  A    between atoms: C6_8  and  N3_9 
REMARK       I    between atoms: N3_9  and  C7_10 
REMARK    2  A    between atoms: C7_10  and  C8_12 
REMARK    3  A    between atoms: C9_13  and  C10_14 
ROOT
HETATM    1  N3  UNL     1      22.925  -0.495  52.506  1.00  0.00    -0.324 N 
HETATM    2  C7  UNL     1      23.633   0.677  52.886  1.00  0.00     0.245 C 
HETATM    3  O1  UNL     1      22.972   1.732  53.097  1.00  0.00    -0.268 OA
HETATM    4  H5  UNL     1      23.471  -1.369  52.331  1.00  0.00     0.169 HD
ENDROOT
BRANCH   1   5
HETATM    5  C6  UNL     1      21.506  -0.295  52.419  1.00  0.00     0.035 A 
HETATM    6  C5  UNL     1      20.662  -0.695  53.457  1.00  0.00     0.032 A 
HETATM    7  C4  UNL     1      19.327  -0.463  53.284  1.00  0.00     0.035 A 
HETATM    8  C3  UNL     1      18.840   0.143  52.127  1.00  0.00     0.069 A 
HETATM    9  N2  UNL     1      17.481   0.445  51.811  1.00  0.00    -0.258 NA
HETATM   10  C17 UNL     1      19.692   0.532  51.110  1.00  0.00     0.024 A 
HETATM   11  C2  UNL     1      17.452   1.005  50.643  1.00  0.00     0.149 A 
HETATM   12  C1  UNL     1      18.805   1.112  50.104  1.00  0.00     0.078 A 
HETATM   13  N1  UNL     1      19.235   1.598  48.983  1.00  0.00    -0.298 NA
HETATM   14  H1  UNL     1      18.492   1.984  48.348  1.00  0.00     0.187 HD
HETATM   15  C16 UNL     1      21.044   0.306  51.266  1.00  0.00     0.045 A 
ENDBRANCH   1   5
BRANCH   2  16
HETATM   16  C8  UNL     1      25.102   0.725  53.043  1.00  0.00     0.075 C 
HETATM   17  C9  UNL     1      25.814  -0.381  53.161  1.00  0.00     0.017 C 
BRANCH  17  18
HETATM   18  C10 UNL     1      27.261  -0.375  53.318  1.00  0.00    -0.036 A 
HETATM   19  C11 UNL     1      27.985   0.749  53.639  1.00  0.00     0.011 A 
HETATM   20  C12 UNL     1      29.371   0.727  53.783  1.00  0.00     0.001 A 
HETATM   21  C13 UNL     1      30.055  -0.455  53.601  1.00  0.00     0.000 A 
HETATM   22  C14 UNL     1      29.357  -1.597  53.279  1.00  0.00     0.001 A 
HETATM   23  C15 UNL     1      27.985  -1.534  53.145  1.00  0.00     0.011 A 
ENDBRANCH  17  18
ENDBRANCH   2  16
TORSDOF 3
ENDMDL
MODEL 6
REMARK VINA RESULT:      -7.8      5.786      8.639
REMARK  3 active torsions:
REMARK  status: ('A' for Active; 'I' for Inactive)
REMARK    1  A    between atoms: C6_8  and  N3_9 
REMARK       I    between atoms: N3_9  and  C7_10 
REMARK    2  A    between atoms: C7_10  and  C8_12 
REMARK    3  A    between atoms: C9_13  and  C10_14 
ROOT
HETATM    1  N3  UNL     1      25.828   3.951  50.902  1.00  0.00    -0.324 N 
HETATM    2  C7  UNL     1      26.649   3.611  49.793  1.00  0.00     0.245 C 
HETATM    3  O1  UNL     1      26.842   2.387  49.546  1.00  0.00    -0.268 OA
HETATM    4  H5  UNL     1      25.668   4.963  51.108  1.00  0.00     0.169 HD
ENDROOT
BRANCH   1   5
HETATM    5  C6  UNL     1      25.319   2.805  51.601  1.00  0.00     0.035 A 
HETATM    6  C5  UNL     1      24.071   2.267  51.277  1.00  0.00     0.032 A 
HETATM    7  C4  UNL     1      23.672   1.176  51.997  1.00  0.00     0.035 A 
HETATM    8  C3  UNL     1      24.474   0.634  53.000  1.00  0.00     0.069 A 
HETATM    9  N2  UNL     1      24.187  -0.494  53.826  1.00  0.00    -0.258 NA
HETATM   10  C17 UNL     1      25.706   1.182  53.305  1.00  0.00     0.024 A 
HETATM   11  C2  UNL     1      25.187  -0.671  54.630  1.00  0.00     0.149 A 
HETATM   12  C1  UNL     1      26.213   0.340  54.386  1.00  0.00     0.078 A 
HETATM   13  N1  UNL     1      27.362   0.536  54.951  1.00  0.00    -0.298 NA
HETATM   14  H1  UNL     1      27.606  -0.142  55.716  1.00  0.00     0.187 HD
HETATM   15  C16 UNL     1      26.128   2.284  52.590  1.00  0.00     0.045 A 
ENDBRANCH   1   5
BRANCH   2  16
HETATM   16  C8  UNL     1      27.290   4.614  48.917  1.00  0.00     0.075 C 
HETATM   17  C9  UNL     1      26.767   5.817  48.756  1.00  0.00     0.017 C 
BRANCH  17  18
HETATM   18  C10 UNL     1      27.368   6.831  47.904  1.00  0.00    -0.036 A 
HETATM   19  C11 UNL     1      26.661   7.872  47.348  1.00  0.00     0.011 A 
HETATM   20  C12 UNL     1      27.262   8.830  46.535  1.00  0.00     0.001 A 
HETATM   21  C13 UNL     1      28.612   8.747  46.268  1.00  0.00     0.000 A 
HETATM   22  C14 UNL     1      29.345   7.716  46.811  1.00  0.00     0.001 A 
HETATM   23  C15 UNL     1      28.713   6.787  47.611  1.00  0.00     0.011 A 
ENDBRANCH  17  18
ENDBRANCH   2  16
TORSDOF 3
ENDMDL
MODEL 7
REMARK VINA RESULT:      -7.8      4.520      8.802
REMARK  3 active torsions:
REMARK  status: ('A' for Active; 'I' for Inactive)
REMARK    1  A    between atoms: C6_8  and  N3_9 
REMARK       I    between atoms: N3_9  and  C7_10 
REMARK    2  A    between atoms: C7_10  and  C8_12 
REMARK    3  A    between atoms: C9_13  and  C10_14 
ROOT
HETATM    1  N3  UNL     1      23.658   1.525  51.178  1.00  0.00    -0.324 N 
HETATM    2  C7  UNL     1      23.782   2.921  51.410  1.00  0.00     0.245 C 
HETATM    3  O1  UNL     1      22.885   3.496  52.089  1.00  0.00    -0.268 OA
HETATM    4  H5  UNL     1      24.399   1.048  50.616  1.00  0.00     0.169 HD
ENDROOT
BRANCH   1   5
HETATM    5  C6  UNL     1      22.484   0.954  51.777  1.00  0.00     0.035 A 
HETATM    6  C5  UNL     1      22.521   0.441  53.076  1.00  0.00     0.032 A 
HETATM    7  C4  UNL     1      21.355  -0.081  53.560  1.00  0.00     0.035 A 
HETATM    8  C3  UNL     1      20.192  -0.096  52.791  1.00  0.00     0.069 A 
HETATM    9  N2  UNL     1      18.912  -0.606  53.165  1.00  0.00    -0.258 NA
HETATM   10  C17 UNL     1      20.176   0.417  51.508  1.00  0.00     0.024 A 
HETATM   11  C2  UNL     1      18.101  -0.431  52.169  1.00  0.00     0.149 A 
HETATM   12  C1  UNL     1      18.800   0.213  51.059  1.00  0.00     0.078 A 
HETATM   13  N1  UNL     1      18.382   0.569  49.886  1.00  0.00    -0.298 NA
HETATM   14  H1  UNL     1      17.370   0.365  49.690  1.00  0.00     0.187 HD
HETATM   15  C16 UNL     1      21.344   0.948  51.000  1.00  0.00     0.045 A 
ENDBRANCH   1   5
BRANCH   2  16
HETATM   16  C8  UNL     1      24.904   3.735  50.897  1.00  0.00     0.075 C 
HETATM   17  C9  UNL     1      24.942   4.132  49.637  1.00  0.00     0.017 C 
BRANCH  17  18
HETATM   18  C10 UNL     1      26.028   4.934  49.096  1.00  0.00    -0.036 A 
HETATM   19  C11 UNL     1      27.312   4.466  48.939  1.00  0.00     0.011 A 
HETATM   20  C12 UNL     1      28.334   5.256  48.417  1.00  0.00     0.001 A 
HETATM   21  C13 UNL     1      28.065   6.554  48.038  1.00  0.00     0.000 A 
HETATM   22  C14 UNL     1      26.789   7.049  48.182  1.00  0.00     0.001 A 
HETATM   23  C15 UNL     1      25.804   6.235  48.704  1.00  0.00     0.011 A 
ENDBRANCH  17  18
ENDBRANCH   2  16
TORSDOF 3
ENDMDL
MODEL 8
REMARK VINA RESULT:      -7.6      6.342      8.058
REMARK  3 active torsions:
REMARK  status: ('A' for Active; 'I' for Inactive)
REMARK    1  A    between atoms: C6_8  and  N3_9 
REMARK       I    between atoms: N3_9  and  C7_10 
REMARK    2  A    between atoms: C7_10  and  C8_12 
REMARK    3  A    between atoms: C9_13  and  C10_14 
ROOT
HETATM    1  N3  UNL     1      24.252   5.121  50.495  1.00  0.00    -0.324 N 
HETATM    2  C7  UNL     1      25.089   3.973  50.482  1.00  0.00     0.245 C 
HETATM    3  O1  UNL     1      26.161   4.023  49.815  1.00  0.00    -0.268 OA
HETATM    4  H5  UNL     1      23.365   5.081  51.046  1.00  0.00     0.169 HD
ENDROOT
BRANCH   1   5
HETATM    5  C6  UNL     1      24.773   6.209  49.717  1.00  0.00     0.035 A 
HETATM    6  C5  UNL     1      24.431   6.354  48.370  1.00  0.00     0.032 A 
HETATM    7  C4  UNL     1      24.976   7.420  47.713  1.00  0.00     0.035 A 
HETATM    8  C3  UNL     1      25.829   8.314  48.359  1.00  0.00     0.069 A 
HETATM    9  N2  UNL     1      26.467   9.463  47.802  1.00  0.00    -0.258 NA
HETATM   10  C17 UNL     1      26.156   8.153  49.693  1.00  0.00     0.024 A 
HETATM   11  C2  UNL     1      27.175  10.022  48.732  1.00  0.00     0.149 A 
HETATM   12  C1  UNL     1      27.050   9.272  49.979  1.00  0.00     0.078 A 
HETATM   13  N1  UNL     1      27.579   9.471  51.145  1.00  0.00    -0.298 NA
HETATM   14  H1  UNL     1      28.204  10.313  51.216  1.00  0.00     0.187 HD
HETATM   15  C16 UNL     1      25.615   7.081  50.375  1.00  0.00     0.045 A 
ENDBRANCH   1   5
BRANCH   2  16
HETATM   16  C8  UNL     1      24.770   2.725  51.206  1.00  0.00     0.075 C 
HETATM   17  C9  UNL     1      23.800   2.682  52.102  1.00  0.00     0.017 C 
BRANCH  17  18
HETATM   18  C10 UNL     1      23.455   1.473  52.834  1.00  0.00    -0.036 A 
HETATM   19  C11 UNL     1      22.162   1.106  53.129  1.00  0.00     0.011 A 
HETATM   20  C12 UNL     1      21.860  -0.058  53.832  1.00  0.00     0.001 A 
HETATM   21  C13 UNL     1      22.882  -0.882  54.255  1.00  0.00     0.000 A 
HETATM   22  C14 UNL     1      24.186  -0.540  53.975  1.00  0.00     0.001 A 
HETATM   23  C15 UNL     1      24.443   0.621  53.276  1.00  0.00     0.011 A 
ENDBRANCH  17  18
ENDBRANCH   2  16
TORSDOF 3
ENDMDL
MODEL 9
REMARK VINA RESULT:      -7.6      4.900      6.046
REMARK  3 active torsions:
REMARK  status: ('A' for Active; 'I' for Inactive)
REMARK    1  A    between atoms: C6_8  and  N3_9 
REMARK       I    between atoms: N3_9  and  C7_10 
REMARK    2  A    between atoms: C7_10  and  C8_12 
REMARK    3  A    between atoms: C9_13  and  C10_14 
ROOT
HETATM    1  N3  UNL     1      24.291   2.900  53.081  1.00  0.00    -0.324 N 
HETATM    2  C7  UNL     1      24.352   3.526  51.807  1.00  0.00     0.245 C 
HETATM    3  O1  UNL     1      25.205   3.107  50.976  1.00  0.00    -0.268 OA
HETATM    4  H5  UNL     1      23.586   3.245  53.770  1.00  0.00     0.169 HD
ENDROOT
BRANCH   1   5
HETATM    5  C6  UNL     1      25.249   1.841  53.236  1.00  0.00     0.035 A 
HETATM    6  C5  UNL     1      24.903   0.518  52.952  1.00  0.00     0.032 A 
HETATM    7  C4  UNL     1      25.880  -0.420  53.129  1.00  0.00     0.035 A 
HETATM    8  C3  UNL     1      27.155  -0.067  53.571  1.00  0.00     0.069 A 
HETATM    9  N2  UNL     1      28.266  -0.934  53.800  1.00  0.00    -0.258 NA
HETATM   10  C17 UNL     1      27.477   1.248  53.847  1.00  0.00     0.024 A 
HETATM   11  C2  UNL     1      29.263  -0.214  54.205  1.00  0.00     0.149 A 
HETATM   12  C1  UNL     1      28.874   1.192  54.272  1.00  0.00     0.078 A 
HETATM   13  N1  UNL     1      29.546   2.243  54.621  1.00  0.00    -0.298 NA
HETATM   14  H1  UNL     1      30.542   2.063  54.906  1.00  0.00     0.187 HD
HETATM   15  C16 UNL     1      26.503   2.211  53.675  1.00  0.00     0.045 A 
ENDBRANCH   1   5
BRANCH   2  16
HETATM   16  C8  UNL     1      23.469   4.641  51.406  1.00  0.00     0.075 C 
HETATM   17  C9  UNL     1      23.926   5.652  50.689  1.00  0.00     0.017 C 
BRANCH  17  18
HETATM   18  C10 UNL     1      23.089   6.768  50.274  1.00  0.00    -0.036 A 
HETATM   19  C11 UNL     1      23.560   7.849  49.565  1.00  0.00     0.011 A 
HETATM   20  C12 UNL     1      22.736   8.904  49.181  1.00  0.00     0.001 A 
HETATM   21  C13 UNL     1      21.398   8.879  49.514  1.00  0.00     0.000 A 
HETATM   22  C14 UNL     1      20.898   7.810  50.223  1.00  0.00     0.001 A 
HETATM   23  C15 UNL     1      21.747   6.785  50.585  1.00  0.00     0.011 A 
ENDBRANCH  17  18
ENDBRANCH   2  16
TORSDOF 3
ENDMDL
