MODEL 1
REMARK VINA RESULT:      -8.4      0.000      0.000
REMARK  5 active torsions:
REMARK  status: ('A' for Active; 'I' for Inactive)
REMARK    1  A    between atoms: C3_3  and  C4_4 
REMARK       I    between atoms: C4_4  and  N1_6 
REMARK    2  A    between atoms: N1_6  and  C5_7 
REMARK    3  A    between atoms: C5_7  and  C6_8 
REMARK    4  A    between atoms: C7_9  and  C8_10 
REMARK    5  A    between atoms: C12_15  and  C13_16 
ROOT
HETATM    1  C8  UNL     1      25.393   1.542  53.050  1.00  0.00     0.067 A 
HETATM    2  N2  UNL     1      26.729   1.554  52.957  1.00  0.00    -0.260 NA
HETATM    3  C9  UNL     1      27.527   0.487  52.949  1.00  0.00     0.117 A 
HETATM    4  C10 UNL     1      27.025  -0.773  53.040  1.00  0.00     0.020 A 
HETATM    5  C11 UNL     1      25.640  -0.857  53.139  1.00  0.00     0.016 A 
HETATM    6  C12 UNL     1      24.853   0.278  53.143  1.00  0.00     0.003 A 
ENDROOT
BRANCH   1   7
HETATM    7  C7  UNL     1      24.519   2.704  53.072  1.00  0.00     0.030 C 
HETATM    8  C6  UNL     1      24.052   3.340  52.009  1.00  0.00    -0.005 C 
BRANCH   8   9
HETATM    9  C5  UNL     1      24.218   3.139  50.558  1.00  0.00     0.150 C 
BRANCH   9  10
HETATM   10  N1  UNL     1      24.960   4.194  49.893  1.00  0.00    -0.354 N 
HETATM   11  C4  UNL     1      26.351   4.234  49.510  1.00  0.00     0.241 C 
HETATM   12  O1  UNL     1      26.834   3.109  49.887  1.00  0.00    -0.269 OA
HETATM   13  H6  UNL     1      24.417   5.078  49.642  1.00  0.00     0.163 HD
BRANCH  11  14
HETATM   14  C3  UNL     1      26.915   5.398  48.838  1.00  0.00     0.070 C 
HETATM   15  C2  UNL     1      28.022   5.918  48.329  1.00  0.00    -0.026 C 
HETATM   16  C1  UNL     1      29.428   5.584  48.143  1.00  0.00     0.036 C 
ENDBRANCH  11  14
ENDBRANCH   9  10
ENDBRANCH   8   9
ENDBRANCH   1   7
BRANCH   6  17
HETATM   17  C13 UNL     1      23.451  -0.008  53.221  1.00  0.00    -0.022 A 
HETATM   18  C14 UNL     1      23.016  -0.667  54.377  1.00  0.00     0.015 A 
HETATM   19  C15 UNL     1      21.706  -1.034  54.615  1.00  0.00     0.045 A 
HETATM   20  C16 UNL     1      20.753  -0.738  53.663  1.00  0.00     0.138 A 
HETATM   21  F1  UNL     1      19.449  -1.066  53.828  1.00  0.00    -0.204 F 
HETATM   22  C17 UNL     1      21.138  -0.093  52.517  1.00  0.00     0.073 A 
HETATM   23 CL1  UNL     1      19.942   0.290  51.300  1.00  0.00    -0.081 Cl
HETATM   24  C18 UNL     1      22.441   0.252  52.318  1.00  0.00     0.039 A 
ENDBRANCH   6  17
TORSDOF 5
ENDMDL
MODEL 2
REMARK VINA RESULT:      -8.3      3.603      7.246
REMARK  5 active torsions:
REMARK  status: ('A' for Active; 'I' for Inactive)
REMARK    1  A    between atoms: C3_3  and  C4_4 
REMARK       I    between atoms: C4_4  and  N1_6 
REMARK    2  A    between atoms: N1_6  and  C5_7 
REMARK    3  A    between atoms: C5_7  and  C6_8 
REMARK    4  A    between atoms: C7_9  and  C8_10 
REMARK    5  A    between atoms: C12_15  and  C13_16 
ROOT
HETATM    1  C8  UNL     1      24.737   3.019  51.780  1.00  0.00     0.067 A 
HETATM    2  N2  UNL     1      24.197   3.931  50.960  1.00  0.00    -0.260 NA
HETATM    3  C9  UNL     1      24.723   4.371  49.818  1.00  0.00     0.117 A 
HETATM    4  C10 UNL     1      25.918   3.907  49.364  1.00  0.00     0.020 A 
HETATM    5  C11 UNL     1      26.534   2.956  50.170  1.00  0.00     0.016 A 
HETATM    6  C12 UNL     1      25.950   2.529  51.347  1.00  0.00     0.003 A 
ENDROOT
BRANCH   1   7
HETATM    7  C7  UNL     1      24.173   2.544  53.033  1.00  0.00     0.030 C 
HETATM    8  C6  UNL     1      23.355   1.514  53.171  1.00  0.00    -0.005 C 
BRANCH   8   9
HETATM    9  C5  UNL     1      22.766   0.557  52.217  1.00  0.00     0.150 C 
BRANCH   9  10
HETATM   10  N1  UNL     1      21.334   0.374  52.365  1.00  0.00    -0.354 N 
HETATM   11  C4  UNL     1      20.610  -0.591  53.158  1.00  0.00     0.241 C 
HETATM   12  O1  UNL     1      21.513  -1.293  53.735  1.00  0.00    -0.269 OA
HETATM   13  H6  UNL     1      20.706   1.039  51.815  1.00  0.00     0.163 HD
BRANCH  11  14
HETATM   14  C3  UNL     1      19.153  -0.611  53.177  1.00  0.00     0.070 C 
HETATM   15  C2  UNL     1      18.087  -1.380  53.341  1.00  0.00    -0.026 C 
HETATM   16  C1  UNL     1      17.746  -2.769  53.617  1.00  0.00     0.036 C 
ENDBRANCH  11  14
ENDBRANCH   9  10
ENDBRANCH   8   9
ENDBRANCH   1   7
BRANCH   6  17
HETATM   17  C13 UNL     1      26.715   1.526  52.025  1.00  0.00    -0.022 A 
HETATM   18  C14 UNL     1      27.754   1.985  52.843  1.00  0.00     0.015 A 
HETATM   19  C15 UNL     1      28.601   1.163  53.558  1.00  0.00     0.045 A 
HETATM   20  C16 UNL     1      28.424  -0.203  53.474  1.00  0.00     0.138 A 
HETATM   21  F1  UNL     1      29.215  -1.071  54.148  1.00  0.00    -0.204 F 
HETATM   22  C17 UNL     1      27.418  -0.693  52.684  1.00  0.00     0.073 A 
HETATM   23 CL1  UNL     1      27.179  -2.422  52.566  1.00  0.00    -0.081 Cl
HETATM   24  C18 UNL     1      26.603   0.151  51.992  1.00  0.00     0.039 A 
ENDBRANCH   6  17
TORSDOF 5
ENDMDL
MODEL 3
REMARK VINA RESULT:      -8.3      3.375      6.337
REMARK  5 active torsions:
REMARK  status: ('A' for Active; 'I' for Inactive)
REMARK    1  A    between atoms: C3_3  and  C4_4 
REMARK       I    between atoms: C4_4  and  N1_6 
REMARK    2  A    between atoms: N1_6  and  C5_7 
REMARK    3  A    between atoms: C5_7  and  C6_8 
REMARK    4  A    between atoms: C7_9  and  C8_10 
REMARK    5  A    between atoms: C12_15  and  C13_16 
ROOT
HETATM    1  C8  UNL     1      27.611   0.261  52.997  1.00  0.00     0.067 A 
HETATM    2  N2  UNL     1      28.671  -0.045  53.757  1.00  0.00    -0.260 NA
HETATM    3  C9  UNL     1      29.506   0.823  54.327  1.00  0.00     0.117 A 
HETATM    4  C10 UNL     1      29.343   2.165  54.179  1.00  0.00     0.020 A 
HETATM    5  C11 UNL     1      28.258   2.551  53.399  1.00  0.00     0.016 A 
HETATM    6  C12 UNL     1      27.419   1.614  52.827  1.00  0.00     0.003 A 
ENDROOT
BRANCH   1   7
HETATM    7  C7  UNL     1      26.705  -0.682  52.362  1.00  0.00     0.030 C 
HETATM    8  C6  UNL     1      25.570  -1.129  52.875  1.00  0.00    -0.005 C 
BRANCH   8   9
HETATM    9  C5  UNL     1      24.865  -0.873  54.144  1.00  0.00     0.150 C 
BRANCH   9  10
HETATM   10  N1  UNL     1      23.465  -0.525  53.987  1.00  0.00    -0.354 N 
HETATM   11  C4  UNL     1      22.325  -0.936  54.773  1.00  0.00     0.241 C 
HETATM   12  O1  UNL     1      22.805  -1.704  55.680  1.00  0.00    -0.269 OA
HETATM   13  H6  UNL     1      23.219   0.126  53.178  1.00  0.00     0.163 HD
BRANCH  11  14
HETATM   14  C3  UNL     1      20.982  -0.470  54.454  1.00  0.00     0.070 C 
HETATM   15  C2  UNL     1      20.200  -0.011  53.487  1.00  0.00    -0.026 C 
HETATM   16  C1  UNL     1      20.257   0.317  52.069  1.00  0.00     0.036 C 
ENDBRANCH  11  14
ENDBRANCH   9  10
ENDBRANCH   8   9
ENDBRANCH   1   7
BRANCH   6  17
HETATM   17  C13 UNL     1      26.341   2.201  52.087  1.00  0.00    -0.022 A 
HETATM   18  C14 UNL     1      26.629   2.584  50.771  1.00  0.00     0.015 A 
HETATM   19  C15 UNL     1      25.719   3.176  49.919  1.00  0.00     0.045 A 
HETATM   20  C16 UNL     1      24.439   3.410  50.377  1.00  0.00     0.138 A 
HETATM   21  F1  UNL     1      23.493   3.986  49.597  1.00  0.00    -0.204 F 
HETATM   22  C17 UNL     1      24.117   3.049  51.659  1.00  0.00     0.073 A 
HETATM   23 CL1  UNL     1      22.498   3.339  52.255  1.00  0.00    -0.081 Cl
HETATM   24  C18 UNL     1      25.044   2.468  52.471  1.00  0.00     0.039 A 
ENDBRANCH   6  17
TORSDOF 5
ENDMDL
MODEL 4
REMARK VINA RESULT:      -8.1      4.615      6.948
REMARK  5 active torsions:
REMARK  status: ('A' for Active; 'I' for Inactive)
REMARK    1  A    between atoms: C3_3  and  C4_4 
REMARK       I    between atoms: C4_4  and  N1_6 
REMARK    2  A    between atoms: N1_6  and  C5_7 
REMARK    3  A    between atoms: C5_7  and  C6_8 
REMARK    4  A    between atoms: C7_9  and  C8_10 
REMARK    5  A    between atoms: C12_15  and  C13_16 
ROOT
HETATM    1  C8  UNL     1      23.862   0.335  53.134  1.00  0.00     0.067 A 
HETATM    2  N2  UNL     1      22.583   0.120  53.470  1.00  0.00    -0.260 NA
HETATM    3  C9  UNL     1      22.151  -0.624  54.488  1.00  0.00     0.117 A 
HETATM    4  C10 UNL     1      23.020  -1.261  55.317  1.00  0.00     0.020 A 
HETATM    5  C11 UNL     1      24.368  -1.080  55.023  1.00  0.00     0.016 A 
HETATM    6  C12 UNL     1      24.768  -0.299  53.956  1.00  0.00     0.003 A 
ENDROOT
BRANCH   1   7
HETATM    7  C7  UNL     1      24.337   1.135  52.016  1.00  0.00     0.030 C 
HETATM    8  C6  UNL     1      23.667   2.110  51.424  1.00  0.00    -0.005 C 
BRANCH   8   9
HETATM    9  C5  UNL     1      22.332   2.696  51.642  1.00  0.00     0.150 C 
BRANCH   9  10
HETATM   10  N1  UNL     1      21.232   1.820  51.281  1.00  0.00    -0.354 N 
HETATM   11  C4  UNL     1      19.947   1.653  51.919  1.00  0.00     0.241 C 
HETATM   12  O1  UNL     1      19.960   2.461  52.913  1.00  0.00    -0.269 OA
HETATM   13  H6  UNL     1      21.372   1.201  50.424  1.00  0.00     0.163 HD
BRANCH  11  14
HETATM   14  C3  UNL     1      18.963   0.715  51.396  1.00  0.00     0.070 C 
HETATM   15  C2  UNL     1      18.139  -0.273  51.715  1.00  0.00    -0.026 C 
HETATM   16  C1  UNL     1      17.723  -1.047  52.877  1.00  0.00     0.036 C 
ENDBRANCH  11  14
ENDBRANCH   9  10
ENDBRANCH   8   9
ENDBRANCH   1   7
BRANCH   6  17
HETATM   17  C13 UNL     1      26.192  -0.204  53.829  1.00  0.00    -0.022 A 
HETATM   18  C14 UNL     1      26.830  -1.273  53.189  1.00  0.00     0.015 A 
HETATM   19  C15 UNL     1      28.194  -1.357  52.992  1.00  0.00     0.045 A 
HETATM   20  C16 UNL     1      28.993  -0.329  53.448  1.00  0.00     0.138 A 
HETATM   21  F1  UNL     1      30.338  -0.343  53.290  1.00  0.00    -0.204 F 
HETATM   22  C17 UNL     1      28.407   0.736  54.081  1.00  0.00     0.073 A 
HETATM   23 CL1  UNL     1      29.405   2.047  54.665  1.00  0.00    -0.081 Cl
HETATM   24  C18 UNL     1      27.056   0.782  54.257  1.00  0.00     0.039 A 
ENDBRANCH   6  17
TORSDOF 5
ENDMDL
MODEL 5
REMARK VINA RESULT:      -8.0      2.730      4.398
REMARK  5 active torsions:
REMARK  status: ('A' for Active; 'I' for Inactive)
REMARK    1  A    between atoms: C3_3  and  C4_4 
REMARK       I    between atoms: C4_4  and  N1_6 
REMARK    2  A    between atoms: N1_6  and  C5_7 
REMARK    3  A    between atoms: C5_7  and  C6_8 
REMARK    4  A    between atoms: C7_9  and  C8_10 
REMARK    5  A    between atoms: C12_15  and  C13_16 
ROOT
HETATM    1  C8  UNL     1      21.351   3.017  50.865  1.00  0.00     0.067 A 
HETATM    2  N2  UNL     1      21.019   3.500  49.660  1.00  0.00    -0.260 NA
HETATM    3  C9  UNL     1      20.978   2.811  48.521  1.00  0.00     0.117 A 
HETATM    4  C10 UNL     1      21.287   1.487  48.482  1.00  0.00     0.020 A 
HETATM    5  C11 UNL     1      21.642   0.922  49.702  1.00  0.00     0.016 A 
HETATM    6  C12 UNL     1      21.670   1.676  50.859  1.00  0.00     0.003 A 
ENDROOT
BRANCH   1   7
HETATM    7  C7  UNL     1      21.409   3.767  52.109  1.00  0.00     0.030 C 
HETATM    8  C6  UNL     1      22.383   4.584  52.474  1.00  0.00    -0.005 C 
BRANCH   8   9
HETATM    9  C5  UNL     1      23.642   5.005  51.834  1.00  0.00     0.150 C 
BRANCH   9  10
HETATM   10  N1  UNL     1      24.708   4.023  51.916  1.00  0.00    -0.354 N 
HETATM   11  C4  UNL     1      25.257   3.178  50.882  1.00  0.00     0.241 C 
HETATM   12  O1  UNL     1      24.593   3.469  49.826  1.00  0.00    -0.269 OA
HETATM   13  H6  UNL     1      25.166   3.890  52.871  1.00  0.00     0.163 HD
BRANCH  11  14
HETATM   14  C3  UNL     1      26.342   2.247  51.166  1.00  0.00     0.070 C 
HETATM   15  C2  UNL     1      27.193   1.833  52.093  1.00  0.00    -0.026 C 
HETATM   16  C1  UNL     1      27.554   2.106  53.477  1.00  0.00     0.036 C 
ENDBRANCH  11  14
ENDBRANCH   9  10
ENDBRANCH   8   9
ENDBRANCH   1   7
BRANCH   6  17
HETATM   17  C13 UNL     1      22.028   0.916  52.019  1.00  0.00    -0.022 A 
HETATM   18  C14 UNL     1      20.968   0.434  52.796  1.00  0.00     0.015 A 
HETATM   19  C15 UNL     1      21.126  -0.303  53.953  1.00  0.00     0.045 A 
HETATM   20  C16 UNL     1      22.404  -0.593  54.383  1.00  0.00     0.138 A 
HETATM   21  F1  UNL     1      22.636  -1.312  55.508  1.00  0.00    -0.204 F 
HETATM   22  C17 UNL     1      23.469  -0.139  53.651  1.00  0.00     0.073 A 
HETATM   23 CL1  UNL     1      25.096  -0.498  54.182  1.00  0.00    -0.081 Cl
HETATM   24  C18 UNL     1      23.273   0.586  52.514  1.00  0.00     0.039 A 
ENDBRANCH   6  17
TORSDOF 5
ENDMDL
MODEL 6
REMARK VINA RESULT:      -8.0      3.697      6.799
REMARK  5 active torsions:
REMARK  status: ('A' for Active; 'I' for Inactive)
REMARK    1  A    between atoms: C3_3  and  C4_4 
REMARK       I    between atoms: C4_4  and  N1_6 
REMARK    2  A    between atoms: N1_6  and  C5_7 
REMARK    3  A    between atoms: C5_7  and  C6_8 
REMARK    4  A    between atoms: C7_9  and  C8_10 
REMARK    5  A    between atoms: C12_15  and  C13_16 
ROOT
HETATM    1  C8  UNL     1      22.311   3.223  50.243  1.00  0.00     0.067 A 
HETATM    2  N2  UNL     1      21.446   4.236  50.097  1.00  0.00    -0.260 NA
HETATM    3  C9  UNL     1      21.379   5.329  50.857  1.00  0.00     0.117 A 
HETATM    4  C10 UNL     1      22.229   5.518  51.901  1.00  0.00     0.020 A 
HETATM    5  C11 UNL     1      23.155   4.501  52.109  1.00  0.00     0.016 A 
HETATM    6  C12 UNL     1      23.187   3.386  51.294  1.00  0.00     0.003 A 
ENDROOT
BRANCH   1   7
HETATM    7  C7  UNL     1      22.380   2.024  49.424  1.00  0.00     0.030 C 
HETATM    8  C6  UNL     1      21.547   0.998  49.484  1.00  0.00    -0.005 C 
BRANCH   8   9
HETATM    9  C5  UNL     1      20.360   0.707  50.309  1.00  0.00     0.150 C 
BRANCH   9  10
HETATM   10  N1  UNL     1      20.664   0.348  51.682  1.00  0.00    -0.354 N 
HETATM   11  C4  UNL     1      20.474   1.112  52.892  1.00  0.00     0.241 C 
HETATM   12  O1  UNL     1      19.964   2.224  52.509  1.00  0.00    -0.269 OA
HETATM   13  H6  UNL     1      21.091  -0.617  51.843  1.00  0.00     0.163 HD
BRANCH  11  14
HETATM   14  C3  UNL     1      20.843   0.569  54.193  1.00  0.00     0.070 C 
HETATM   15  C2  UNL     1      21.328  -0.492  54.820  1.00  0.00    -0.026 C 
HETATM   16  C1  UNL     1      21.805  -1.838  54.530  1.00  0.00     0.036 C 
ENDBRANCH  11  14
ENDBRANCH   9  10
ENDBRANCH   8   9
ENDBRANCH   1   7
BRANCH   6  17
HETATM   17  C13 UNL     1      24.226   2.463  51.642  1.00  0.00    -0.022 A 
HETATM   18  C14 UNL     1      25.465   2.662  51.022  1.00  0.00     0.015 A 
HETATM   19  C15 UNL     1      26.573   1.863  51.227  1.00  0.00     0.045 A 
HETATM   20  C16 UNL     1      26.468   0.798  52.097  1.00  0.00     0.138 A 
HETATM   21  F1  UNL     1      27.512  -0.028  52.347  1.00  0.00    -0.204 F 
HETATM   22  C17 UNL     1      25.272   0.569  52.724  1.00  0.00     0.073 A 
HETATM   23 CL1  UNL     1      25.122  -0.778  53.830  1.00  0.00    -0.081 Cl
HETATM   24  C18 UNL     1      24.201   1.379  52.495  1.00  0.00     0.039 A 
ENDBRANCH   6  17
TORSDOF 5
ENDMDL
MODEL 7
REMARK VINA RESULT:      -7.9      3.222      4.611
REMARK  5 active torsions:
REMARK  status: ('A' for Active; 'I' for Inactive)
REMARK    1  A    between atoms: C3_3  and  C4_4 
REMARK       I    between atoms: C4_4  and  N1_6 
REMARK    2  A    between atoms: N1_6  and  C5_7 
REMARK    3  A    between atoms: C5_7  and  C6_8 
REMARK    4  A    between atoms: C7_9  and  C8_10 
REMARK    5  A    between atoms: C12_15  and  C13_16 
ROOT
HETATM    1  C8  UNL     1      23.598   0.095  53.243  1.00  0.00     0.067 A 
HETATM    2  N2  UNL     1      24.265  -0.451  54.269  1.00  0.00    -0.260 NA
HETATM    3  C9  UNL     1      23.757  -1.264  55.194  1.00  0.00     0.117 A 
HETATM    4  C10 UNL     1      22.447  -1.629  55.174  1.00  0.00     0.020 A 
HETATM    5  C11 UNL     1      21.696  -1.095  54.132  1.00  0.00     0.016 A 
HETATM    6  C12 UNL     1      22.267  -0.256  53.195  1.00  0.00     0.003 A 
ENDROOT
BRANCH   1   7
HETATM    7  C7  UNL     1      24.145   0.992  52.238  1.00  0.00     0.030 C 
HETATM    8  C6  UNL     1      25.058   1.926  52.450  1.00  0.00    -0.005 C 
BRANCH   8   9
HETATM    9  C5  UNL     1      25.792   2.367  53.650  1.00  0.00     0.150 C 
BRANCH   9  10
HETATM   10  N1  UNL     1      26.916   1.519  54.005  1.00  0.00    -0.354 N 
HETATM   11  C4  UNL     1      28.272   1.542  53.511  1.00  0.00     0.241 C 
HETATM   12  O1  UNL     1      28.300   2.497  52.656  1.00  0.00    -0.269 OA
HETATM   13  H6  UNL     1      26.735   0.762  54.735  1.00  0.00     0.163 HD
BRANCH  11  14
HETATM   14  C3  UNL     1      29.269   0.599  54.000  1.00  0.00     0.070 C 
HETATM   15  C2  UNL     1      29.690  -0.656  53.936  1.00  0.00    -0.026 C 
HETATM   16  C1  UNL     1      29.354  -1.913  53.280  1.00  0.00     0.036 C 
ENDBRANCH  11  14
ENDBRANCH   9  10
ENDBRANCH   8   9
ENDBRANCH   1   7
BRANCH   6  17
HETATM   17  C13 UNL     1      21.346   0.168  52.183  1.00  0.00    -0.022 A 
HETATM   18  C14 UNL     1      19.986   0.072  52.501  1.00  0.00     0.015 A 
HETATM   19  C15 UNL     1      18.961   0.421  51.644  1.00  0.00     0.045 A 
HETATM   20  C16 UNL     1      19.282   0.897  50.390  1.00  0.00     0.138 A 
HETATM   21  F1  UNL     1      18.330   1.260  49.497  1.00  0.00    -0.204 F 
HETATM   22  C17 UNL     1      20.601   1.006  50.039  1.00  0.00     0.073 A 
HETATM   23 CL1  UNL     1      21.025   1.609  48.452  1.00  0.00    -0.081 Cl
HETATM   24  C18 UNL     1      21.585   0.651  50.913  1.00  0.00     0.039 A 
ENDBRANCH   6  17
TORSDOF 5
ENDMDL
MODEL 8
REMARK VINA RESULT:      -7.7      3.807      5.826
REMARK  5 active torsions:
REMARK  status: ('A' for Active; 'I' for Inactive)
REMARK    1  A    between atoms: C3_3  and  C4_4 
REMARK       I    between atoms: C4_4  and  N1_6 
REMARK    2  A    between atoms: N1_6  and  C5_7 
REMARK    3  A    between atoms: C5_7  and  C6_8 
REMARK    4  A    between atoms: C7_9  and  C8_10 
REMARK    5  A    between atoms: C12_15  and  C13_16 
ROOT
HETATM    1  C8  UNL     1      24.490   3.156  51.657  1.00  0.00     0.067 A 
HETATM    2  N2  UNL     1      23.905   4.024  50.821  1.00  0.00    -0.260 NA
HETATM    3  C9  UNL     1      24.447   4.544  49.720  1.00  0.00     0.117 A 
HETATM    4  C10 UNL     1      25.709   4.220  49.332  1.00  0.00     0.020 A 
HETATM    5  C11 UNL     1      26.375   3.321  50.158  1.00  0.00     0.016 A 
HETATM    6  C12 UNL     1      25.772   2.808  51.290  1.00  0.00     0.003 A 
ENDROOT
BRANCH   1   7
HETATM    7  C7  UNL     1      23.908   2.596  52.866  1.00  0.00     0.030 C 
HETATM    8  C6  UNL     1      22.974   1.660  52.911  1.00  0.00    -0.005 C 
BRANCH   8   9
HETATM    9  C5  UNL     1      22.245   0.909  51.873  1.00  0.00     0.150 C 
BRANCH   9  10
HETATM   10  N1  UNL     1      22.574   1.300  50.515  1.00  0.00    -0.354 N 
HETATM   11  C4  UNL     1      21.720   1.390  49.354  1.00  0.00     0.241 C 
HETATM   12  O1  UNL     1      20.558   1.040  49.768  1.00  0.00    -0.269 OA
HETATM   13  H6  UNL     1      23.591   1.562  50.323  1.00  0.00     0.163 HD
BRANCH  11  14
HETATM   14  C3  UNL     1      22.244   1.812  48.062  1.00  0.00     0.070 C 
HETATM   15  C2  UNL     1      22.298   2.811  47.194  1.00  0.00    -0.026 C 
HETATM   16  C1  UNL     1      21.813   4.175  47.032  1.00  0.00     0.036 C 
ENDBRANCH  11  14
ENDBRANCH   9  10
ENDBRANCH   8   9
ENDBRANCH   1   7
BRANCH   6  17
HETATM   17  C13 UNL     1      26.599   1.876  51.997  1.00  0.00    -0.022 A 
HETATM   18  C14 UNL     1      26.352   0.519  51.756  1.00  0.00     0.015 A 
HETATM   19  C15 UNL     1      27.041  -0.515  52.358  1.00  0.00     0.045 A 
HETATM   20  C16 UNL     1      28.041  -0.208  53.256  1.00  0.00     0.138 A 
HETATM   21  F1  UNL     1      28.760  -1.169  53.885  1.00  0.00    -0.204 F 
HETATM   22  C17 UNL     1      28.315   1.109  53.520  1.00  0.00     0.073 A 
HETATM   23 CL1  UNL     1      29.582   1.515  54.656  1.00  0.00    -0.081 Cl
HETATM   24  C18 UNL     1      27.613   2.101  52.906  1.00  0.00     0.039 A 
ENDBRANCH   6  17
TORSDOF 5
ENDMDL
MODEL 9
REMARK VINA RESULT:      -7.7      2.573      4.228
REMARK  5 active torsions:
REMARK  status: ('A' for Active; 'I' for Inactive)
REMARK    1  A    between atoms: C3_3  and  C4_4 
REMARK       I    between atoms: C4_4  and  N1_6 
REMARK    2  A    between atoms: N1_6  and  C5_7 
REMARK    3  A    between atoms: C5_7  and  C6_8 
REMARK    4  A    between atoms: C7_9  and  C8_10 
REMARK    5  A    between atoms: C12_15  and  C13_16 
ROOT
HETATM    1  C8  UNL     1      22.072   3.686  50.651  1.00  0.00     0.067 A 
HETATM    2  N2  UNL     1      21.499   4.257  49.584  1.00  0.00    -0.260 NA
HETATM    3  C9  UNL     1      21.321   3.694  48.390  1.00  0.00     0.117 A 
HETATM    4  C10 UNL     1      21.729   2.421  48.140  1.00  0.00     0.020 A 
HETATM    5  C11 UNL     1      22.335   1.768  49.209  1.00  0.00     0.016 A 
HETATM    6  C12 UNL     1      22.497   2.394  50.430  1.00  0.00     0.003 A 
ENDROOT
BRANCH   1   7
HETATM    7  C7  UNL     1      22.279   4.301  51.952  1.00  0.00     0.030 C 
HETATM    8  C6  UNL     1      23.029   5.363  52.195  1.00  0.00    -0.005 C 
BRANCH   8   9
HETATM    9  C5  UNL     1      23.850   6.237  51.337  1.00  0.00     0.150 C 
BRANCH   9  10
HETATM   10  N1  UNL     1      25.040   5.599  50.804  1.00  0.00    -0.354 N 
HETATM   11  C4  UNL     1      25.394   5.322  49.432  1.00  0.00     0.241 C 
HETATM   12  O1  UNL     1      24.412   5.765  48.737  1.00  0.00    -0.269 OA
HETATM   13  H6  UNL     1      25.771   5.279  51.512  1.00  0.00     0.163 HD
BRANCH  11  14
HETATM   14  C3  UNL     1      26.652   4.668  49.095  1.00  0.00     0.070 C 
HETATM   15  C2  UNL     1      27.870   4.857  48.609  1.00  0.00    -0.026 C 
HETATM   16  C1  UNL     1      28.708   5.928  48.087  1.00  0.00     0.036 C 
ENDBRANCH  11  14
ENDBRANCH   9  10
ENDBRANCH   8   9
ENDBRANCH   1   7
BRANCH   6  17
HETATM   17  C13 UNL     1      23.111   1.555  51.415  1.00  0.00    -0.022 A 
HETATM   18  C14 UNL     1      24.507   1.610  51.494  1.00  0.00     0.015 A 
HETATM   19  C15 UNL     1      25.266   0.862  52.373  1.00  0.00     0.045 A 
HETATM   20  C16 UNL     1      24.621   0.002  53.236  1.00  0.00     0.138 A 
HETATM   21  F1  UNL     1      25.299  -0.762  54.126  1.00  0.00    -0.204 F 
HETATM   22  C17 UNL     1      23.254  -0.082  53.191  1.00  0.00     0.073 A 
HETATM   23 CL1  UNL     1      22.420  -1.168  54.280  1.00  0.00    -0.081 Cl
HETATM   24  C18 UNL     1      22.540   0.672  52.309  1.00  0.00     0.039 A 
ENDBRANCH   6  17
TORSDOF 5
ENDMDL
