MODEL 1
REMARK VINA RESULT:      -8.8      0.000      0.000
REMARK  3 active torsions:
REMARK  status: ('A' for Active; 'I' for Inactive)
REMARK    1  A    between atoms: O1_2  and  C2_3 
REMARK    2  A    between atoms: C9_11  and  C10_12 
REMARK    3  A    between atoms: C10_12  and  N1_13 
ROOT
HETATM    1  C2  UNL     1      23.380   3.044  50.269  1.00  0.00     0.103 A 
HETATM    2  C3  UNL     1      22.430   3.213  49.290  1.00  0.00     0.072 A 
HETATM    3  C4  UNL     1      21.117   3.548  49.646  1.00  0.00     0.072 A 
HETATM    4  C5  UNL     1      20.813   3.704  51.020  1.00  0.00     0.011 A 
HETATM    5  C6  UNL     1      21.804   3.525  51.950  1.00  0.00     0.054 A 
HETATM    6  C7  UNL     1      23.092   3.194  51.620  1.00  0.00     0.103 A 
HETATM    7  O2  UNL     1      24.177   2.974  52.447  1.00  0.00    -0.346 OA
HETATM    8  C8  UNL     1      24.762   1.754  52.760  1.00  0.00     0.209 C 
HETATM    9  C9  UNL     1      23.909   0.739  53.467  1.00  0.00     0.174 C 
HETATM   10  O4  UNL     1      22.772   0.338  52.819  1.00  0.00    -0.379 OA
HETATM   11  C15 UNL     1      21.636   0.609  53.610  1.00  0.00     0.207 C 
HETATM   12  C16 UNL     1      20.401   0.289  52.927  1.00  0.00     0.211 A 
HETATM   13  C17 UNL     1      19.291   0.073  52.330  1.00  0.00     0.200 A 
HETATM   14  F1  UNL     1      19.978   1.141  52.888  1.00  0.00    -0.366 F 
HETATM   15  C18 UNL     1      18.078  -0.099  51.635  1.00  0.00     0.053 A 
HETATM   16 CL1  UNL     1      18.141  -1.505  52.632  1.00  0.00    -0.135 Cl
HETATM   17  C19 UNL     1      17.602   0.741  50.744  1.00  0.00     0.044 C 
HETATM   18  C20 UNL     1      18.415   1.893  50.484  1.00  0.00     0.231 C 
HETATM   19  N2  UNL     1      18.158   2.509  49.184  1.00  0.00    -0.253 NA
HETATM   20  C21 UNL     1      19.016   3.150  48.409  1.00  0.00     0.230 C 
HETATM   21  N3  UNL     1      20.391   3.634  48.536  1.00  0.00    -0.242 NA
HETATM   22  N4  UNL     1      18.497   2.901  51.515  1.00  0.00    -0.373 N 
HETATM   23  C22 UNL     1      19.542   3.952  51.493  1.00  0.00     0.099 C 
HETATM   24  H25 UNL     1      17.836   2.951  52.330  1.00  0.00     0.161 HD
ENDROOT
BRANCH   9  25
HETATM   25  C10 UNL     1      24.776  -0.478  53.809  1.00  0.00     0.306 C 
BRANCH  25  26
HETATM   26  N1  UNL     1      26.168  -0.162  53.687  1.00  0.00     0.095 N 
HETATM   27  C11 UNL     1      26.721   0.204  54.962  1.00  0.00     0.298 C 
HETATM   28  C12 UNL     1      28.213   0.179  55.030  1.00  0.00     0.198 C 
HETATM   29  O3  UNL     1      28.791  -0.881  54.342  1.00  0.00    -0.388 OA
HETATM   30  C13 UNL     1      28.383  -0.851  53.003  1.00  0.00     0.198 C 
HETATM   31  C14 UNL     1      26.906  -1.186  53.013  1.00  0.00     0.298 C 
ENDBRANCH  25  26
ENDBRANCH   9  25
BRANCH   1  32
HETATM   32  O1  UNL     1      24.627   2.717  49.812  1.00  0.00    -0.353 OA
HETATM   33  C1  UNL     1      25.647   3.609  49.502  1.00  0.00     0.210 C 
ENDBRANCH   1  32
TORSDOF 3
ENDMDL
MODEL 2
REMARK VINA RESULT:      -8.6      1.953      2.882
REMARK  3 active torsions:
REMARK  status: ('A' for Active; 'I' for Inactive)
REMARK    1  A    between atoms: O1_2  and  C2_3 
REMARK    2  A    between atoms: C9_11  and  C10_12 
REMARK    3  A    between atoms: C10_12  and  N1_13 
ROOT
HETATM    1  C2  UNL     1      22.159   2.540  49.142  1.00  0.00     0.103 A 
HETATM    2  C3  UNL     1      20.964   1.873  49.011  1.00  0.00     0.072 A 
HETATM    3  C4  UNL     1      20.063   1.843  50.082  1.00  0.00     0.072 A 
HETATM    4  C5  UNL     1      20.419   2.512  51.279  1.00  0.00     0.011 A 
HETATM    5  C6  UNL     1      21.624   3.163  51.349  1.00  0.00     0.054 A 
HETATM    6  C7  UNL     1      22.518   3.199  50.311  1.00  0.00     0.103 A 
HETATM    7  O2  UNL     1      23.761   3.802  50.249  1.00  0.00    -0.346 OA
HETATM    8  C8  UNL     1      25.001   3.178  50.281  1.00  0.00     0.209 C 
HETATM    9  C9  UNL     1      25.348   2.392  51.514  1.00  0.00     0.174 C 
HETATM   10  O4  UNL     1      24.513   1.357  51.834  1.00  0.00    -0.379 OA
HETATM   11  C15 UNL     1      23.972   1.544  53.123  1.00  0.00     0.207 C 
HETATM   12  C16 UNL     1      23.009   0.522  53.471  1.00  0.00     0.211 A 
HETATM   13  C17 UNL     1      22.109  -0.332  53.784  1.00  0.00     0.200 A 
HETATM   14  F1  UNL     1      22.218   1.038  53.591  1.00  0.00    -0.366 F 
HETATM   15  C18 UNL     1      21.070  -1.232  54.085  1.00  0.00     0.053 A 
HETATM   16 CL1  UNL     1      22.391  -1.868  54.993  1.00  0.00    -0.135 Cl
HETATM   17  C19 UNL     1      19.848  -1.149  53.610  1.00  0.00     0.044 C 
HETATM   18  C20 UNL     1      19.606  -0.056  52.715  1.00  0.00     0.231 C 
HETATM   19  N2  UNL     1      18.466  -0.269  51.826  1.00  0.00    -0.253 NA
HETATM   20  C21 UNL     1      18.305   0.186  50.596  1.00  0.00     0.230 C 
HETATM   21  N3  UNL     1      19.004   1.126  49.720  1.00  0.00    -0.242 NA
HETATM   22  N4  UNL     1      19.568   1.274  53.277  1.00  0.00    -0.373 N 
HETATM   23  C22 UNL     1      19.652   2.483  52.423  1.00  0.00     0.099 C 
HETATM   24  H25 UNL     1      19.483   1.465  54.307  1.00  0.00     0.161 HD
ENDROOT
BRANCH   9  25
HETATM   25  C10 UNL     1      26.790   1.885  51.382  1.00  0.00     0.306 C 
BRANCH  25  26
HETATM   26  N1  UNL     1      27.312   1.497  52.658  1.00  0.00     0.095 N 
HETATM   27  C11 UNL     1      27.553   0.081  52.702  1.00  0.00     0.298 C 
HETATM   28  C12 UNL     1      28.438  -0.371  53.817  1.00  0.00     0.198 C 
HETATM   29  O3  UNL     1      29.501   0.485  54.074  1.00  0.00    -0.388 OA
HETATM   30  C13 UNL     1      29.015   1.768  54.353  1.00  0.00     0.198 C 
HETATM   31  C14 UNL     1      28.440   2.285  53.051  1.00  0.00     0.298 C 
ENDBRANCH  25  26
ENDBRANCH   9  25
BRANCH   1  32
HETATM   32  O1  UNL     1      22.964   2.505  48.037  1.00  0.00    -0.353 OA
HETATM   33  C1  UNL     1      22.584   2.816  46.736  1.00  0.00     0.210 C 
ENDBRANCH   1  32
TORSDOF 3
ENDMDL
MODEL 3
REMARK VINA RESULT:      -8.5      2.594      4.427
REMARK  3 active torsions:
REMARK  status: ('A' for Active; 'I' for Inactive)
REMARK    1  A    between atoms: O1_2  and  C2_3 
REMARK    2  A    between atoms: C9_11  and  C10_12 
REMARK    3  A    between atoms: C10_12  and  N1_13 
ROOT
HETATM    1  C2  UNL     1      20.713   0.263  52.837  1.00  0.00     0.103 A 
HETATM    2  C3  UNL     1      19.640   1.085  52.589  1.00  0.00     0.072 A 
HETATM    3  C4  UNL     1      19.587   1.822  51.400  1.00  0.00     0.072 A 
HETATM    4  C5  UNL     1      20.657   1.691  50.481  1.00  0.00     0.011 A 
HETATM    5  C6  UNL     1      21.700   0.853  50.782  1.00  0.00     0.054 A 
HETATM    6  C7  UNL     1      21.768   0.128  51.942  1.00  0.00     0.103 A 
HETATM    7  O2  UNL     1      22.755  -0.737  52.375  1.00  0.00    -0.346 OA
HETATM    8  C8  UNL     1      23.697  -0.509  53.370  1.00  0.00     0.209 C 
HETATM    9  C9  UNL     1      24.661   0.624  53.163  1.00  0.00     0.174 C 
HETATM   10  O4  UNL     1      24.116   1.870  53.012  1.00  0.00    -0.379 OA
HETATM   11  C15 UNL     1      24.498   2.425  51.772  1.00  0.00     0.207 C 
HETATM   12  C16 UNL     1      23.870   3.704  51.525  1.00  0.00     0.211 A 
HETATM   13  C17 UNL     1      23.285   4.808  51.249  1.00  0.00     0.200 A 
HETATM   14  F1  UNL     1      23.366   3.521  50.738  1.00  0.00    -0.366 F 
HETATM   15  C18 UNL     1      22.579   5.983  50.927  1.00  0.00     0.053 A 
HETATM   16 CL1  UNL     1      24.121   6.591  51.403  1.00  0.00    -0.135 Cl
HETATM   17  C19 UNL     1      21.335   6.016  50.506  1.00  0.00     0.044 C 
HETATM   18  C20 UNL     1      20.687   4.742  50.395  1.00  0.00     0.231 C 
HETATM   19  N2  UNL     1      19.228   4.822  50.441  1.00  0.00    -0.253 NA
HETATM   20  C21 UNL     1      18.384   3.926  50.920  1.00  0.00     0.230 C 
HETATM   21  N3  UNL     1      18.474   2.548  51.405  1.00  0.00    -0.242 NA
HETATM   22  N4  UNL     1      21.113   3.863  49.331  1.00  0.00    -0.373 N 
HETATM   23  C22 UNL     1      20.754   2.425  49.319  1.00  0.00     0.099 C 
HETATM   24  H25 UNL     1      21.693   4.182  48.515  1.00  0.00     0.161 HD
ENDROOT
BRANCH   9  25
HETATM   25  C10 UNL     1      25.669   0.628  54.318  1.00  0.00     0.306 C 
BRANCH  25  26
HETATM   26  N1  UNL     1      27.005   0.794  53.828  1.00  0.00     0.095 N 
HETATM   27  C11 UNL     1      27.354   2.187  53.762  1.00  0.00     0.298 C 
HETATM   28  C12 UNL     1      28.816   2.463  53.638  1.00  0.00     0.198 C 
HETATM   29  O3  UNL     1      29.615   1.620  54.401  1.00  0.00    -0.388 OA
HETATM   30  C13 UNL     1      29.359   0.288  54.055  1.00  0.00     0.198 C 
HETATM   31  C14 UNL     1      27.955  -0.003  54.542  1.00  0.00     0.298 C 
ENDBRANCH  25  26
ENDBRANCH   9  25
BRANCH   1  32
HETATM   32  O1  UNL     1      20.664  -0.408  54.027  1.00  0.00    -0.353 OA
HETATM   33  C1  UNL     1      20.205  -1.707  54.218  1.00  0.00     0.210 C 
ENDBRANCH   1  32
TORSDOF 3
ENDMDL
MODEL 4
REMARK VINA RESULT:      -8.4      9.543     11.904
REMARK  3 active torsions:
REMARK  status: ('A' for Active; 'I' for Inactive)
REMARK    1  A    between atoms: O1_2  and  C2_3 
REMARK    2  A    between atoms: C9_11  and  C10_12 
REMARK    3  A    between atoms: C10_12  and  N1_13 
ROOT
HETATM    1  C2  UNL     1      31.993  10.213  45.913  1.00  0.00     0.103 A 
HETATM    2  C3  UNL     1      30.907  11.025  46.139  1.00  0.00     0.072 A 
HETATM    3  C4  UNL     1      30.303  11.044  47.402  1.00  0.00     0.072 A 
HETATM    4  C5  UNL     1      30.842  10.215  48.416  1.00  0.00     0.011 A 
HETATM    5  C6  UNL     1      31.929   9.429  48.132  1.00  0.00     0.054 A 
HETATM    6  C7  UNL     1      32.529   9.396  46.901  1.00  0.00     0.103 A 
HETATM    7  O2  UNL     1      33.612   8.650  46.477  1.00  0.00    -0.346 OA
HETATM    8  C8  UNL     1      33.595   7.540  45.642  1.00  0.00     0.209 C 
HETATM    9  C9  UNL     1      32.837   6.331  46.114  1.00  0.00     0.174 C 
HETATM   10  O4  UNL     1      31.504   6.505  46.366  1.00  0.00    -0.379 OA
HETATM   11  C15 UNL     1      31.211   6.175  47.706  1.00  0.00     0.207 C 
HETATM   12  C16 UNL     1      29.829   6.432  48.047  1.00  0.00     0.211 A 
HETATM   13  C17 UNL     1      28.629   6.705  48.397  1.00  0.00     0.200 A 
HETATM   14  F1  UNL     1      29.920   7.084  48.735  1.00  0.00    -0.366 F 
HETATM   15  C18 UNL     1      27.329   7.078  48.788  1.00  0.00     0.053 A 
HETATM   16 CL1  UNL     1      27.184   5.372  48.587  1.00  0.00    -0.135 Cl
HETATM   17  C19 UNL     1      26.954   8.308  49.057  1.00  0.00     0.044 C 
HETATM   18  C20 UNL     1      27.970   9.309  48.916  1.00  0.00     0.231 C 
HETATM   19  N2  UNL     1      27.440  10.655  48.707  1.00  0.00    -0.253 NA
HETATM   20  C21 UNL     1      27.985  11.639  48.014  1.00  0.00     0.230 C 
HETATM   21  N3  UNL     1      29.272  11.881  47.362  1.00  0.00    -0.242 NA
HETATM   22  N4  UNL     1      29.031   9.329  49.895  1.00  0.00    -0.373 N 
HETATM   23  C22 UNL     1      30.284  10.089  49.670  1.00  0.00     0.099 C 
HETATM   24  H25 UNL     1      28.984   8.814  50.811  1.00  0.00     0.161 HD
ENDROOT
BRANCH   9  25
HETATM   25  C10 UNL     1      33.038   5.199  45.099  1.00  0.00     0.306 C 
BRANCH  25  26
HETATM   26  N1  UNL     1      33.450   3.994  45.755  1.00  0.00     0.095 N 
HETATM   27  C11 UNL     1      34.412   4.278  46.784  1.00  0.00     0.298 C 
HETATM   28  C12 UNL     1      34.620   3.175  47.770  1.00  0.00     0.198 C 
HETATM   29  O3  UNL     1      33.452   2.510  48.125  1.00  0.00    -0.388 OA
HETATM   30  C13 UNL     1      32.833   2.001  46.977  1.00  0.00     0.198 C 
HETATM   31  C14 UNL     1      32.343   3.208  46.203  1.00  0.00     0.298 C 
ENDBRANCH  25  26
ENDBRANCH   9  25
BRANCH   1  32
HETATM   32  O1  UNL     1      32.504  10.271  44.646  1.00  0.00    -0.353 OA
HETATM   33  C1  UNL     1      31.772  10.422  43.473  1.00  0.00     0.210 C 
ENDBRANCH   1  32
TORSDOF 3
ENDMDL
MODEL 5
REMARK VINA RESULT:      -8.0      3.344      5.293
REMARK  3 active torsions:
REMARK  status: ('A' for Active; 'I' for Inactive)
REMARK    1  A    between atoms: O1_2  and  C2_3 
REMARK    2  A    between atoms: C9_11  and  C10_12 
REMARK    3  A    between atoms: C10_12  and  N1_13 
ROOT
HETATM    1  C2  UNL     1      21.256   2.635  51.076  1.00  0.00     0.103 A 
HETATM    2  C3  UNL     1      20.477   3.682  50.644  1.00  0.00     0.072 A 
HETATM    3  C4  UNL     1      20.785   4.327  49.440  1.00  0.00     0.072 A 
HETATM    4  C5  UNL     1      21.902   3.870  48.700  1.00  0.00     0.011 A 
HETATM    5  C6  UNL     1      22.640   2.819  49.181  1.00  0.00     0.054 A 
HETATM    6  C7  UNL     1      22.355   2.179  50.358  1.00  0.00     0.103 A 
HETATM    7  O2  UNL     1      23.014   1.125  50.961  1.00  0.00    -0.346 OA
HETATM    8  C8  UNL     1      23.833   1.175  52.082  1.00  0.00     0.209 C 
HETATM    9  C9  UNL     1      25.076   2.014  51.993  1.00  0.00     0.174 C 
HETATM   10  O4  UNL     1      24.899   3.344  51.724  1.00  0.00    -0.379 OA
HETATM   11  C15 UNL     1      25.582   3.700  50.542  1.00  0.00     0.207 C 
HETATM   12  C16 UNL     1      25.347   5.077  50.165  1.00  0.00     0.211 A 
HETATM   13  C17 UNL     1      25.112   6.271  49.771  1.00  0.00     0.200 A 
HETATM   14  F1  UNL     1      24.929   4.973  49.316  1.00  0.00    -0.366 F 
HETATM   15  C18 UNL     1      24.787   7.561  49.311  1.00  0.00     0.053 A 
HETATM   16 CL1  UNL     1      26.351   7.793  50.000  1.00  0.00    -0.135 Cl
HETATM   17  C19 UNL     1      23.665   7.877  48.704  1.00  0.00     0.044 C 
HETATM   18  C20 UNL     1      22.732   6.803  48.532  1.00  0.00     0.231 C 
HETATM   19  N2  UNL     1      21.352   7.250  48.352  1.00  0.00    -0.253 NA
HETATM   20  C21 UNL     1      20.246   6.628  48.721  1.00  0.00     0.230 C 
HETATM   21  N3  UNL     1      19.908   5.309  49.254  1.00  0.00    -0.242 NA
HETATM   22  N4  UNL     1      23.061   5.776  47.571  1.00  0.00    -0.373 N 
HETATM   23  C22 UNL     1      22.349   4.476  47.545  1.00  0.00     0.099 C 
HETATM   24  H25 UNL     1      23.814   5.883  46.845  1.00  0.00     0.161 HD
ENDROOT
BRANCH   9  25
HETATM   25  C10 UNL     1      25.879   1.841  53.288  1.00  0.00     0.306 C 
BRANCH  25  26
HETATM   26  N1  UNL     1      27.077   1.093  53.050  1.00  0.00     0.095 N 
HETATM   27  C11 UNL     1      28.212   1.746  53.642  1.00  0.00     0.298 C 
HETATM   28  C12 UNL     1      29.425   0.887  53.789  1.00  0.00     0.198 C 
HETATM   29  O3  UNL     1      29.146  -0.420  54.170  1.00  0.00    -0.388 OA
HETATM   30  C13 UNL     1      28.269  -1.002  53.246  1.00  0.00     0.198 C 
HETATM   31  C14 UNL     1      26.947  -0.283  53.421  1.00  0.00     0.298 C 
ENDBRANCH  25  26
ENDBRANCH   9  25
BRANCH   1  32
HETATM   32  O1  UNL     1      20.868   2.079  52.264  1.00  0.00    -0.353 OA
HETATM   33  C1  UNL     1      19.853   1.145  52.440  1.00  0.00     0.210 C 
ENDBRANCH   1  32
TORSDOF 3
ENDMDL
MODEL 6
REMARK VINA RESULT:      -8.0      8.281     10.890
REMARK  3 active torsions:
REMARK  status: ('A' for Active; 'I' for Inactive)
REMARK    1  A    between atoms: O1_2  and  C2_3 
REMARK    2  A    between atoms: C9_11  and  C10_12 
REMARK    3  A    between atoms: C10_12  and  N1_13 
ROOT
HETATM    1  C2  UNL     1      29.666  10.272  46.038  1.00  0.00     0.103 A 
HETATM    2  C3  UNL     1      28.335  10.562  46.227  1.00  0.00     0.072 A 
HETATM    3  C4  UNL     1      27.748  10.350  47.481  1.00  0.00     0.072 A 
HETATM    4  C5  UNL     1      28.559   9.838  48.523  1.00  0.00     0.011 A 
HETATM    5  C6  UNL     1      29.881   9.571  48.274  1.00  0.00     0.054 A 
HETATM    6  C7  UNL     1      30.469   9.770  47.053  1.00  0.00     0.103 A 
HETATM    7  O2  UNL     1      31.774   9.535  46.664  1.00  0.00    -0.346 OA
HETATM    8  C8  UNL     1      32.239   8.504  45.857  1.00  0.00     0.209 C 
HETATM    9  C9  UNL     1      32.042   7.098  46.350  1.00  0.00     0.174 C 
HETATM   10  O4  UNL     1      30.751   6.706  46.578  1.00  0.00    -0.379 OA
HETATM   11  C15 UNL     1      30.591   6.307  47.921  1.00  0.00     0.207 C 
HETATM   12  C16 UNL     1      29.220   5.972  48.237  1.00  0.00     0.211 A 
HETATM   13  C17 UNL     1      28.007   5.726  48.563  1.00  0.00     0.200 A 
HETATM   14  F1  UNL     1      29.016   6.614  48.910  1.00  0.00    -0.366 F 
HETATM   15  C18 UNL     1      26.661   5.531  48.926  1.00  0.00     0.053 A 
HETATM   16 CL1  UNL     1      27.244   3.916  48.767  1.00  0.00    -0.135 Cl
HETATM   17  C19 UNL     1      25.802   6.498  49.159  1.00  0.00     0.044 C 
HETATM   18  C20 UNL     1      26.313   7.828  49.006  1.00  0.00     0.231 C 
HETATM   19  N2  UNL     1      25.277   8.828  48.755  1.00  0.00    -0.253 NA
HETATM   20  C21 UNL     1      25.379   9.937  48.045  1.00  0.00     0.230 C 
HETATM   21  N3  UNL     1      26.464  10.681  47.405  1.00  0.00    -0.242 NA
HETATM   22  N4  UNL     1      27.247   8.305  49.999  1.00  0.00    -0.373 N 
HETATM   23  C22 UNL     1      28.075   9.514  49.772  1.00  0.00     0.099 C 
HETATM   24  H25 UNL     1      27.397   7.834  50.927  1.00  0.00     0.161 HD
ENDROOT
BRANCH   9  25
HETATM   25  C10 UNL     1      32.719   6.135  45.366  1.00  0.00     0.306 C 
BRANCH  25  26
HETATM   26  N1  UNL     1      33.835   5.481  45.981  1.00  0.00     0.095 N 
HETATM   27  C11 UNL     1      34.094   6.031  47.283  1.00  0.00     0.298 C 
HETATM   28  C12 UNL     1      34.966   5.190  48.158  1.00  0.00     0.198 C 
HETATM   29  O3  UNL     1      34.718   3.827  48.057  1.00  0.00    -0.388 OA
HETATM   30  C13 UNL     1      34.860   3.420  46.724  1.00  0.00     0.198 C 
HETATM   31  C14 UNL     1      33.708   4.056  45.973  1.00  0.00     0.298 C 
ENDBRANCH  25  26
ENDBRANCH   9  25
BRANCH   1  32
HETATM   32  O1  UNL     1      30.135  10.515  44.776  1.00  0.00    -0.353 OA
HETATM   33  C1  UNL     1      29.615   9.999  43.594  1.00  0.00     0.210 C 
ENDBRANCH   1  32
TORSDOF 3
ENDMDL
MODEL 7
REMARK VINA RESULT:      -7.6      3.159      7.458
REMARK  3 active torsions:
REMARK  status: ('A' for Active; 'I' for Inactive)
REMARK    1  A    between atoms: O1_2  and  C2_3 
REMARK    2  A    between atoms: C9_11  and  C10_12 
REMARK    3  A    between atoms: C10_12  and  N1_13 
ROOT
HETATM    1  C2  UNL     1      22.572  -0.030  53.216  1.00  0.00     0.103 A 
HETATM    2  C3  UNL     1      23.897   0.185  52.918  1.00  0.00     0.072 A 
HETATM    3  C4  UNL     1      24.363   1.491  52.724  1.00  0.00     0.072 A 
HETATM    4  C5  UNL     1      23.440   2.559  52.846  1.00  0.00     0.011 A 
HETATM    5  C6  UNL     1      22.132   2.281  53.149  1.00  0.00     0.054 A 
HETATM    6  C7  UNL     1      21.659   1.010  53.337  1.00  0.00     0.103 A 
HETATM    7  O2  UNL     1      20.376   0.590  53.632  1.00  0.00    -0.346 OA
HETATM    8  C8  UNL     1      19.476  -0.031  52.776  1.00  0.00     0.209 C 
HETATM    9  C9  UNL     1      19.038   0.735  51.560  1.00  0.00     0.174 C 
HETATM   10  O4  UNL     1      20.023   1.118  50.690  1.00  0.00    -0.379 OA
HETATM   11  C15 UNL     1      20.028   2.520  50.541  1.00  0.00     0.207 C 
HETATM   12  C16 UNL     1      21.113   2.981  49.704  1.00  0.00     0.211 A 
HETATM   13  C17 UNL     1      22.097   3.426  49.018  1.00  0.00     0.200 A 
HETATM   14  F1  UNL     1      21.602   3.530  50.310  1.00  0.00    -0.366 F 
HETATM   15  C18 UNL     1      23.224   3.906  48.323  1.00  0.00     0.053 A 
HETATM   16 CL1  UNL     1      21.976   4.024  47.139  1.00  0.00    -0.135 Cl
HETATM   17  C19 UNL     1      24.431   4.002  48.834  1.00  0.00     0.044 C 
HETATM   18  C20 UNL     1      24.564   3.563  50.192  1.00  0.00     0.231 C 
HETATM   19  N2  UNL     1      25.930   3.192  50.555  1.00  0.00    -0.253 NA
HETATM   20  C21 UNL     1      26.314   2.275  51.427  1.00  0.00     0.230 C 
HETATM   21  N3  UNL     1      25.658   1.435  52.429  1.00  0.00    -0.242 NA
HETATM   22  N4  UNL     1      23.971   4.384  51.223  1.00  0.00    -0.373 N 
HETATM   23  C22 UNL     1      23.765   3.875  52.600  1.00  0.00     0.099 C 
HETATM   24  H25 UNL     1      23.654   5.373  51.064  1.00  0.00     0.161 HD
ENDROOT
BRANCH   9  25
HETATM   25  C10 UNL     1      17.974  -0.085  50.820  1.00  0.00     0.306 C 
BRANCH  25  26
HETATM   26  N1  UNL     1      16.657   0.375  51.148  1.00  0.00     0.095 N 
HETATM   27  C11 UNL     1      16.032  -0.502  52.098  1.00  0.00     0.298 C 
HETATM   28  C12 UNL     1      14.839   0.071  52.792  1.00  0.00     0.198 C 
HETATM   29  O3  UNL     1      14.972   1.413  53.124  1.00  0.00    -0.388 OA
HETATM   30  C13 UNL     1      15.246   2.158  51.970  1.00  0.00     0.198 C 
HETATM   31  C14 UNL     1      16.639   1.752  51.537  1.00  0.00     0.298 C 
ENDBRANCH  25  26
ENDBRANCH   9  25
BRANCH   1  32
HETATM   32  O1  UNL     1      22.224  -1.342  53.382  1.00  0.00    -0.353 OA
HETATM   33  C1  UNL     1      22.106  -2.012  54.595  1.00  0.00     0.210 C 
ENDBRANCH   1  32
TORSDOF 3
ENDMDL
MODEL 8
REMARK VINA RESULT:      -7.5     10.490     14.358
REMARK  3 active torsions:
REMARK  status: ('A' for Active; 'I' for Inactive)
REMARK    1  A    between atoms: O1_2  and  C2_3 
REMARK    2  A    between atoms: C9_11  and  C10_12 
REMARK    3  A    between atoms: C10_12  and  N1_13 
ROOT
HETATM    1  C2  UNL     1      30.276   7.066  48.640  1.00  0.00     0.103 A 
HETATM    2  C3  UNL     1      30.375   5.790  48.139  1.00  0.00     0.072 A 
HETATM    3  C4  UNL     1      31.638   5.232  47.902  1.00  0.00     0.072 A 
HETATM    4  C5  UNL     1      32.782   6.014  48.192  1.00  0.00     0.011 A 
HETATM    5  C6  UNL     1      32.619   7.281  48.693  1.00  0.00     0.054 A 
HETATM    6  C7  UNL     1      31.392   7.842  48.928  1.00  0.00     0.103 A 
HETATM    7  O2  UNL     1      31.084   9.098  49.415  1.00  0.00    -0.346 OA
HETATM    8  C8  UNL     1      30.583  10.178  48.700  1.00  0.00     0.209 C 
HETATM    9  C9  UNL     1      31.431  10.723  47.585  1.00  0.00     0.174 C 
HETATM   10  O4  UNL     1      31.750   9.853  46.578  1.00  0.00    -0.379 OA
HETATM   11  C15 UNL     1      33.150   9.733  46.460  1.00  0.00     0.207 C 
HETATM   12  C16 UNL     1      33.537   8.752  45.470  1.00  0.00     0.211 A 
HETATM   13  C17 UNL     1      33.912   7.848  44.645  1.00  0.00     0.200 A 
HETATM   14  F1  UNL     1      34.014   8.122  46.002  1.00  0.00    -0.366 F 
HETATM   15  C18 UNL     1      34.308   6.802  43.791  1.00  0.00     0.053 A 
HETATM   16 CL1  UNL     1      34.587   8.202  42.823  1.00  0.00    -0.135 Cl
HETATM   17  C19 UNL     1      34.272   5.527  44.104  1.00  0.00     0.044 C 
HETATM   18  C20 UNL     1      33.773   5.226  45.414  1.00  0.00     0.231 C 
HETATM   19  N2  UNL     1      33.260   3.864  45.547  1.00  0.00    -0.253 NA
HETATM   20  C21 UNL     1      32.281   3.441  46.327  1.00  0.00     0.230 C 
HETATM   21  N3  UNL     1      31.471   4.012  47.403  1.00  0.00    -0.242 NA
HETATM   22  N4  UNL     1      34.607   5.566  46.543  1.00  0.00    -0.373 N 
HETATM   23  C22 UNL     1      34.070   5.604  47.924  1.00  0.00     0.099 C 
HETATM   24  H25 UNL     1      35.627   5.805  46.457  1.00  0.00     0.161 HD
ENDROOT
BRANCH   9  25
HETATM   25  C10 UNL     1      30.742  11.966  47.008  1.00  0.00     0.306 C 
BRANCH  25  26
HETATM   26  N1  UNL     1      29.374  12.032  47.428  1.00  0.00     0.095 N 
HETATM   27  C11 UNL     1      29.112  13.264  48.120  1.00  0.00     0.298 C 
HETATM   28  C12 UNL     1      27.665  13.609  48.261  1.00  0.00     0.198 C 
HETATM   29  O3  UNL     1      26.903  13.309  47.139  1.00  0.00    -0.388 OA
HETATM   30  C13 UNL     1      27.032  11.949  46.832  1.00  0.00     0.198 C 
HETATM   31  C14 UNL     1      28.460  11.766  46.360  1.00  0.00     0.298 C 
ENDBRANCH  25  26
ENDBRANCH   9  25
BRANCH   1  32
HETATM   32  O1  UNL     1      28.997   7.512  48.832  1.00  0.00    -0.353 OA
HETATM   33  C1  UNL     1      27.848   6.986  48.251  1.00  0.00     0.210 C 
ENDBRANCH   1  32
TORSDOF 3
ENDMDL
MODEL 9
REMARK VINA RESULT:      -7.5      3.065      5.795
REMARK  3 active torsions:
REMARK  status: ('A' for Active; 'I' for Inactive)
REMARK    1  A    between atoms: O1_2  and  C2_3 
REMARK    2  A    between atoms: C9_11  and  C10_12 
REMARK    3  A    between atoms: C10_12  and  N1_13 
ROOT
HETATM    1  C2  UNL     1      23.923   1.975  52.581  1.00  0.00     0.103 A 
HETATM    2  C3  UNL     1      23.086   1.064  53.180  1.00  0.00     0.072 A 
HETATM    3  C4  UNL     1      22.084   0.440  52.427  1.00  0.00     0.072 A 
HETATM    4  C5  UNL     1      21.968   0.774  51.056  1.00  0.00     0.011 A 
HETATM    5  C6  UNL     1      22.835   1.688  50.513  1.00  0.00     0.054 A 
HETATM    6  C7  UNL     1      23.818   2.310  51.237  1.00  0.00     0.103 A 
HETATM    7  O2  UNL     1      24.743   3.250  50.825  1.00  0.00    -0.346 OA
HETATM    8  C8  UNL     1      24.746   4.609  51.109  1.00  0.00     0.209 C 
HETATM    9  C9  UNL     1      23.578   5.420  50.623  1.00  0.00     0.174 C 
HETATM   10  O4  UNL     1      22.343   5.048  51.078  1.00  0.00    -0.379 OA
HETATM   11  C15 UNL     1      21.498   4.726  49.996  1.00  0.00     0.207 C 
HETATM   12  C16 UNL     1      20.208   4.235  50.431  1.00  0.00     0.211 A 
HETATM   13  C17 UNL     1      19.081   3.742  50.783  1.00  0.00     0.200 A 
HETATM   14  F1  UNL     1      20.205   3.356  50.066  1.00  0.00    -0.366 F 
HETATM   15  C18 UNL     1      17.877   3.133  51.183  1.00  0.00     0.053 A 
HETATM   16 CL1  UNL     1      17.374   4.734  50.789  1.00  0.00    -0.135 Cl
HETATM   17  C19 UNL     1      17.767   1.885  51.580  1.00  0.00     0.044 C 
HETATM   18  C20 UNL     1      18.987   1.134  51.605  1.00  0.00     0.231 C 
HETATM   19  N2  UNL     1      18.948  -0.017  52.504  1.00  0.00    -0.253 NA
HETATM   20  C21 UNL     1      19.949  -0.546  53.185  1.00  0.00     0.230 C 
HETATM   21  N3  UNL     1      21.401  -0.371  53.228  1.00  0.00    -0.242 NA
HETATM   22  N4  UNL     1      19.574   0.767  50.337  1.00  0.00    -0.373 N 
HETATM   23  C22 UNL     1      20.973   0.287  50.236  1.00  0.00     0.099 C 
HETATM   24  H25 UNL     1      19.056   0.817  49.424  1.00  0.00     0.161 HD
ENDROOT
BRANCH   9  25
HETATM   25  C10 UNL     1      23.836   6.896  50.948  1.00  0.00     0.306 C 
BRANCH  25  26
HETATM   26  N1  UNL     1      24.457   7.561  49.842  1.00  0.00     0.095 N 
HETATM   27  C11 UNL     1      25.863   7.742  50.080  1.00  0.00     0.298 C 
HETATM   28  C12 UNL     1      26.669   8.066  48.864  1.00  0.00     0.198 C 
HETATM   29  O3  UNL     1      26.278   7.370  47.727  1.00  0.00    -0.388 OA
HETATM   30  C13 UNL     1      24.923   7.612  47.469  1.00  0.00     0.198 C 
HETATM   31  C14 UNL     1      24.162   6.935  48.590  1.00  0.00     0.298 C 
ENDBRANCH  25  26
ENDBRANCH   9  25
BRANCH   1  32
HETATM   32  O1  UNL     1      24.863   2.525  53.408  1.00  0.00    -0.353 OA
HETATM   33  C1  UNL     1      26.055   1.929  53.807  1.00  0.00     0.210 C 
ENDBRANCH   1  32
TORSDOF 3
ENDMDL
