MODEL 1
REMARK VINA RESULT:      -7.8      0.000      0.000
REMARK  6 active torsions:
REMARK  status: ('A' for Active; 'I' for Inactive)
REMARK    1  A    between atoms: C2_2  and  C3_3 
REMARK    2  A    between atoms: C3_3  and  C4_5 
REMARK    3  A    between atoms: C4_5  and  N1_6 
REMARK    4  A    between atoms: C5_7  and  C6_8 
REMARK    5  A    between atoms: C9_11  and  N2_12 
REMARK    6  A    between atoms: N2_12  and  C10_13 
ROOT
HETATM    1  C6  UNL     1      26.416   0.775  51.972  1.00  0.00     0.030 C 
HETATM    2  C7  UNL     1      25.209   1.318  52.076  1.00  0.00     0.040 A 
HETATM    3  C8  UNL     1      25.076   2.796  52.016  1.00  0.00     0.118 A 
HETATM    4  C9  UNL     1      23.679   3.216  52.146  1.00  0.00     0.037 A 
HETATM    5  C16 UNL     1      22.639   2.413  52.298  1.00  0.00     0.085 A 
HETATM    6  C17 UNL     1      21.280   2.900  52.421  1.00  0.00     0.103 C 
HETATM    7  N3  UNL     1      20.197   3.280  52.504  1.00  0.00    -0.191 NA
HETATM    8  C18 UNL     1      22.887   0.987  52.344  1.00  0.00     0.141 A 
HETATM    9  N4  UNL     1      24.062   0.506  52.240  1.00  0.00    -0.264 NA
ENDROOT
BRANCH   4  10
HETATM   10  N2  UNL     1      23.419   4.622  52.102  1.00  0.00    -0.358 N 
HETATM   11  H10 UNL     1      22.992   5.240  52.821  1.00  0.00     0.166 HD
BRANCH  10  12
HETATM   12  C10 UNL     1      23.783   5.329  50.919  1.00  0.00     0.033 A 
HETATM   13  C11 UNL     1      23.337   4.926  49.674  1.00  0.00     0.029 A 
HETATM   14  C12 UNL     1      23.660   5.579  48.489  1.00  0.00     0.004 A 
HETATM   15  C13 UNL     1      24.479   6.698  48.563  1.00  0.00     0.019 A 
HETATM   16  C14 UNL     1      24.945   7.129  49.799  1.00  0.00     0.013 A 
HETATM   17 BR1  UNL     1      26.073   8.668  49.929  1.00  0.00    -0.051 Br
HETATM   18  C15 UNL     1      24.601   6.454  50.954  1.00  0.00     0.048 A 
ENDBRANCH  10  12
ENDBRANCH   4  10
BRANCH   1  19
HETATM   19  C5  UNL     1      26.551  -0.675  52.031  1.00  0.00     0.035 C 
HETATM   20  C4  UNL     1      27.355  -1.234  52.916  1.00  0.00     0.076 C 
BRANCH  20  21
HETATM   21  C3  UNL     1      28.161  -0.509  53.888  1.00  0.00     0.197 C 
HETATM   22  O1  UNL     1      28.202  -0.136  55.086  1.00  0.00    -0.286 OA
BRANCH  21  23
HETATM   23  C2  UNL     1      29.452   0.151  53.718  1.00  0.00     0.047 C 
HETATM   24  C1  UNL     1      29.300   1.369  54.224  1.00  0.00     0.015 C 
ENDBRANCH  21  23
ENDBRANCH  20  21
BRANCH  20  25
HETATM   25  N1  UNL     1      27.526  -2.640  53.019  1.00  0.00    -0.396 N 
HETATM   26  H4  UNL     1      28.117  -3.490  52.951  1.00  0.00     0.156 HD
HETATM   27  H5  UNL     1      26.738  -3.292  53.299  1.00  0.00     0.156 HD
ENDBRANCH  20  25
ENDBRANCH   1  19
TORSDOF 6
ENDMDL
MODEL 2
REMARK VINA RESULT:      -7.6      2.351      3.023
REMARK  6 active torsions:
REMARK  status: ('A' for Active; 'I' for Inactive)
REMARK    1  A    between atoms: C2_2  and  C3_3 
REMARK    2  A    between atoms: C3_3  and  C4_5 
REMARK    3  A    between atoms: C4_5  and  N1_6 
REMARK    4  A    between atoms: C5_7  and  C6_8 
REMARK    5  A    between atoms: C9_11  and  N2_12 
REMARK    6  A    between atoms: N2_12  and  C10_13 
ROOT
HETATM    1  C6  UNL     1      26.157   1.163  51.849  1.00  0.00     0.030 C 
HETATM    2  C7  UNL     1      25.510   2.295  51.600  1.00  0.00     0.040 A 
HETATM    3  C8  UNL     1      25.783   3.019  50.332  1.00  0.00     0.118 A 
HETATM    4  C9  UNL     1      24.984   4.240  50.226  1.00  0.00     0.037 A 
HETATM    5  C16 UNL     1      24.116   4.680  51.123  1.00  0.00     0.085 A 
HETATM    6  C17 UNL     1      23.357   5.902  50.952  1.00  0.00     0.103 C 
HETATM    7  N3  UNL     1      22.740   6.863  50.814  1.00  0.00    -0.191 NA
HETATM    8  C18 UNL     1      23.929   3.893  52.324  1.00  0.00     0.141 A 
HETATM    9  N4  UNL     1      24.570   2.810  52.525  1.00  0.00    -0.264 NA
ENDROOT
BRANCH   4  10
HETATM   10  N2  UNL     1      25.158   5.028  49.044  1.00  0.00    -0.358 N 
HETATM   11  H10 UNL     1      24.488   5.224  48.273  1.00  0.00     0.166 HD
BRANCH  10  12
HETATM   12  C10 UNL     1      26.420   5.660  48.846  1.00  0.00     0.033 A 
HETATM   13  C11 UNL     1      27.557   4.924  48.568  1.00  0.00     0.029 A 
HETATM   14  C12 UNL     1      28.811   5.490  48.365  1.00  0.00     0.004 A 
HETATM   15  C13 UNL     1      28.926   6.871  48.448  1.00  0.00     0.019 A 
HETATM   16  C14 UNL     1      27.803   7.639  48.727  1.00  0.00     0.013 A 
HETATM   17 BR1  UNL     1      27.933   9.543  48.846  1.00  0.00    -0.051 Br
HETATM   18  C15 UNL     1      26.573   7.041  48.922  1.00  0.00     0.048 A 
ENDBRANCH  10  12
ENDBRANCH   4  10
BRANCH   1  19
HETATM   19  C5  UNL     1      25.891   0.451  53.092  1.00  0.00     0.035 C 
HETATM   20  C4  UNL     1      26.785   0.447  54.062  1.00  0.00     0.076 C 
BRANCH  20  21
HETATM   21  C3  UNL     1      28.076   1.119  54.011  1.00  0.00     0.197 C 
HETATM   22  O1  UNL     1      28.633   2.241  54.091  1.00  0.00    -0.286 OA
BRANCH  21  23
HETATM   23  C2  UNL     1      29.408   0.559  53.802  1.00  0.00     0.047 C 
HETATM   24  C1  UNL     1      29.212  -0.697  53.417  1.00  0.00     0.015 C 
ENDBRANCH  21  23
ENDBRANCH  20  21
BRANCH  20  25
HETATM   25  N1  UNL     1      26.582  -0.229  55.294  1.00  0.00    -0.396 N 
HETATM   26  H4  UNL     1      26.086  -0.337  56.199  1.00  0.00     0.156 HD
HETATM   27  H5  UNL     1      27.150  -1.077  55.581  1.00  0.00     0.156 HD
ENDBRANCH  20  25
ENDBRANCH   1  19
TORSDOF 6
ENDMDL
MODEL 3
REMARK VINA RESULT:      -7.5      3.744      6.929
REMARK  6 active torsions:
REMARK  status: ('A' for Active; 'I' for Inactive)
REMARK    1  A    between atoms: C2_2  and  C3_3 
REMARK    2  A    between atoms: C3_3  and  C4_5 
REMARK    3  A    between atoms: C4_5  and  N1_6 
REMARK    4  A    between atoms: C5_7  and  C6_8 
REMARK    5  A    between atoms: C9_11  and  N2_12 
REMARK    6  A    between atoms: N2_12  and  C10_13 
ROOT
HETATM    1  C6  UNL     1      22.598   1.190  51.910  1.00  0.00     0.030 C 
HETATM    2  C7  UNL     1      23.602   1.847  51.342  1.00  0.00     0.040 A 
HETATM    3  C8  UNL     1      24.890   1.967  52.072  1.00  0.00     0.118 A 
HETATM    4  C9  UNL     1      25.879   2.719  51.298  1.00  0.00     0.037 A 
HETATM    5  C16 UNL     1      25.690   3.241  50.097  1.00  0.00     0.085 A 
HETATM    6  C17 UNL     1      26.718   3.976  49.388  1.00  0.00     0.103 C 
HETATM    7  N3  UNL     1      27.535   4.547  48.813  1.00  0.00    -0.191 NA
HETATM    8  C18 UNL     1      24.393   3.063  49.479  1.00  0.00     0.141 A 
HETATM    9  N4  UNL     1      23.454   2.425  50.058  1.00  0.00    -0.264 NA
ENDROOT
BRANCH   4  10
HETATM   10  N2  UNL     1      27.165   2.903  51.896  1.00  0.00    -0.358 N 
HETATM   11  H10 UNL     1      27.796   3.729  51.872  1.00  0.00     0.166 HD
BRANCH  10  12
HETATM   12  C10 UNL     1      27.708   1.822  52.651  1.00  0.00     0.033 A 
HETATM   13  C11 UNL     1      28.575   2.046  53.705  1.00  0.00     0.029 A 
HETATM   14  C12 UNL     1      29.134   1.030  54.474  1.00  0.00     0.004 A 
HETATM   15  C13 UNL     1      28.800  -0.282  54.164  1.00  0.00     0.019 A 
HETATM   16  C14 UNL     1      27.932  -0.540  53.110  1.00  0.00     0.013 A 
HETATM   17 BR1  UNL     1      27.456  -2.338  52.663  1.00  0.00    -0.051 Br
HETATM   18  C15 UNL     1      27.398   0.496  52.370  1.00  0.00     0.048 A 
ENDBRANCH  10  12
ENDBRANCH   4  10
BRANCH   1  19
HETATM   19  C5  UNL     1      21.332   1.071  51.196  1.00  0.00     0.035 C 
HETATM   20  C4  UNL     1      20.318   0.427  51.741  1.00  0.00     0.076 C 
BRANCH  20  21
HETATM   21  C3  UNL     1      20.338  -0.207  53.052  1.00  0.00     0.197 C 
HETATM   22  O1  UNL     1      20.119  -1.287  53.653  1.00  0.00    -0.286 OA
BRANCH  21  23
HETATM   23  C2  UNL     1      20.702   0.353  54.350  1.00  0.00     0.047 C 
HETATM   24  C1  UNL     1      21.526  -0.530  54.902  1.00  0.00     0.015 C 
ENDBRANCH  21  23
ENDBRANCH  20  21
BRANCH  20  25
HETATM   25  N1  UNL     1      19.063   0.279  51.093  1.00  0.00    -0.396 N 
HETATM   26  H4  UNL     1      18.288  -0.314  50.741  1.00  0.00     0.156 HD
HETATM   27  H5  UNL     1      18.511   1.104  50.722  1.00  0.00     0.156 HD
ENDBRANCH  20  25
ENDBRANCH   1  19
TORSDOF 6
ENDMDL
MODEL 4
REMARK VINA RESULT:      -7.5      3.456      6.920
REMARK  6 active torsions:
REMARK  status: ('A' for Active; 'I' for Inactive)
REMARK    1  A    between atoms: C2_2  and  C3_3 
REMARK    2  A    between atoms: C3_3  and  C4_5 
REMARK    3  A    between atoms: C4_5  and  N1_6 
REMARK    4  A    between atoms: C5_7  and  C6_8 
REMARK    5  A    between atoms: C9_11  and  N2_12 
REMARK    6  A    between atoms: N2_12  and  C10_13 
ROOT
HETATM    1  C6  UNL     1      25.973   3.107  49.794  1.00  0.00     0.030 C 
HETATM    2  C7  UNL     1      26.229   2.403  50.890  1.00  0.00     0.040 A 
HETATM    3  C8  UNL     1      25.327   1.280  51.253  1.00  0.00     0.118 A 
HETATM    4  C9  UNL     1      25.761   0.619  52.485  1.00  0.00     0.037 A 
HETATM    5  C16 UNL     1      26.816   0.947  53.212  1.00  0.00     0.085 A 
HETATM    6  C17 UNL     1      27.187   0.246  54.424  1.00  0.00     0.103 C 
HETATM    7  N3  UNL     1      27.495  -0.317  55.379  1.00  0.00    -0.191 NA
HETATM    8  C18 UNL     1      27.626   2.061  52.762  1.00  0.00     0.141 A 
HETATM    9  N4  UNL     1      27.345   2.712  51.704  1.00  0.00    -0.264 NA
ENDROOT
BRANCH   4  10
HETATM   10  N2  UNL     1      24.971  -0.484  52.940  1.00  0.00    -0.358 N 
HETATM   11  H10 UNL     1      25.214  -1.493  53.003  1.00  0.00     0.166 HD
BRANCH  10  12
HETATM   12  C10 UNL     1      23.645  -0.212  53.386  1.00  0.00     0.033 A 
HETATM   13  C11 UNL     1      23.064  -0.949  54.402  1.00  0.00     0.029 A 
HETATM   14  C12 UNL     1      21.775  -0.727  54.877  1.00  0.00     0.004 A 
HETATM   15  C13 UNL     1      21.032   0.292  54.296  1.00  0.00     0.019 A 
HETATM   16  C14 UNL     1      21.587   1.050  53.272  1.00  0.00     0.013 A 
HETATM   17 BR1  UNL     1      20.586   2.460  52.455  1.00  0.00    -0.051 Br
HETATM   18  C15 UNL     1      22.871   0.800  52.828  1.00  0.00     0.048 A 
ENDBRANCH  10  12
ENDBRANCH   4  10
BRANCH   1  19
HETATM   19  C5  UNL     1      26.855   4.210  49.435  1.00  0.00     0.035 C 
HETATM   20  C4  UNL     1      26.404   5.450  49.430  1.00  0.00     0.076 C 
BRANCH  20  21
HETATM   21  C3  UNL     1      25.043   5.845  49.765  1.00  0.00     0.197 C 
HETATM   22  O1  UNL     1      23.849   5.773  49.384  1.00  0.00    -0.286 OA
BRANCH  21  23
HETATM   23  C2  UNL     1      24.553   6.617  50.903  1.00  0.00     0.047 C 
HETATM   24  C1  UNL     1      23.711   5.813  51.544  1.00  0.00     0.015 C 
ENDBRANCH  21  23
ENDBRANCH  20  21
BRANCH  20  25
HETATM   25  N1  UNL     1      27.217   6.563  49.089  1.00  0.00    -0.396 N 
HETATM   26  H4  UNL     1      27.646   7.192  48.383  1.00  0.00     0.156 HD
HETATM   27  H5  UNL     1      27.705   7.159  49.817  1.00  0.00     0.156 HD
ENDBRANCH  20  25
ENDBRANCH   1  19
TORSDOF 6
ENDMDL
MODEL 5
REMARK VINA RESULT:      -7.4      1.851      2.206
REMARK  6 active torsions:
REMARK  status: ('A' for Active; 'I' for Inactive)
REMARK    1  A    between atoms: C2_2  and  C3_3 
REMARK    2  A    between atoms: C3_3  and  C4_5 
REMARK    3  A    between atoms: C4_5  and  N1_6 
REMARK    4  A    between atoms: C5_7  and  C6_8 
REMARK    5  A    between atoms: C9_11  and  N2_12 
REMARK    6  A    between atoms: N2_12  and  C10_13 
ROOT
HETATM    1  C6  UNL     1      24.490   0.551  52.672  1.00  0.00     0.030 C 
HETATM    2  C7  UNL     1      23.514   1.350  52.258  1.00  0.00     0.040 A 
HETATM    3  C8  UNL     1      23.777   2.289  51.138  1.00  0.00     0.118 A 
HETATM    4  C9  UNL     1      22.592   3.088  50.817  1.00  0.00     0.037 A 
HETATM    5  C16 UNL     1      21.418   3.012  51.421  1.00  0.00     0.085 A 
HETATM    6  C17 UNL     1      20.286   3.836  51.050  1.00  0.00     0.103 C 
HETATM    7  N3  UNL     1      19.379   4.477  50.749  1.00  0.00    -0.191 NA
HETATM    8  C18 UNL     1      21.275   2.059  52.502  1.00  0.00     0.141 A 
HETATM    9  N4  UNL     1      22.238   1.309  52.869  1.00  0.00    -0.264 NA
ENDROOT
BRANCH   4  10
HETATM   10  N2  UNL     1      22.719   4.034  49.751  1.00  0.00    -0.358 N 
HETATM   11  H10 UNL     1      22.225   4.073  48.837  1.00  0.00     0.166 HD
BRANCH  10  12
HETATM   12  C10 UNL     1      23.647   5.103  49.917  1.00  0.00     0.033 A 
HETATM   13  C11 UNL     1      23.376   6.166  50.759  1.00  0.00     0.029 A 
HETATM   14  C12 UNL     1      24.245   7.233  50.958  1.00  0.00     0.004 A 
HETATM   15  C13 UNL     1      25.452   7.230  50.272  1.00  0.00     0.019 A 
HETATM   16  C14 UNL     1      25.755   6.177  49.418  1.00  0.00     0.013 A 
HETATM   17 BR1  UNL     1      27.410   6.146  48.461  1.00  0.00    -0.051 Br
HETATM   18  C15 UNL     1      24.865   5.133  49.246  1.00  0.00     0.048 A 
ENDBRANCH  10  12
ENDBRANCH   4  10
BRANCH   1  19
HETATM   19  C5  UNL     1      24.236  -0.372  53.770  1.00  0.00     0.035 C 
HETATM   20  C4  UNL     1      25.158  -0.585  54.689  1.00  0.00     0.076 C 
BRANCH  20  21
HETATM   21  C3  UNL     1      26.471   0.044  54.716  1.00  0.00     0.197 C 
HETATM   22  O1  UNL     1      27.116   1.013  55.188  1.00  0.00    -0.286 OA
BRANCH  21  23
HETATM   23  C2  UNL     1      27.708  -0.355  54.052  1.00  0.00     0.047 C 
HETATM   24  C1  UNL     1      28.685   0.242  54.726  1.00  0.00     0.015 C 
ENDBRANCH  21  23
ENDBRANCH  20  21
BRANCH  20  25
HETATM   25  N1  UNL     1      24.967  -1.473  55.781  1.00  0.00    -0.396 N 
HETATM   26  H4  UNL     1      24.948  -2.431  56.179  1.00  0.00     0.156 HD
HETATM   27  H5  UNL     1      24.705  -1.137  56.752  1.00  0.00     0.156 HD
ENDBRANCH  20  25
ENDBRANCH   1  19
TORSDOF 6
ENDMDL
MODEL 6
REMARK VINA RESULT:      -7.3      3.837      7.199
REMARK  6 active torsions:
REMARK  status: ('A' for Active; 'I' for Inactive)
REMARK    1  A    between atoms: C2_2  and  C3_3 
REMARK    2  A    between atoms: C3_3  and  C4_5 
REMARK    3  A    between atoms: C4_5  and  N1_6 
REMARK    4  A    between atoms: C5_7  and  C6_8 
REMARK    5  A    between atoms: C9_11  and  N2_12 
REMARK    6  A    between atoms: N2_12  and  C10_13 
ROOT
HETATM    1  C6  UNL     1      22.313   1.081  51.541  1.00  0.00     0.030 C 
HETATM    2  C7  UNL     1      23.356   1.754  51.072  1.00  0.00     0.040 A 
HETATM    3  C8  UNL     1      24.533   1.967  51.953  1.00  0.00     0.118 A 
HETATM    4  C9  UNL     1      25.585   2.724  51.272  1.00  0.00     0.037 A 
HETATM    5  C16 UNL     1      25.534   3.179  50.031  1.00  0.00     0.085 A 
HETATM    6  C17 UNL     1      26.616   3.925  49.420  1.00  0.00     0.103 C 
HETATM    7  N3  UNL     1      27.478   4.503  48.925  1.00  0.00    -0.191 NA
HETATM    8  C18 UNL     1      24.335   2.913  49.263  1.00  0.00     0.141 A 
HETATM    9  N4  UNL     1      23.355   2.263  49.751  1.00  0.00    -0.264 NA
ENDROOT
BRANCH   4  10
HETATM   10  N2  UNL     1      26.775   2.994  52.019  1.00  0.00    -0.358 N 
HETATM   11  H10 UNL     1      27.252   3.900  52.203  1.00  0.00     0.166 HD
BRANCH  10  12
HETATM   12  C10 UNL     1      27.445   1.891  52.624  1.00  0.00     0.033 A 
HETATM   13  C11 UNL     1      28.488   2.082  53.512  1.00  0.00     0.029 A 
HETATM   14  C12 UNL     1      29.175   1.044  54.131  1.00  0.00     0.004 A 
HETATM   15  C13 UNL     1      28.791  -0.259  53.839  1.00  0.00     0.019 A 
HETATM   16  C14 UNL     1      27.747  -0.485  52.951  1.00  0.00     0.013 A 
HETATM   17 BR1  UNL     1      27.197  -2.268  52.532  1.00  0.00    -0.051 Br
HETATM   18  C15 UNL     1      27.088   0.573  52.356  1.00  0.00     0.048 A 
ENDBRANCH  10  12
ENDBRANCH   4  10
BRANCH   1  19
HETATM   19  C5  UNL     1      21.156   0.872  50.679  1.00  0.00     0.035 C 
HETATM   20  C4  UNL     1      20.152   1.728  50.691  1.00  0.00     0.076 C 
BRANCH  20  21
HETATM   21  C3  UNL     1      20.083   2.922  51.522  1.00  0.00     0.197 C 
HETATM   22  O1  UNL     1      19.867   3.327  52.690  1.00  0.00    -0.286 OA
BRANCH  21  23
HETATM   23  C2  UNL     1      20.292   4.320  51.159  1.00  0.00     0.047 C 
HETATM   24  C1  UNL     1      21.400   4.692  51.789  1.00  0.00     0.015 C 
ENDBRANCH  21  23
ENDBRANCH  20  21
BRANCH  20  25
HETATM   25  N1  UNL     1      19.001   1.575  49.875  1.00  0.00    -0.396 N 
HETATM   26  H4  UNL     1      17.971   1.510  49.760  1.00  0.00     0.156 HD
HETATM   27  H5  UNL     1      19.058   1.454  48.823  1.00  0.00     0.156 HD
ENDBRANCH  20  25
ENDBRANCH   1  19
TORSDOF 6
ENDMDL
MODEL 7
REMARK VINA RESULT:      -7.2      3.247      4.089
REMARK  6 active torsions:
REMARK  status: ('A' for Active; 'I' for Inactive)
REMARK    1  A    between atoms: C2_2  and  C3_3 
REMARK    2  A    between atoms: C3_3  and  C4_5 
REMARK    3  A    between atoms: C4_5  and  N1_6 
REMARK    4  A    between atoms: C5_7  and  C6_8 
REMARK    5  A    between atoms: C9_11  and  N2_12 
REMARK    6  A    between atoms: N2_12  and  C10_13 
ROOT
HETATM    1  C6  UNL     1      23.253  -0.373  53.190  1.00  0.00     0.030 C 
HETATM    2  C7  UNL     1      21.983  -0.226  52.830  1.00  0.00     0.040 A 
HETATM    3  C8  UNL     1      21.674   0.333  51.489  1.00  0.00     0.118 A 
HETATM    4  C9  UNL     1      20.230   0.421  51.264  1.00  0.00     0.037 A 
HETATM    5  C16 UNL     1      19.287   0.060  52.119  1.00  0.00     0.085 A 
HETATM    6  C17 UNL     1      17.873   0.176  51.828  1.00  0.00     0.103 C 
HETATM    7  N3  UNL     1      16.749   0.252  51.596  1.00  0.00    -0.191 NA
HETATM    8  C18 UNL     1      19.705  -0.474  53.399  1.00  0.00     0.141 A 
HETATM    9  N4  UNL     1      20.935  -0.598  53.706  1.00  0.00    -0.264 NA
ENDROOT
BRANCH   4  10
HETATM   10  N2  UNL     1      19.803   0.946  50.004  1.00  0.00    -0.358 N 
HETATM   11  H10 UNL     1      18.923   0.772  49.476  1.00  0.00     0.166 HD
BRANCH  10  12
HETATM   12  C10 UNL     1      20.675   1.848  49.328  1.00  0.00     0.033 A 
HETATM   13  C11 UNL     1      21.554   1.407  48.356  1.00  0.00     0.029 A 
HETATM   14  C12 UNL     1      22.426   2.243  47.667  1.00  0.00     0.004 A 
HETATM   15  C13 UNL     1      22.412   3.597  47.973  1.00  0.00     0.019 A 
HETATM   16  C14 UNL     1      21.541   4.073  48.946  1.00  0.00     0.013 A 
HETATM   17 BR1  UNL     1      21.501   5.933  49.388  1.00  0.00    -0.051 Br
HETATM   18  C15 UNL     1      20.690   3.211  49.609  1.00  0.00     0.048 A 
ENDBRANCH  10  12
ENDBRANCH   4  10
BRANCH   1  19
HETATM   19  C5  UNL     1      23.560  -0.921  54.505  1.00  0.00     0.035 C 
HETATM   20  C4  UNL     1      24.800  -0.915  54.957  1.00  0.00     0.076 C 
BRANCH  20  21
HETATM   21  C3  UNL     1      25.949  -0.386  54.235  1.00  0.00     0.197 C 
HETATM   22  O1  UNL     1      26.691   0.620  54.118  1.00  0.00    -0.286 OA
BRANCH  21  23
HETATM   23  C2  UNL     1      26.764  -1.011  53.198  1.00  0.00     0.047 C 
HETATM   24  C1  UNL     1      26.741  -0.170  52.170  1.00  0.00     0.015 C 
ENDBRANCH  21  23
ENDBRANCH  20  21
BRANCH  20  25
HETATM   25  N1  UNL     1      25.158  -1.435  56.228  1.00  0.00    -0.396 N 
HETATM   26  H4  UNL     1      25.741  -2.052  56.825  1.00  0.00     0.156 HD
HETATM   27  H5  UNL     1      24.673  -1.140  57.124  1.00  0.00     0.156 HD
ENDBRANCH  20  25
ENDBRANCH   1  19
TORSDOF 6
ENDMDL
MODEL 8
REMARK VINA RESULT:      -7.1      3.261      4.732
REMARK  6 active torsions:
REMARK  status: ('A' for Active; 'I' for Inactive)
REMARK    1  A    between atoms: C2_2  and  C3_3 
REMARK    2  A    between atoms: C3_3  and  C4_5 
REMARK    3  A    between atoms: C4_5  and  N1_6 
REMARK    4  A    between atoms: C5_7  and  C6_8 
REMARK    5  A    between atoms: C9_11  and  N2_12 
REMARK    6  A    between atoms: N2_12  and  C10_13 
ROOT
HETATM    1  C6  UNL     1      23.950   0.592  52.921  1.00  0.00     0.030 C 
HETATM    2  C7  UNL     1      24.582   1.398  52.077  1.00  0.00     0.040 A 
HETATM    3  C8  UNL     1      23.794   2.132  51.054  1.00  0.00     0.118 A 
HETATM    4  C9  UNL     1      24.652   2.970  50.214  1.00  0.00     0.037 A 
HETATM    5  C16 UNL     1      25.965   3.089  50.320  1.00  0.00     0.085 A 
HETATM    6  C17 UNL     1      26.752   3.940  49.451  1.00  0.00     0.103 C 
HETATM    7  N3  UNL     1      27.380   4.626  48.774  1.00  0.00    -0.191 NA
HETATM    8  C18 UNL     1      26.630   2.325  51.355  1.00  0.00     0.141 A 
HETATM    9  N4  UNL     1      25.987   1.562  52.146  1.00  0.00    -0.264 NA
ENDROOT
BRANCH   4  10
HETATM   10  N2  UNL     1      24.008   3.731  49.188  1.00  0.00    -0.358 N 
HETATM   11  H10 UNL     1      24.068   3.635  48.154  1.00  0.00     0.166 HD
BRANCH  10  12
HETATM   12  C10 UNL     1      23.142   4.790  49.588  1.00  0.00     0.033 A 
HETATM   13  C11 UNL     1      23.620   5.883  50.288  1.00  0.00     0.029 A 
HETATM   14  C12 UNL     1      22.822   6.944  50.703  1.00  0.00     0.004 A 
HETATM   15  C13 UNL     1      21.468   6.901  50.396  1.00  0.00     0.019 A 
HETATM   16  C14 UNL     1      20.956   5.816  49.694  1.00  0.00     0.013 A 
HETATM   17 BR1  UNL     1      19.096   5.732  49.258  1.00  0.00    -0.051 Br
HETATM   18  C15 UNL     1      21.782   4.782  49.299  1.00  0.00     0.048 A 
ENDBRANCH  10  12
ENDBRANCH   4  10
BRANCH   1  19
HETATM   19  C5  UNL     1      24.721  -0.130  53.926  1.00  0.00     0.035 C 
HETATM   20  C4  UNL     1      24.113  -0.916  54.794  1.00  0.00     0.076 C 
BRANCH  20  21
HETATM   21  C3  UNL     1      22.676  -1.145  54.850  1.00  0.00     0.197 C 
HETATM   22  O1  UNL     1      21.801  -2.037  54.973  1.00  0.00    -0.286 OA
BRANCH  21  23
HETATM   23  C2  UNL     1      21.577  -0.188  54.758  1.00  0.00     0.047 C 
HETATM   24  C1  UNL     1      20.668  -0.762  53.977  1.00  0.00     0.015 C 
ENDBRANCH  21  23
ENDBRANCH  20  21
BRANCH  20  25
HETATM   25  N1  UNL     1      24.811  -1.642  55.795  1.00  0.00    -0.396 N 
HETATM   26  H4  UNL     1      24.926  -2.483  56.393  1.00  0.00     0.156 HD
HETATM   27  H5  UNL     1      25.680  -1.267  56.272  1.00  0.00     0.156 HD
ENDBRANCH  20  25
ENDBRANCH   1  19
TORSDOF 6
ENDMDL
MODEL 9
REMARK VINA RESULT:      -7.0      6.909      8.528
REMARK  6 active torsions:
REMARK  status: ('A' for Active; 'I' for Inactive)
REMARK    1  A    between atoms: C2_2  and  C3_3 
REMARK    2  A    between atoms: C3_3  and  C4_5 
REMARK    3  A    between atoms: C4_5  and  N1_6 
REMARK    4  A    between atoms: C5_7  and  C6_8 
REMARK    5  A    between atoms: C9_11  and  N2_12 
REMARK    6  A    between atoms: N2_12  and  C10_13 
ROOT
HETATM    1  C6  UNL     1      32.202   6.160  48.329  1.00  0.00     0.030 C 
HETATM    2  C7  UNL     1      31.126   6.916  48.511  1.00  0.00     0.040 A 
HETATM    3  C8  UNL     1      29.801   6.399  48.086  1.00  0.00     0.118 A 
HETATM    4  C9  UNL     1      28.734   7.362  48.363  1.00  0.00     0.037 A 
HETATM    5  C16 UNL     1      28.887   8.552  48.920  1.00  0.00     0.085 A 
HETATM    6  C17 UNL     1      27.782   9.456  49.164  1.00  0.00     0.103 C 
HETATM    7  N3  UNL     1      26.906  10.172  49.375  1.00  0.00    -0.191 NA
HETATM    8  C18 UNL     1      30.227   8.954  49.295  1.00  0.00     0.141 A 
HETATM    9  N4  UNL     1      31.234   8.198  49.103  1.00  0.00    -0.264 NA
ENDROOT
BRANCH   4  10
HETATM   10  N2  UNL     1      27.405   6.978  47.998  1.00  0.00    -0.358 N 
HETATM   11  H10 UNL     1      26.803   7.324  47.224  1.00  0.00     0.166 HD
BRANCH  10  12
HETATM   12  C10 UNL     1      26.764   5.973  48.780  1.00  0.00     0.033 A 
HETATM   13  C11 UNL     1      27.236   4.673  48.805  1.00  0.00     0.029 A 
HETATM   14  C12 UNL     1      26.651   3.654  49.550  1.00  0.00     0.004 A 
HETATM   15  C13 UNL     1      25.530   3.961  50.310  1.00  0.00     0.019 A 
HETATM   16  C14 UNL     1      25.031   5.258  50.305  1.00  0.00     0.013 A 
HETATM   17 BR1  UNL     1      23.489   5.708  51.343  1.00  0.00    -0.051 Br
HETATM   18  C15 UNL     1      25.640   6.243  49.553  1.00  0.00     0.048 A 
ENDBRANCH  10  12
ENDBRANCH   4  10
BRANCH   1  19
HETATM   19  C5  UNL     1      33.505   6.665  48.745  1.00  0.00     0.035 C 
HETATM   20  C4  UNL     1      34.611   6.123  48.272  1.00  0.00     0.076 C 
BRANCH  20  21
HETATM   21  C3  UNL     1      34.662   5.016  47.328  1.00  0.00     0.197 C 
HETATM   22  O1  UNL     1      34.629   4.730  46.106  1.00  0.00    -0.286 OA
BRANCH  21  23
HETATM   23  C2  UNL     1      34.796   3.585  47.580  1.00  0.00     0.047 C 
HETATM   24  C1  UNL     1      33.799   3.010  46.917  1.00  0.00     0.015 C 
ENDBRANCH  21  23
ENDBRANCH  20  21
BRANCH  20  25
HETATM   25  N1  UNL     1      35.907   6.573  48.642  1.00  0.00    -0.396 N 
HETATM   26  H4  UNL     1      36.711   7.218  48.525  1.00  0.00     0.156 HD
HETATM   27  H5  UNL     1      36.470   6.118  49.417  1.00  0.00     0.156 HD
ENDBRANCH  20  25
ENDBRANCH   1  19
TORSDOF 6
ENDMDL
