MODEL 1
REMARK VINA RESULT:      -7.7      0.000      0.000
REMARK  8 active torsions:
REMARK  status: ('A' for Active; 'I' for Inactive)
REMARK    1  A    between atoms: O1_1  and  C1_2 
REMARK    2  A    between atoms: C1_2  and  C2_3 
REMARK    3  A    between atoms: C2_3  and  C3_4 
REMARK    4  A    between atoms: C3_4  and  N1_5 
REMARK    5  A    between atoms: N1_5  and  C4_6 
REMARK    6  A    between atoms: C7_10  and  C8_11 
REMARK    7  A    between atoms: C11_15  and  N4_16 
REMARK    8  A    between atoms: N4_16  and  C12_17 
ROOT
HETATM    1  C8  UNL     1      24.531   2.973  52.439  1.00  0.00     0.088 A 
HETATM    2  C9  UNL     1      23.684   3.908  52.979  1.00  0.00     0.148 A 
HETATM    3  N3  UNL     1      23.422   5.064  52.312  1.00  0.00    -0.267 NA
HETATM    4  C10 UNL     1      24.018   5.255  51.116  1.00  0.00     0.166 A 
HETATM    5  C11 UNL     1      24.873   4.355  50.530  1.00  0.00     0.146 A 
HETATM    6  N5  UNL     1      25.074   3.248  51.252  1.00  0.00    -0.228 NA
ENDROOT
BRANCH   1   7
HETATM    7  C7  UNL     1      24.856   1.700  53.064  1.00  0.00     0.014 A 
HETATM    8  C6  UNL     1      24.049   0.586  53.017  1.00  0.00     0.130 A 
HETATM    9  N2  UNL     1      24.332  -0.596  53.594  1.00  0.00    -0.270 NA
HETATM   10  C5  UNL     1      25.476  -0.714  54.266  1.00  0.00     0.145 A 
HETATM   11  C4  UNL     1      26.365   0.333  54.383  1.00  0.00     0.046 A 
HETATM   12  C18 UNL     1      26.030   1.526  53.773  1.00  0.00     0.046 A 
BRANCH  11  13
HETATM   13  N1  UNL     1      27.568   0.195  55.097  1.00  0.00    -0.389 N 
HETATM   14  H8  UNL     1      27.565  -0.340  56.009  1.00  0.00     0.159 HD
BRANCH  13  15
HETATM   15  C3  UNL     1      28.807   0.769  54.610  1.00  0.00     0.122 C 
BRANCH  15  16
HETATM   16  C2  UNL     1      29.265   0.029  53.386  1.00  0.00     0.045 C 
BRANCH  16  17
HETATM   17  C1  UNL     1      29.661  -1.389  53.653  1.00  0.00     0.165 C 
BRANCH  17  18
HETATM   18  O1  UNL     1      28.654  -2.314  53.409  1.00  0.00    -0.401 OA
HETATM   19  H1  UNL     1      28.985  -3.215  53.628  1.00  0.00     0.209 HD
ENDBRANCH  17  18
ENDBRANCH  16  17
ENDBRANCH  15  16
ENDBRANCH  13  15
ENDBRANCH  11  13
ENDBRANCH   1   7
BRANCH   5  20
HETATM   20  N4  UNL     1      25.554   4.475  49.301  1.00  0.00    -0.340 N 
HETATM   21  H13 UNL     1      25.253   3.846  48.512  1.00  0.00     0.167 HD
BRANCH  20  22
HETATM   22  C12 UNL     1      26.612   5.293  48.855  1.00  0.00     0.035 A 
HETATM   23  C13 UNL     1      27.897   4.792  48.616  1.00  0.00     0.029 A 
HETATM   24  C14 UNL     1      28.917   5.614  48.200  1.00  0.00     0.004 A 
HETATM   25  C15 UNL     1      28.746   6.965  47.994  1.00  0.00     0.024 A 
HETATM   26  C16 UNL     1      27.491   7.491  48.221  1.00  0.00     0.036 A 
HETATM   27 CL1  UNL     1      27.322   9.201  47.937  1.00  0.00    -0.084 Cl
HETATM   28  C17 UNL     1      26.468   6.646  48.644  1.00  0.00     0.053 A 
ENDBRANCH  20  22
ENDBRANCH   5  20
TORSDOF 8
ENDMDL
MODEL 2
REMARK VINA RESULT:      -7.7      2.457      3.483
REMARK  8 active torsions:
REMARK  status: ('A' for Active; 'I' for Inactive)
REMARK    1  A    between atoms: O1_1  and  C1_2 
REMARK    2  A    between atoms: C1_2  and  C2_3 
REMARK    3  A    between atoms: C2_3  and  C3_4 
REMARK    4  A    between atoms: C3_4  and  N1_5 
REMARK    5  A    between atoms: N1_5  and  C4_6 
REMARK    6  A    between atoms: C7_10  and  C8_11 
REMARK    7  A    between atoms: C11_15  and  N4_16 
REMARK    8  A    between atoms: N4_16  and  C12_17 
ROOT
HETATM    1  C8  UNL     1      22.094   0.283  52.394  1.00  0.00     0.088 A 
HETATM    2  C9  UNL     1      20.736   0.138  52.254  1.00  0.00     0.148 A 
HETATM    3  N3  UNL     1      20.088   0.710  51.205  1.00  0.00    -0.267 NA
HETATM    4  C10 UNL     1      20.819   1.417  50.318  1.00  0.00     0.166 A 
HETATM    5  C11 UNL     1      22.177   1.596  50.408  1.00  0.00     0.146 A 
HETATM    6  N5  UNL     1      22.733   1.000  51.468  1.00  0.00    -0.228 NA
ENDROOT
BRANCH   1   7
HETATM    7  C7  UNL     1      22.878  -0.308  53.467  1.00  0.00     0.014 A 
HETATM    8  C6  UNL     1      22.338  -0.851  54.611  1.00  0.00     0.130 A 
HETATM    9  N2  UNL     1      23.049  -1.396  55.615  1.00  0.00    -0.270 NA
HETATM   10  C5  UNL     1      24.376  -1.422  55.510  1.00  0.00     0.145 A 
HETATM   11  C4  UNL     1      25.031  -0.908  54.411  1.00  0.00     0.046 A 
HETATM   12  C18 UNL     1      24.258  -0.359  53.407  1.00  0.00     0.046 A 
BRANCH  11  13
HETATM   13  N1  UNL     1      26.432  -0.939  54.314  1.00  0.00    -0.389 N 
HETATM   14  H8  UNL     1      27.006  -1.055  55.196  1.00  0.00     0.159 HD
BRANCH  13  15
HETATM   15  C3  UNL     1      27.106  -0.815  53.037  1.00  0.00     0.122 C 
BRANCH  15  16
HETATM   16  C2  UNL     1      28.594  -0.835  53.242  1.00  0.00     0.045 C 
BRANCH  16  17
HETATM   17  C1  UNL     1      29.177  -2.212  53.287  1.00  0.00     0.165 C 
BRANCH  17  18
HETATM   18  O1  UNL     1      28.287  -3.216  52.927  1.00  0.00    -0.401 OA
HETATM   19  H1  UNL     1      27.367  -2.881  53.027  1.00  0.00     0.209 HD
ENDBRANCH  17  18
ENDBRANCH  16  17
ENDBRANCH  15  16
ENDBRANCH  13  15
ENDBRANCH  11  13
ENDBRANCH   1   7
BRANCH   5  20
HETATM   20  N4  UNL     1      23.018   2.329  49.546  1.00  0.00    -0.340 N 
HETATM   21  H13 UNL     1      23.104   1.998  48.550  1.00  0.00     0.167 HD
BRANCH  20  22
HETATM   22  C12 UNL     1      23.820   3.475  49.719  1.00  0.00     0.035 A 
HETATM   23  C13 UNL     1      23.362   4.616  50.388  1.00  0.00     0.029 A 
HETATM   24  C14 UNL     1      24.158   5.729  50.525  1.00  0.00     0.004 A 
HETATM   25  C15 UNL     1      25.439   5.795  50.024  1.00  0.00     0.024 A 
HETATM   26  C16 UNL     1      25.921   4.686  49.359  1.00  0.00     0.036 A 
HETATM   27 CL1  UNL     1      27.548   4.812  48.752  1.00  0.00    -0.084 Cl
HETATM   28  C17 UNL     1      25.103   3.566  49.226  1.00  0.00     0.053 A 
ENDBRANCH  20  22
ENDBRANCH   5  20
TORSDOF 8
ENDMDL
MODEL 3
REMARK VINA RESULT:      -7.6      2.131      2.851
REMARK  8 active torsions:
REMARK  status: ('A' for Active; 'I' for Inactive)
REMARK    1  A    between atoms: O1_1  and  C1_2 
REMARK    2  A    between atoms: C1_2  and  C2_3 
REMARK    3  A    between atoms: C2_3  and  C3_4 
REMARK    4  A    between atoms: C3_4  and  N1_5 
REMARK    5  A    between atoms: N1_5  and  C4_6 
REMARK    6  A    between atoms: C7_10  and  C8_11 
REMARK    7  A    between atoms: C11_15  and  N4_16 
REMARK    8  A    between atoms: N4_16  and  C12_17 
ROOT
HETATM    1  C8  UNL     1      22.297   0.644  52.300  1.00  0.00     0.088 A 
HETATM    2  C9  UNL     1      21.222   0.202  51.570  1.00  0.00     0.148 A 
HETATM    3  N3  UNL     1      20.763   0.926  50.515  1.00  0.00    -0.267 NA
HETATM    4  C10 UNL     1      21.396   2.081  50.217  1.00  0.00     0.166 A 
HETATM    5  C11 UNL     1      22.473   2.571  50.912  1.00  0.00     0.146 A 
HETATM    6  N5  UNL     1      22.857   1.796  51.932  1.00  0.00    -0.228 NA
ENDROOT
BRANCH   1   7
HETATM    7  C7  UNL     1      22.872  -0.070  53.430  1.00  0.00     0.014 A 
HETATM    8  C6  UNL     1      22.138  -0.794  54.343  1.00  0.00     0.130 A 
HETATM    9  N2  UNL     1      22.654  -1.455  55.395  1.00  0.00    -0.270 NA
HETATM   10  C5  UNL     1      23.972  -1.418  55.582  1.00  0.00     0.145 A 
HETATM   11  C4  UNL     1      24.810  -0.725  54.734  1.00  0.00     0.046 A 
HETATM   12  C18 UNL     1      24.233  -0.063  53.669  1.00  0.00     0.046 A 
BRANCH  11  13
HETATM   13  N1  UNL     1      26.199  -0.692  54.945  1.00  0.00    -0.389 N 
HETATM   14  H8  UNL     1      26.642  -1.426  55.564  1.00  0.00     0.159 HD
BRANCH  13  15
HETATM   15  C3  UNL     1      27.033   0.325  54.334  1.00  0.00     0.122 C 
BRANCH  15  16
HETATM   16  C2  UNL     1      28.473   0.079  54.685  1.00  0.00     0.045 C 
BRANCH  16  17
HETATM   17  C1  UNL     1      29.176  -0.838  53.734  1.00  0.00     0.165 C 
BRANCH  17  18
HETATM   18  O1  UNL     1      28.461  -1.987  53.423  1.00  0.00    -0.401 OA
HETATM   19  H1  UNL     1      28.708  -2.700  54.054  1.00  0.00     0.209 HD
ENDBRANCH  17  18
ENDBRANCH  16  17
ENDBRANCH  15  16
ENDBRANCH  13  15
ENDBRANCH  11  13
ENDBRANCH   1   7
BRANCH   5  20
HETATM   20  N4  UNL     1      23.181   3.769  50.689  1.00  0.00    -0.340 N 
HETATM   21  H13 UNL     1      22.734   4.667  51.006  1.00  0.00     0.167 HD
BRANCH  20  22
HETATM   22  C12 UNL     1      24.430   4.062  50.102  1.00  0.00     0.035 A 
HETATM   23  C13 UNL     1      25.494   3.153  50.113  1.00  0.00     0.029 A 
HETATM   24  C14 UNL     1      26.708   3.471  49.552  1.00  0.00     0.004 A 
HETATM   25  C15 UNL     1      26.955   4.685  48.950  1.00  0.00     0.024 A 
HETATM   26  C16 UNL     1      25.926   5.604  48.923  1.00  0.00     0.036 A 
HETATM   27 CL1  UNL     1      26.283   7.120  48.144  1.00  0.00    -0.084 Cl
HETATM   28  C17 UNL     1      24.702   5.269  49.498  1.00  0.00     0.053 A 
ENDBRANCH  20  22
ENDBRANCH   5  20
TORSDOF 8
ENDMDL
MODEL 4
REMARK VINA RESULT:      -7.6      4.490      5.985
REMARK  8 active torsions:
REMARK  status: ('A' for Active; 'I' for Inactive)
REMARK    1  A    between atoms: O1_1  and  C1_2 
REMARK    2  A    between atoms: C1_2  and  C2_3 
REMARK    3  A    between atoms: C2_3  and  C3_4 
REMARK    4  A    between atoms: C3_4  and  N1_5 
REMARK    5  A    between atoms: N1_5  and  C4_6 
REMARK    6  A    between atoms: C7_10  and  C8_11 
REMARK    7  A    between atoms: C11_15  and  N4_16 
REMARK    8  A    between atoms: N4_16  and  C12_17 
ROOT
HETATM    1  C8  UNL     1      22.969  -0.319  53.664  1.00  0.00     0.088 A 
HETATM    2  C9  UNL     1      22.613  -1.170  54.681  1.00  0.00     0.148 A 
HETATM    3  N3  UNL     1      21.326  -1.591  54.805  1.00  0.00    -0.267 NA
HETATM    4  C10 UNL     1      20.424  -1.147  53.905  1.00  0.00     0.166 A 
HETATM    5  C11 UNL     1      20.723  -0.296  52.870  1.00  0.00     0.146 A 
HETATM    6  N5  UNL     1      22.009   0.067  52.822  1.00  0.00    -0.228 NA
ENDROOT
BRANCH   1   7
HETATM    7  C7  UNL     1      24.320   0.168  53.436  1.00  0.00     0.014 A 
HETATM    8  C6  UNL     1      24.643   1.168  52.546  1.00  0.00     0.130 A 
HETATM    9  N2  UNL     1      25.887   1.626  52.320  1.00  0.00    -0.270 NA
HETATM   10  C5  UNL     1      26.896   1.083  53.001  1.00  0.00     0.145 A 
HETATM   11  C4  UNL     1      26.696   0.074  53.919  1.00  0.00     0.046 A 
HETATM   12  C18 UNL     1      25.401  -0.362  54.116  1.00  0.00     0.046 A 
BRANCH  11  13
HETATM   13  N1  UNL     1      27.769  -0.492  54.628  1.00  0.00    -0.389 N 
HETATM   14  H8  UNL     1      27.566  -1.186  55.400  1.00  0.00     0.159 HD
BRANCH  13  15
HETATM   15  C3  UNL     1      29.144  -0.144  54.324  1.00  0.00     0.122 C 
BRANCH  15  16
HETATM   16  C2  UNL     1      29.877  -1.356  53.824  1.00  0.00     0.045 C 
BRANCH  16  17
HETATM   17  C1  UNL     1      29.054  -2.230  52.929  1.00  0.00     0.165 C 
BRANCH  17  18
HETATM   18  O1  UNL     1      28.685  -3.440  53.503  1.00  0.00    -0.401 OA
HETATM   19  H1  UNL     1      28.434  -4.070  52.791  1.00  0.00     0.209 HD
ENDBRANCH  17  18
ENDBRANCH  16  17
ENDBRANCH  15  16
ENDBRANCH  13  15
ENDBRANCH  11  13
ENDBRANCH   1   7
BRANCH   5  20
HETATM   20  N4  UNL     1      19.851   0.234  51.899  1.00  0.00    -0.340 N 
HETATM   21  H13 UNL     1      18.816   0.151  52.074  1.00  0.00     0.167 HD
BRANCH  20  22
HETATM   22  C12 UNL     1      20.055   0.891  50.668  1.00  0.00     0.035 A 
HETATM   23  C13 UNL     1      21.184   0.661  49.874  1.00  0.00     0.029 A 
HETATM   24  C14 UNL     1      21.370   1.331  48.687  1.00  0.00     0.004 A 
HETATM   25  C15 UNL     1      20.470   2.256  48.206  1.00  0.00     0.024 A 
HETATM   26  C16 UNL     1      19.345   2.505  48.965  1.00  0.00     0.036 A 
HETATM   27 CL1  UNL     1      18.233   3.675  48.311  1.00  0.00    -0.084 Cl
HETATM   28  C17 UNL     1      19.172   1.822  50.167  1.00  0.00     0.053 A 
ENDBRANCH  20  22
ENDBRANCH   5  20
TORSDOF 8
ENDMDL
MODEL 5
REMARK VINA RESULT:      -7.5      3.509      5.784
REMARK  8 active torsions:
REMARK  status: ('A' for Active; 'I' for Inactive)
REMARK    1  A    between atoms: O1_1  and  C1_2 
REMARK    2  A    between atoms: C1_2  and  C2_3 
REMARK    3  A    between atoms: C2_3  and  C3_4 
REMARK    4  A    between atoms: C3_4  and  N1_5 
REMARK    5  A    between atoms: N1_5  and  C4_6 
REMARK    6  A    between atoms: C7_10  and  C8_11 
REMARK    7  A    between atoms: C11_15  and  N4_16 
REMARK    8  A    between atoms: N4_16  and  C12_17 
ROOT
HETATM    1  C8  UNL     1      25.257   0.254  53.793  1.00  0.00     0.088 A 
HETATM    2  C9  UNL     1      26.267   0.286  54.722  1.00  0.00     0.148 A 
HETATM    3  N3  UNL     1      27.457   0.872  54.423  1.00  0.00    -0.267 NA
HETATM    4  C10 UNL     1      27.606   1.412  53.195  1.00  0.00     0.166 A 
HETATM    5  C11 UNL     1      26.633   1.407  52.228  1.00  0.00     0.146 A 
HETATM    6  N5  UNL     1      25.496   0.813  52.606  1.00  0.00    -0.228 NA
ENDROOT
BRANCH   1   7
HETATM    7  C7  UNL     1      23.945  -0.329  54.026  1.00  0.00     0.014 A 
HETATM    8  C6  UNL     1      23.625  -1.104  55.119  1.00  0.00     0.130 A 
HETATM    9  N2  UNL     1      22.418  -1.655  55.346  1.00  0.00    -0.270 NA
HETATM   10  C5  UNL     1      21.448  -1.444  54.458  1.00  0.00     0.145 A 
HETATM   11  C4  UNL     1      21.650  -0.685  53.324  1.00  0.00     0.046 A 
HETATM   12  C18 UNL     1      22.905  -0.141  53.135  1.00  0.00     0.046 A 
BRANCH  11  13
HETATM   13  N1  UNL     1      20.618  -0.473  52.394  1.00  0.00    -0.389 N 
HETATM   14  H8  UNL     1      20.675  -0.942  51.448  1.00  0.00     0.159 HD
BRANCH  13  15
HETATM   15  C3  UNL     1      19.482   0.373  52.703  1.00  0.00     0.122 C 
BRANCH  15  16
HETATM   16  C2  UNL     1      18.254  -0.151  52.016  1.00  0.00     0.045 C 
BRANCH  16  17
HETATM   17  C1  UNL     1      17.598  -1.286  52.738  1.00  0.00     0.165 C 
BRANCH  17  18
HETATM   18  O1  UNL     1      17.817  -1.286  54.110  1.00  0.00    -0.401 OA
HETATM   19  H1  UNL     1      18.510  -0.621  54.325  1.00  0.00     0.209 HD
ENDBRANCH  17  18
ENDBRANCH  16  17
ENDBRANCH  15  16
ENDBRANCH  13  15
ENDBRANCH  11  13
ENDBRANCH   1   7
BRANCH   5  20
HETATM   20  N4  UNL     1      26.703   1.926  50.919  1.00  0.00    -0.340 N 
HETATM   21  H13 UNL     1      27.300   1.410  50.221  1.00  0.00     0.167 HD
BRANCH  20  22
HETATM   22  C12 UNL     1      26.123   3.044  50.287  1.00  0.00     0.035 A 
HETATM   23  C13 UNL     1      24.737   3.229  50.214  1.00  0.00     0.029 A 
HETATM   24  C14 UNL     1      24.196   4.318  49.573  1.00  0.00     0.004 A 
HETATM   25  C15 UNL     1      24.968   5.287  48.972  1.00  0.00     0.024 A 
HETATM   26  C16 UNL     1      26.338   5.135  49.026  1.00  0.00     0.036 A 
HETATM   27 CL1  UNL     1      27.272   6.390  48.260  1.00  0.00    -0.084 Cl
HETATM   28  C17 UNL     1      26.872   4.025  49.676  1.00  0.00     0.053 A 
ENDBRANCH  20  22
ENDBRANCH   5  20
TORSDOF 8
ENDMDL
MODEL 6
REMARK VINA RESULT:      -7.5      3.541      6.972
REMARK  8 active torsions:
REMARK  status: ('A' for Active; 'I' for Inactive)
REMARK    1  A    between atoms: O1_1  and  C1_2 
REMARK    2  A    between atoms: C1_2  and  C2_3 
REMARK    3  A    between atoms: C2_3  and  C3_4 
REMARK    4  A    between atoms: C3_4  and  N1_5 
REMARK    5  A    between atoms: N1_5  and  C4_6 
REMARK    6  A    between atoms: C7_10  and  C8_11 
REMARK    7  A    between atoms: C11_15  and  N4_16 
REMARK    8  A    between atoms: N4_16  and  C12_17 
ROOT
HETATM    1  C8  UNL     1      22.333  -0.101  52.981  1.00  0.00     0.088 A 
HETATM    2  C9  UNL     1      21.365  -0.626  53.800  1.00  0.00     0.148 A 
HETATM    3  N3  UNL     1      21.706  -1.223  54.972  1.00  0.00    -0.267 NA
HETATM    4  C10 UNL     1      23.015  -1.280  55.297  1.00  0.00     0.166 A 
HETATM    5  C11 UNL     1      24.024  -0.773  54.518  1.00  0.00     0.146 A 
HETATM    6  N5  UNL     1      23.601  -0.204  53.384  1.00  0.00    -0.228 NA
ENDROOT
BRANCH   1   7
HETATM    7  C7  UNL     1      22.066   0.574  51.720  1.00  0.00     0.014 A 
HETATM    8  C6  UNL     1      20.921   0.399  50.976  1.00  0.00     0.130 A 
HETATM    9  N2  UNL     1      20.661   1.012  49.807  1.00  0.00    -0.270 NA
HETATM   10  C5  UNL     1      21.569   1.855  49.318  1.00  0.00     0.145 A 
HETATM   11  C4  UNL     1      22.755   2.110  49.973  1.00  0.00     0.046 A 
HETATM   12  C18 UNL     1      22.976   1.457  51.170  1.00  0.00     0.046 A 
BRANCH  11  13
HETATM   13  N1  UNL     1      23.705   3.000  49.444  1.00  0.00    -0.389 N 
HETATM   14  H8  UNL     1      24.505   2.615  48.868  1.00  0.00     0.159 HD
BRANCH  13  15
HETATM   15  C3  UNL     1      23.614   4.429  49.672  1.00  0.00     0.122 C 
BRANCH  15  16
HETATM   16  C2  UNL     1      24.949   5.070  49.424  1.00  0.00     0.045 C 
BRANCH  16  17
HETATM   17  C1  UNL     1      26.098   4.114  49.490  1.00  0.00     0.165 C 
BRANCH  17  18
HETATM   18  O1  UNL     1      26.482   3.779  50.783  1.00  0.00    -0.401 OA
HETATM   19  H1  UNL     1      27.376   3.370  50.756  1.00  0.00     0.209 HD
ENDBRANCH  17  18
ENDBRANCH  16  17
ENDBRANCH  15  16
ENDBRANCH  13  15
ENDBRANCH  11  13
ENDBRANCH   1   7
BRANCH   5  20
HETATM   20  N4  UNL     1      25.412  -0.802  54.763  1.00  0.00    -0.340 N 
HETATM   21  H13 UNL     1      25.782  -1.566  55.386  1.00  0.00     0.167 HD
BRANCH  20  22
HETATM   22  C12 UNL     1      26.489   0.004  54.340  1.00  0.00     0.035 A 
HETATM   23  C13 UNL     1      26.346   1.374  54.092  1.00  0.00     0.029 A 
HETATM   24  C14 UNL     1      27.407   2.135  53.660  1.00  0.00     0.004 A 
HETATM   25  C15 UNL     1      28.662   1.609  53.448  1.00  0.00     0.024 A 
HETATM   26  C16 UNL     1      28.836   0.261  53.682  1.00  0.00     0.036 A 
HETATM   27 CL1  UNL     1      30.441  -0.356  53.409  1.00  0.00    -0.084 Cl
HETATM   28  C17 UNL     1      27.751  -0.498  54.117  1.00  0.00     0.053 A 
ENDBRANCH  20  22
ENDBRANCH   5  20
TORSDOF 8
ENDMDL
MODEL 7
REMARK VINA RESULT:      -7.4      4.109      7.370
REMARK  8 active torsions:
REMARK  status: ('A' for Active; 'I' for Inactive)
REMARK    1  A    between atoms: O1_1  and  C1_2 
REMARK    2  A    between atoms: C1_2  and  C2_3 
REMARK    3  A    between atoms: C2_3  and  C3_4 
REMARK    4  A    between atoms: C3_4  and  N1_5 
REMARK    5  A    between atoms: N1_5  and  C4_6 
REMARK    6  A    between atoms: C7_10  and  C8_11 
REMARK    7  A    between atoms: C11_15  and  N4_16 
REMARK    8  A    between atoms: N4_16  and  C12_17 
ROOT
HETATM    1  C8  UNL     1      21.560   0.845  53.392  1.00  0.00     0.088 A 
HETATM    2  C9  UNL     1      20.947   0.143  54.400  1.00  0.00     0.148 A 
HETATM    3  N3  UNL     1      21.613  -0.848  55.051  1.00  0.00    -0.267 NA
HETATM    4  C10 UNL     1      22.881  -1.113  54.674  1.00  0.00     0.166 A 
HETATM    5  C11 UNL     1      23.542  -0.444  53.674  1.00  0.00     0.146 A 
HETATM    6  N5  UNL     1      22.815   0.513  53.088  1.00  0.00    -0.228 NA
ENDROOT
BRANCH   1   7
HETATM    7  C7  UNL     1      20.939   1.934  52.654  1.00  0.00     0.014 A 
HETATM    8  C6  UNL     1      19.632   1.928  52.220  1.00  0.00     0.130 A 
HETATM    9  N2  UNL     1      19.045   2.924  51.532  1.00  0.00    -0.270 NA
HETATM   10  C5  UNL     1      19.768   4.005  51.241  1.00  0.00     0.145 A 
HETATM   11  C4  UNL     1      21.088   4.124  51.622  1.00  0.00     0.046 A 
HETATM   12  C18 UNL     1      21.645   3.076  52.326  1.00  0.00     0.046 A 
BRANCH  11  13
HETATM   13  N1  UNL     1      21.839   5.269  51.305  1.00  0.00    -0.389 N 
HETATM   14  H8  UNL     1      21.877   6.066  51.999  1.00  0.00     0.159 HD
BRANCH  13  15
HETATM   15  C3  UNL     1      22.560   5.379  50.052  1.00  0.00     0.122 C 
BRANCH  15  16
HETATM   16  C2  UNL     1      24.036   5.443  50.318  1.00  0.00     0.045 C 
BRANCH  16  17
HETATM   17  C1  UNL     1      24.481   6.731  50.938  1.00  0.00     0.165 C 
BRANCH  17  18
HETATM   18  O1  UNL     1      24.351   6.768  52.320  1.00  0.00    -0.401 OA
HETATM   19  H1  UNL     1      25.230   6.601  52.730  1.00  0.00     0.209 HD
ENDBRANCH  17  18
ENDBRANCH  16  17
ENDBRANCH  15  16
ENDBRANCH  13  15
ENDBRANCH  11  13
ENDBRANCH   1   7
BRANCH   5  20
HETATM   20  N4  UNL     1      24.852  -0.662  53.200  1.00  0.00    -0.340 N 
HETATM   21  H13 UNL     1      25.024  -1.522  52.616  1.00  0.00     0.167 HD
BRANCH  20  22
HETATM   22  C12 UNL     1      26.062   0.049  53.334  1.00  0.00     0.035 A 
HETATM   23  C13 UNL     1      26.105   1.445  53.422  1.00  0.00     0.029 A 
HETATM   24  C14 UNL     1      27.300   2.116  53.531  1.00  0.00     0.004 A 
HETATM   25  C15 UNL     1      28.516   1.470  53.562  1.00  0.00     0.024 A 
HETATM   26  C16 UNL     1      28.508   0.093  53.477  1.00  0.00     0.036 A 
HETATM   27 CL1  UNL     1      30.069  -0.679  53.531  1.00  0.00    -0.084 Cl
HETATM   28  C17 UNL     1      27.290  -0.573  53.365  1.00  0.00     0.053 A 
ENDBRANCH  20  22
ENDBRANCH   5  20
TORSDOF 8
ENDMDL
MODEL 8
REMARK VINA RESULT:      -7.3      3.086      6.924
REMARK  8 active torsions:
REMARK  status: ('A' for Active; 'I' for Inactive)
REMARK    1  A    between atoms: O1_1  and  C1_2 
REMARK    2  A    between atoms: C1_2  and  C2_3 
REMARK    3  A    between atoms: C2_3  and  C3_4 
REMARK    4  A    between atoms: C3_4  and  N1_5 
REMARK    5  A    between atoms: N1_5  and  C4_6 
REMARK    6  A    between atoms: C7_10  and  C8_11 
REMARK    7  A    between atoms: C11_15  and  N4_16 
REMARK    8  A    between atoms: N4_16  and  C12_17 
ROOT
HETATM    1  C8  UNL     1      22.195   1.874  52.338  1.00  0.00     0.088 A 
HETATM    2  C9  UNL     1      21.141   1.043  52.053  1.00  0.00     0.148 A 
HETATM    3  N3  UNL     1      21.143  -0.244  52.491  1.00  0.00    -0.267 NA
HETATM    4  C10 UNL     1      22.206  -0.668  53.207  1.00  0.00     0.166 A 
HETATM    5  C11 UNL     1      23.285   0.118  53.521  1.00  0.00     0.146 A 
HETATM    6  N5  UNL     1      23.201   1.368  53.052  1.00  0.00    -0.228 NA
ENDROOT
BRANCH   1   7
HETATM    7  C7  UNL     1      22.274   3.269  51.933  1.00  0.00     0.014 A 
HETATM    8  C6  UNL     1      21.180   4.058  51.654  1.00  0.00     0.130 A 
HETATM    9  N2  UNL     1      21.236   5.347  51.273  1.00  0.00    -0.270 NA
HETATM   10  C5  UNL     1      22.433   5.920  51.152  1.00  0.00     0.145 A 
HETATM   11  C4  UNL     1      23.600   5.230  51.404  1.00  0.00     0.046 A 
HETATM   12  C18 UNL     1      23.491   3.910  51.792  1.00  0.00     0.046 A 
BRANCH  11  13
HETATM   13  N1  UNL     1      24.856   5.847  51.270  1.00  0.00    -0.389 N 
HETATM   14  H8  UNL     1      25.400   6.099  52.141  1.00  0.00     0.159 HD
BRANCH  13  15
HETATM   15  C3  UNL     1      25.419   6.143  49.967  1.00  0.00     0.122 C 
BRANCH  15  16
HETATM   16  C2  UNL     1      25.488   4.888  49.144  1.00  0.00     0.045 C 
BRANCH  16  17
HETATM   17  C1  UNL     1      26.770   4.133  49.307  1.00  0.00     0.165 C 
BRANCH  17  18
HETATM   18  O1  UNL     1      27.031   3.735  50.612  1.00  0.00    -0.401 OA
HETATM   19  H1  UNL     1      26.519   2.917  50.807  1.00  0.00     0.209 HD
ENDBRANCH  17  18
ENDBRANCH  16  17
ENDBRANCH  15  16
ENDBRANCH  13  15
ENDBRANCH  11  13
ENDBRANCH   1   7
BRANCH   5  20
HETATM   20  N4  UNL     1      24.443  -0.239  54.242  1.00  0.00    -0.340 N 
HETATM   21  H13 UNL     1      24.326  -0.503  55.255  1.00  0.00     0.167 HD
BRANCH  20  22
HETATM   22  C12 UNL     1      25.808  -0.332  53.901  1.00  0.00     0.035 A 
HETATM   23  C13 UNL     1      26.308  -1.352  53.083  1.00  0.00     0.029 A 
HETATM   24  C14 UNL     1      27.647  -1.432  52.782  1.00  0.00     0.004 A 
HETATM   25  C15 UNL     1      28.572  -0.526  53.255  1.00  0.00     0.024 A 
HETATM   26  C16 UNL     1      28.111   0.492  54.063  1.00  0.00     0.036 A 
HETATM   27 CL1  UNL     1      29.315   1.616  54.628  1.00  0.00    -0.084 Cl
HETATM   28  C17 UNL     1      26.752   0.559  54.362  1.00  0.00     0.053 A 
ENDBRANCH  20  22
ENDBRANCH   5  20
TORSDOF 8
ENDMDL
MODEL 9
REMARK VINA RESULT:      -7.2      4.718      7.275
REMARK  8 active torsions:
REMARK  status: ('A' for Active; 'I' for Inactive)
REMARK    1  A    between atoms: O1_1  and  C1_2 
REMARK    2  A    between atoms: C1_2  and  C2_3 
REMARK    3  A    between atoms: C2_3  and  C3_4 
REMARK    4  A    between atoms: C3_4  and  N1_5 
REMARK    5  A    between atoms: N1_5  and  C4_6 
REMARK    6  A    between atoms: C7_10  and  C8_11 
REMARK    7  A    between atoms: C11_15  and  N4_16 
REMARK    8  A    between atoms: N4_16  and  C12_17 
ROOT
HETATM    1  C8  UNL     1      22.872  -0.106  53.361  1.00  0.00     0.088 A 
HETATM    2  C9  UNL     1      22.428  -0.846  54.428  1.00  0.00     0.148 A 
HETATM    3  N3  UNL     1      21.113  -1.175  54.535  1.00  0.00    -0.267 NA
HETATM    4  C10 UNL     1      20.273  -0.753  53.567  1.00  0.00     0.166 A 
HETATM    5  C11 UNL     1      20.662  -0.012  52.480  1.00  0.00     0.146 A 
HETATM    6  N5  UNL     1      21.969   0.267  52.453  1.00  0.00    -0.228 NA
ENDROOT
BRANCH   1   7
HETATM    7  C7  UNL     1      24.259   0.278  53.147  1.00  0.00     0.014 A 
HETATM    8  C6  UNL     1      24.670   1.218  52.228  1.00  0.00     0.130 A 
HETATM    9  N2  UNL     1      25.948   1.579  52.016  1.00  0.00    -0.270 NA
HETATM   10  C5  UNL     1      26.901   0.995  52.740  1.00  0.00     0.145 A 
HETATM   11  C4  UNL     1      26.612   0.039  53.691  1.00  0.00     0.046 A 
HETATM   12  C18 UNL     1      25.286  -0.299  53.872  1.00  0.00     0.046 A 
BRANCH  11  13
HETATM   13  N1  UNL     1      27.627  -0.572  54.446  1.00  0.00    -0.389 N 
HETATM   14  H8  UNL     1      27.368  -1.331  55.136  1.00  0.00     0.159 HD
BRANCH  13  15
HETATM   15  C3  UNL     1      29.017  -0.183  54.301  1.00  0.00     0.122 C 
BRANCH  15  16
HETATM   16  C2  UNL     1      29.819  -1.345  53.789  1.00  0.00     0.045 C 
BRANCH  16  17
HETATM   17  C1  UNL     1      29.040  -2.275  52.912  1.00  0.00     0.165 C 
BRANCH  17  18
HETATM   18  O1  UNL     1      28.710  -3.480  53.518  1.00  0.00    -0.401 OA
HETATM   19  H1  UNL     1      28.936  -4.219  52.908  1.00  0.00     0.209 HD
ENDBRANCH  17  18
ENDBRANCH  16  17
ENDBRANCH  15  16
ENDBRANCH  13  15
ENDBRANCH  11  13
ENDBRANCH   1   7
BRANCH   5  20
HETATM   20  N4  UNL     1      19.858   0.489  51.435  1.00  0.00    -0.340 N 
HETATM   21  H13 UNL     1      20.301   0.592  50.485  1.00  0.00     0.167 HD
BRANCH  20  22
HETATM   22  C12 UNL     1      18.514   0.909  51.361  1.00  0.00     0.035 A 
HETATM   23  C13 UNL     1      17.462   0.016  51.128  1.00  0.00     0.029 A 
HETATM   24  C14 UNL     1      16.162   0.454  51.040  1.00  0.00     0.004 A 
HETATM   25  C15 UNL     1      15.813   1.780  51.175  1.00  0.00     0.024 A 
HETATM   26  C16 UNL     1      16.827   2.686  51.406  1.00  0.00     0.036 A 
HETATM   27 CL1  UNL     1      16.335   4.347  51.580  1.00  0.00    -0.084 Cl
HETATM   28  C17 UNL     1      18.140   2.228  51.490  1.00  0.00     0.053 A 
ENDBRANCH  20  22
ENDBRANCH   5  20
TORSDOF 8
ENDMDL
