MODEL 1
REMARK VINA RESULT:      -9.5      0.000      0.000
REMARK  4 active torsions:
REMARK  status: ('A' for Active; 'I' for Inactive)
REMARK    1  A    between atoms: C5_5  and  C6_6 
REMARK    2  A    between atoms: N2_8  and  S1_9 
REMARK    3  A    between atoms: C7_11  and  O1_12 
REMARK    4  A    between atoms: C9_15  and  C10_16 
ROOT
HETATM    1  C6  UNL     1      22.581   0.781  52.652  1.00  0.00     0.068 C 
HETATM    2  N1  UNL     1      23.550   0.850  53.477  1.00  0.00    -0.168 NA
HETATM    3  N2  UNL     1      24.664   1.536  53.001  1.00  0.00    -0.214 N 
HETATM    4  C9  UNL     1      23.998   2.478  52.119  1.00  0.00     0.158 C 
HETATM    5  C17 UNL     1      23.056   1.512  51.420  1.00  0.00     0.095 C 
ENDROOT
BRANCH   1   6
HETATM    6  C5  UNL     1      21.257   0.149  52.788  1.00  0.00    -0.010 A 
HETATM    7  C4  UNL     1      21.035  -0.794  53.772  1.00  0.00     0.014 A 
HETATM    8  C3  UNL     1      19.754  -1.330  53.816  1.00  0.00     0.007 A 
HETATM    9  C2  UNL     1      18.772  -0.932  52.922  1.00  0.00    -0.062 A 
HETATM   10  C1  UNL     1      17.437  -1.554  53.041  1.00  0.00     0.048 C 
HETATM   11  C19 UNL     1      19.037   0.014  51.953  1.00  0.00     0.007 A 
HETATM   12  C18 UNL     1      20.296   0.561  51.887  1.00  0.00     0.014 A 
ENDBRANCH   1   6
BRANCH   3  13
HETATM   13  S1  UNL     1      26.257   1.346  53.331  1.00  0.00     0.086 SA
HETATM   14  N3  UNL     1      27.544   2.300  54.010  1.00  0.00    -0.170 NA
HETATM   15  C7  UNL     1      28.745   1.522  54.024  1.00  0.00     0.178 A 
HETATM   16  C8  UNL     1      29.022   0.305  53.641  1.00  0.00     0.117 A 
HETATM   17  S2  UNL     1      27.585  -0.484  52.985  1.00  0.00    -0.031 SA
BRANCH  15  18
HETATM   18  O1  UNL     1      29.653   2.448  54.597  1.00  0.00    -0.344 OA
HETATM   19  H6  UNL     1      29.556   3.445  54.490  1.00  0.00     0.219 HD
ENDBRANCH  15  18
ENDBRANCH   3  13
BRANCH   4  20
HETATM   20  C10 UNL     1      24.881   3.167  51.180  1.00  0.00    -0.032 A 
HETATM   21  C11 UNL     1      24.573   4.511  50.943  1.00  0.00     0.010 A 
HETATM   22  C12 UNL     1      25.325   5.274  50.082  1.00  0.00     0.007 A 
HETATM   23  C13 UNL     1      26.405   4.768  49.415  1.00  0.00    -0.062 A 
HETATM   24  C14 UNL     1      27.284   5.485  48.470  1.00  0.00     0.048 C 
HETATM   25  C15 UNL     1      26.720   3.448  49.637  1.00  0.00     0.007 A 
HETATM   26  C16 UNL     1      25.969   2.680  50.500  1.00  0.00     0.010 A 
ENDBRANCH   4  20
TORSDOF 4
ENDMDL
MODEL 2
REMARK VINA RESULT:      -9.1      2.455      4.305
REMARK  4 active torsions:
REMARK  status: ('A' for Active; 'I' for Inactive)
REMARK    1  A    between atoms: C5_5  and  C6_6 
REMARK    2  A    between atoms: N2_8  and  S1_9 
REMARK    3  A    between atoms: C7_11  and  O1_12 
REMARK    4  A    between atoms: C9_15  and  C10_16 
ROOT
HETATM    1  C6  UNL     1      21.945   0.906  51.751  1.00  0.00     0.068 C 
HETATM    2  N1  UNL     1      22.484   1.464  50.739  1.00  0.00    -0.168 NA
HETATM    3  N2  UNL     1      23.814   1.831  50.926  1.00  0.00    -0.214 N 
HETATM    4  C9  UNL     1      24.213   0.795  51.861  1.00  0.00     0.158 C 
HETATM    5  C17 UNL     1      23.024   0.866  52.804  1.00  0.00     0.095 C 
ENDROOT
BRANCH   1   6
HETATM    6  C5  UNL     1      20.578   0.387  51.936  1.00  0.00    -0.010 A 
HETATM    7  C4  UNL     1      19.617   0.597  50.967  1.00  0.00     0.014 A 
HETATM    8  C3  UNL     1      18.361   0.067  51.238  1.00  0.00     0.007 A 
HETATM    9  C2  UNL     1      18.106  -0.626  52.411  1.00  0.00    -0.062 A 
HETATM   10  C1  UNL     1      16.742  -1.155  52.617  1.00  0.00     0.048 C 
HETATM   11  C19 UNL     1      19.097  -0.813  53.353  1.00  0.00     0.007 A 
HETATM   12  C18 UNL     1      20.348  -0.300  53.112  1.00  0.00     0.014 A 
ENDBRANCH   1   6
BRANCH   3  13
HETATM   13  S1  UNL     1      24.681   3.065  50.286  1.00  0.00     0.086 SA
HETATM   14  N3  UNL     1      26.358   3.491  50.109  1.00  0.00    -0.170 NA
HETATM   15  C7  UNL     1      26.452   4.747  49.430  1.00  0.00     0.178 A 
HETATM   16  C8  UNL     1      25.559   5.571  48.954  1.00  0.00     0.117 A 
HETATM   17  S2  UNL     1      23.929   4.953  49.237  1.00  0.00    -0.031 SA
BRANCH  15  18
HETATM   18  O1  UNL     1      27.859   4.917  49.383  1.00  0.00    -0.344 OA
HETATM   19  H6  UNL     1      28.502   4.261  49.795  1.00  0.00     0.219 HD
ENDBRANCH  15  18
ENDBRANCH   3  13
BRANCH   4  20
HETATM   20  C10 UNL     1      25.479   1.045  52.547  1.00  0.00    -0.032 A 
HETATM   21  C11 UNL     1      26.523   0.173  52.215  1.00  0.00     0.010 A 
HETATM   22  C12 UNL     1      27.765   0.298  52.788  1.00  0.00     0.007 A 
HETATM   23  C13 UNL     1      28.051   1.271  53.704  1.00  0.00    -0.062 A 
HETATM   24  C14 UNL     1      29.340   1.504  54.384  1.00  0.00     0.048 C 
HETATM   25  C15 UNL     1      27.036   2.136  54.040  1.00  0.00     0.007 A 
HETATM   26  C16 UNL     1      25.788   2.013  53.468  1.00  0.00     0.010 A 
ENDBRANCH   4  20
TORSDOF 4
ENDMDL
MODEL 3
REMARK VINA RESULT:      -8.9      2.372      7.762
REMARK  4 active torsions:
REMARK  status: ('A' for Active; 'I' for Inactive)
REMARK    1  A    between atoms: C5_5  and  C6_6 
REMARK    2  A    between atoms: N2_8  and  S1_9 
REMARK    3  A    between atoms: C7_11  and  O1_12 
REMARK    4  A    between atoms: C9_15  and  C10_16 
ROOT
HETATM    1  C6  UNL     1      26.651   4.796  49.323  1.00  0.00     0.068 C 
HETATM    2  N1  UNL     1      27.175   3.725  49.776  1.00  0.00    -0.168 NA
HETATM    3  N2  UNL     1      26.309   2.932  50.523  1.00  0.00    -0.214 N 
HETATM    4  C9  UNL     1      25.061   3.261  49.860  1.00  0.00     0.158 C 
HETATM    5  C17 UNL     1      25.222   4.772  49.805  1.00  0.00     0.095 C 
ENDROOT
BRANCH   1   6
HETATM    6  C5  UNL     1      27.237   5.871  48.504  1.00  0.00    -0.010 A 
HETATM    7  C4  UNL     1      26.448   6.912  48.056  1.00  0.00     0.014 A 
HETATM    8  C3  UNL     1      27.096   7.874  47.291  1.00  0.00     0.007 A 
HETATM    9  C2  UNL     1      28.449   7.780  47.006  1.00  0.00    -0.062 A 
HETATM   10  C1  UNL     1      29.058   8.849  46.185  1.00  0.00     0.048 C 
HETATM   11  C19 UNL     1      29.201   6.722  47.474  1.00  0.00     0.007 A 
HETATM   12  C18 UNL     1      28.587   5.756  48.233  1.00  0.00     0.014 A 
ENDBRANCH   1   6
BRANCH   3  13
HETATM   13  S1  UNL     1      26.602   1.921  51.779  1.00  0.00     0.086 SA
HETATM   14  N3  UNL     1      25.965   0.420  52.386  1.00  0.00    -0.170 NA
HETATM   15  C7  UNL     1      26.686   0.050  53.565  1.00  0.00     0.178 A 
HETATM   16  C8  UNL     1      27.670   0.605  54.218  1.00  0.00     0.117 A 
HETATM   17  S2  UNL     1      28.164   2.111  53.438  1.00  0.00    -0.031 SA
BRANCH  15  18
HETATM   18  O1  UNL     1      26.038  -1.165  53.900  1.00  0.00    -0.344 OA
HETATM   19  H6  UNL     1      25.287  -1.217  54.570  1.00  0.00     0.219 HD
ENDBRANCH  15  18
ENDBRANCH   3  13
BRANCH   4  20
HETATM   20  C10 UNL     1      23.857   2.859  50.586  1.00  0.00    -0.032 A 
HETATM   21  C11 UNL     1      23.399   3.775  51.540  1.00  0.00     0.010 A 
HETATM   22  C12 UNL     1      22.278   3.519  52.292  1.00  0.00     0.007 A 
HETATM   23  C13 UNL     1      21.553   2.369  52.151  1.00  0.00    -0.062 A 
HETATM   24  C14 UNL     1      20.338   1.985  52.897  1.00  0.00     0.048 C 
HETATM   25  C15 UNL     1      21.990   1.460  51.217  1.00  0.00     0.007 A 
HETATM   26  C16 UNL     1      23.115   1.712  50.462  1.00  0.00     0.010 A 
ENDBRANCH   4  20
TORSDOF 4
ENDMDL
MODEL 4
REMARK VINA RESULT:      -8.8      2.716      6.946
REMARK  4 active torsions:
REMARK  status: ('A' for Active; 'I' for Inactive)
REMARK    1  A    between atoms: C5_5  and  C6_6 
REMARK    2  A    between atoms: N2_8  and  S1_9 
REMARK    3  A    between atoms: C7_11  and  O1_12 
REMARK    4  A    between atoms: C9_15  and  C10_16 
ROOT
HETATM    1  C6  UNL     1      25.000   3.452  50.723  1.00  0.00     0.068 C 
HETATM    2  N1  UNL     1      24.241   3.097  51.683  1.00  0.00    -0.168 NA
HETATM    3  N2  UNL     1      24.654   1.944  52.346  1.00  0.00    -0.214 N 
HETATM    4  C9  UNL     1      26.088   2.072  52.166  1.00  0.00     0.158 C 
HETATM    5  C17 UNL     1      26.103   2.423  50.687  1.00  0.00     0.095 C 
ENDROOT
BRANCH   1   6
HETATM    6  C5  UNL     1      24.898   4.597  49.801  1.00  0.00    -0.010 A 
HETATM    7  C4  UNL     1      23.671   4.970  49.289  1.00  0.00     0.014 A 
HETATM    8  C3  UNL     1      23.682   6.062  48.430  1.00  0.00     0.007 A 
HETATM    9  C2  UNL     1      24.859   6.724  48.117  1.00  0.00    -0.062 A 
HETATM   10  C1  UNL     1      24.779   7.876  47.194  1.00  0.00     0.048 C 
HETATM   11  C19 UNL     1      26.065   6.318  48.652  1.00  0.00     0.007 A 
HETATM   12  C18 UNL     1      26.083   5.241  49.505  1.00  0.00     0.014 A 
ENDBRANCH   1   6
BRANCH   3  13
HETATM   13  S1  UNL     1      23.786   0.782  53.109  1.00  0.00     0.086 SA
HETATM   14  N3  UNL     1      23.975  -0.252  54.495  1.00  0.00    -0.170 NA
HETATM   15  C7  UNL     1      22.811  -1.072  54.629  1.00  0.00     0.178 A 
HETATM   16  C8  UNL     1      21.708  -1.171  53.938  1.00  0.00     0.117 A 
HETATM   17  S2  UNL     1      21.718  -0.041  52.582  1.00  0.00    -0.031 SA
BRANCH  15  18
HETATM   18  O1  UNL     1      23.148  -1.823  55.782  1.00  0.00    -0.344 OA
HETATM   19  H6  UNL     1      23.804  -2.588  55.764  1.00  0.00     0.219 HD
ENDBRANCH  15  18
ENDBRANCH   3  13
BRANCH   4  20
HETATM   20  C10 UNL     1      26.852   0.860  52.455  1.00  0.00    -0.032 A 
HETATM   21  C11 UNL     1      28.002   1.046  53.230  1.00  0.00     0.010 A 
HETATM   22  C12 UNL     1      28.809  -0.012  53.573  1.00  0.00     0.007 A 
HETATM   23  C13 UNL     1      28.537  -1.293  53.182  1.00  0.00    -0.062 A 
HETATM   24  C14 UNL     1      29.324  -2.503  53.487  1.00  0.00     0.048 C 
HETATM   25  C15 UNL     1      27.410  -1.492  52.420  1.00  0.00     0.007 A 
HETATM   26  C16 UNL     1      26.598  -0.434  52.073  1.00  0.00     0.010 A 
ENDBRANCH   4  20
TORSDOF 4
ENDMDL
MODEL 5
REMARK VINA RESULT:      -8.7      3.440      6.265
REMARK  4 active torsions:
REMARK  status: ('A' for Active; 'I' for Inactive)
REMARK    1  A    between atoms: C5_5  and  C6_6 
REMARK    2  A    between atoms: N2_8  and  S1_9 
REMARK    3  A    between atoms: C7_11  and  O1_12 
REMARK    4  A    between atoms: C9_15  and  C10_16 
ROOT
HETATM    1  C6  UNL     1      23.201   2.850  49.992  1.00  0.00     0.068 C 
HETATM    2  N1  UNL     1      22.473   2.478  50.970  1.00  0.00    -0.168 NA
HETATM    3  N2  UNL     1      23.162   1.810  51.978  1.00  0.00    -0.214 N 
HETATM    4  C9  UNL     1      24.453   2.460  51.849  1.00  0.00     0.158 C 
HETATM    5  C17 UNL     1      24.595   2.390  50.337  1.00  0.00     0.095 C 
ENDROOT
BRANCH   1   6
HETATM    6  C5  UNL     1      22.842   3.572  48.758  1.00  0.00    -0.010 A 
HETATM    7  C4  UNL     1      23.078   4.929  48.654  1.00  0.00     0.014 A 
HETATM    8  C3  UNL     1      22.704   5.515  47.451  1.00  0.00     0.007 A 
HETATM    9  C2  UNL     1      22.132   4.771  46.430  1.00  0.00    -0.062 A 
HETATM   10  C1  UNL     1      21.765   5.476  45.184  1.00  0.00     0.048 C 
HETATM   11  C19 UNL     1      21.915   3.416  46.577  1.00  0.00     0.007 A 
HETATM   12  C18 UNL     1      22.275   2.810  47.756  1.00  0.00     0.014 A 
ENDBRANCH   1   6
BRANCH   3  13
HETATM   13  S1  UNL     1      22.671   0.636  53.010  1.00  0.00     0.086 SA
HETATM   14  N3  UNL     1      23.380  -0.348  54.257  1.00  0.00    -0.170 NA
HETATM   15  C7  UNL     1      22.376  -1.212  54.799  1.00  0.00     0.178 A 
HETATM   16  C8  UNL     1      21.109  -1.376  54.537  1.00  0.00     0.117 A 
HETATM   17  S2  UNL     1      20.592  -0.287  53.247  1.00  0.00    -0.031 SA
BRANCH  15  18
HETATM   18  O1  UNL     1      23.130  -1.913  55.773  1.00  0.00    -0.344 OA
HETATM   19  H6  UNL     1      23.612  -1.451  56.528  1.00  0.00     0.219 HD
ENDBRANCH  15  18
ENDBRANCH   3  13
BRANCH   4  20
HETATM   20  C10 UNL     1      25.551   1.784  52.539  1.00  0.00    -0.032 A 
HETATM   21  C11 UNL     1      26.119   0.707  51.850  1.00  0.00     0.010 A 
HETATM   22  C12 UNL     1      27.159  -0.013  52.387  1.00  0.00     0.007 A 
HETATM   23  C13 UNL     1      27.692   0.278  53.611  1.00  0.00    -0.062 A 
HETATM   24  C14 UNL     1      28.803  -0.419  54.288  1.00  0.00     0.048 C 
HETATM   25  C15 UNL     1      27.144   1.334  54.300  1.00  0.00     0.007 A 
HETATM   26  C16 UNL     1      26.101   2.059  53.766  1.00  0.00     0.010 A 
ENDBRANCH   4  20
TORSDOF 4
ENDMDL
MODEL 6
REMARK VINA RESULT:      -8.7      4.215      8.520
REMARK  4 active torsions:
REMARK  status: ('A' for Active; 'I' for Inactive)
REMARK    1  A    between atoms: C5_5  and  C6_6 
REMARK    2  A    between atoms: N2_8  and  S1_9 
REMARK    3  A    between atoms: C7_11  and  O1_12 
REMARK    4  A    between atoms: C9_15  and  C10_16 
ROOT
HETATM    1  C6  UNL     1      24.391   4.046  50.281  1.00  0.00     0.068 C 
HETATM    2  N1  UNL     1      23.200   4.472  50.439  1.00  0.00    -0.168 NA
HETATM    3  N2  UNL     1      22.364   3.600  51.129  1.00  0.00    -0.214 N 
HETATM    4  C9  UNL     1      23.347   2.964  51.987  1.00  0.00     0.158 C 
HETATM    5  C17 UNL     1      24.419   2.692  50.944  1.00  0.00     0.095 C 
ENDROOT
BRANCH   1   6
HETATM    6  C5  UNL     1      25.547   4.672  49.614  1.00  0.00    -0.010 A 
HETATM    7  C4  UNL     1      26.690   3.937  49.370  1.00  0.00     0.014 A 
HETATM    8  C3  UNL     1      27.722   4.619  48.736  1.00  0.00     0.007 A 
HETATM    9  C2  UNL     1      27.595   5.952  48.378  1.00  0.00    -0.062 A 
HETATM   10  C1  UNL     1      28.742   6.599  47.707  1.00  0.00     0.048 C 
HETATM   11  C19 UNL     1      26.433   6.649  48.640  1.00  0.00     0.007 A 
HETATM   12  C18 UNL     1      25.396   6.000  49.265  1.00  0.00     0.014 A 
ENDBRANCH   1   6
BRANCH   3  13
HETATM   13  S1  UNL     1      20.748   3.356  51.017  1.00  0.00     0.086 SA
HETATM   14  N3  UNL     1      19.319   3.835  51.887  1.00  0.00    -0.170 NA
HETATM   15  C7  UNL     1      18.171   3.265  51.251  1.00  0.00     0.178 A 
HETATM   16  C8  UNL     1      18.022   2.502  50.203  1.00  0.00     0.117 A 
HETATM   17  S2  UNL     1      19.586   2.135  49.471  1.00  0.00    -0.031 SA
BRANCH  15  18
HETATM   18  O1  UNL     1      17.136   3.758  52.084  1.00  0.00    -0.344 OA
HETATM   19  H6  UNL     1      16.934   3.370  52.992  1.00  0.00     0.219 HD
ENDBRANCH  15  18
ENDBRANCH   3  13
BRANCH   4  20
HETATM   20  C10 UNL     1      22.888   1.740  52.642  1.00  0.00    -0.032 A 
HETATM   21  C11 UNL     1      23.851   0.733  52.772  1.00  0.00     0.010 A 
HETATM   22  C12 UNL     1      23.551  -0.467  53.370  1.00  0.00     0.007 A 
HETATM   23  C13 UNL     1      22.307  -0.743  53.866  1.00  0.00    -0.062 A 
HETATM   24  C14 UNL     1      21.867  -1.988  54.525  1.00  0.00     0.048 C 
HETATM   25  C15 UNL     1      21.350   0.237  53.745  1.00  0.00     0.007 A 
HETATM   26  C16 UNL     1      21.648   1.442  53.146  1.00  0.00     0.010 A 
ENDBRANCH   4  20
TORSDOF 4
ENDMDL
MODEL 7
REMARK VINA RESULT:      -8.7      3.856      7.448
REMARK  4 active torsions:
REMARK  status: ('A' for Active; 'I' for Inactive)
REMARK    1  A    between atoms: C5_5  and  C6_6 
REMARK    2  A    between atoms: N2_8  and  S1_9 
REMARK    3  A    between atoms: C7_11  and  O1_12 
REMARK    4  A    between atoms: C9_15  and  C10_16 
ROOT
HETATM    1  C6  UNL     1      25.265   1.640  52.610  1.00  0.00     0.068 C 
HETATM    2  N1  UNL     1      24.912   2.862  52.699  1.00  0.00    -0.168 NA
HETATM    3  N2  UNL     1      23.602   3.113  52.302  1.00  0.00    -0.214 N 
HETATM    4  C9  UNL     1      23.001   1.843  52.664  1.00  0.00     0.158 C 
HETATM    5  C17 UNL     1      24.053   0.916  52.078  1.00  0.00     0.095 C 
ENDROOT
BRANCH   1   6
HETATM    6  C5  UNL     1      26.549   0.992  52.931  1.00  0.00    -0.010 A 
HETATM    7  C4  UNL     1      27.619   1.749  53.365  1.00  0.00     0.014 A 
HETATM    8  C3  UNL     1      28.784   1.044  53.642  1.00  0.00     0.007 A 
HETATM    9  C2  UNL     1      28.850  -0.332  53.487  1.00  0.00    -0.062 A 
HETATM   10  C1  UNL     1      30.129  -1.002  53.804  1.00  0.00     0.048 C 
HETATM   11  C19 UNL     1      27.756  -1.050  53.051  1.00  0.00     0.007 A 
HETATM   12  C18 UNL     1      26.591  -0.379  52.770  1.00  0.00     0.014 A 
ENDBRANCH   1   6
BRANCH   3  13
HETATM   13  S1  UNL     1      22.929   4.445  51.625  1.00  0.00     0.086 SA
HETATM   14  N3  UNL     1      21.377   4.911  50.992  1.00  0.00    -0.170 NA
HETATM   15  C7  UNL     1      21.446   6.264  50.533  1.00  0.00     0.178 A 
HETATM   16  C8  UNL     1      22.406   7.148  50.509  1.00  0.00     0.117 A 
HETATM   17  S2  UNL     1      23.889   6.476  51.194  1.00  0.00    -0.031 SA
BRANCH  15  18
HETATM   18  O1  UNL     1      20.120   6.453  50.067  1.00  0.00    -0.344 OA
HETATM   19  H6  UNL     1      19.909   6.742  49.126  1.00  0.00     0.219 HD
ENDBRANCH  15  18
ENDBRANCH   3  13
BRANCH   4  20
HETATM   20  C10 UNL     1      21.676   1.608  52.091  1.00  0.00    -0.032 A 
HETATM   21  C11 UNL     1      21.668   1.061  50.802  1.00  0.00     0.010 A 
HETATM   22  C12 UNL     1      20.490   0.791  50.150  1.00  0.00     0.007 A 
HETATM   23  C13 UNL     1      19.271   1.037  50.716  1.00  0.00    -0.062 A 
HETATM   24  C14 UNL     1      17.944   0.790  50.118  1.00  0.00     0.048 C 
HETATM   25  C15 UNL     1      19.261   1.574  51.982  1.00  0.00     0.007 A 
HETATM   26  C16 UNL     1      20.442   1.847  52.640  1.00  0.00     0.010 A 
ENDBRANCH   4  20
TORSDOF 4
ENDMDL
MODEL 8
REMARK VINA RESULT:      -8.4      3.711      7.569
REMARK  4 active torsions:
REMARK  status: ('A' for Active; 'I' for Inactive)
REMARK    1  A    between atoms: C5_5  and  C6_6 
REMARK    2  A    between atoms: N2_8  and  S1_9 
REMARK    3  A    between atoms: C7_11  and  O1_12 
REMARK    4  A    between atoms: C9_15  and  C10_16 
ROOT
HETATM    1  C6  UNL     1      25.424   1.322  51.912  1.00  0.00     0.068 C 
HETATM    2  N1  UNL     1      25.233   2.333  51.159  1.00  0.00    -0.168 NA
HETATM    3  N2  UNL     1      23.899   2.572  50.843  1.00  0.00    -0.214 N 
HETATM    4  C9  UNL     1      23.278   2.062  52.051  1.00  0.00     0.158 C 
HETATM    5  C17 UNL     1      24.049   0.758  52.172  1.00  0.00     0.095 C 
ENDROOT
BRANCH   1   6
HETATM    6  C5  UNL     1      26.673   0.759  52.454  1.00  0.00    -0.010 A 
HETATM    7  C4  UNL     1      27.675   1.597  52.903  1.00  0.00     0.014 A 
HETATM    8  C3  UNL     1      28.812   0.967  53.395  1.00  0.00     0.007 A 
HETATM    9  C2  UNL     1      28.917  -0.415  53.425  1.00  0.00    -0.062 A 
HETATM   10  C1  UNL     1      30.162  -1.001  53.965  1.00  0.00     0.048 C 
HETATM   11  C19 UNL     1      27.891  -1.215  52.966  1.00  0.00     0.007 A 
HETATM   12  C18 UNL     1      26.755  -0.619  52.474  1.00  0.00     0.014 A 
ENDBRANCH   1   6
BRANCH   3  13
HETATM   13  S1  UNL     1      23.220   3.233  49.506  1.00  0.00     0.086 SA
HETATM   14  N3  UNL     1      23.373   4.704  48.589  1.00  0.00    -0.170 NA
HETATM   15  C7  UNL     1      22.461   4.665  47.488  1.00  0.00     0.178 A 
HETATM   16  C8  UNL     1      21.594   3.778  47.081  1.00  0.00     0.117 A 
HETATM   17  S2  UNL     1      21.598   2.369  48.145  1.00  0.00    -0.031 SA
BRANCH  15  18
HETATM   18  O1  UNL     1      22.729   5.917  46.879  1.00  0.00    -0.344 OA
HETATM   19  H6  UNL     1      23.595   6.414  47.011  1.00  0.00     0.219 HD
ENDBRANCH  15  18
ENDBRANCH   3  13
BRANCH   4  20
HETATM   20  C10 UNL     1      21.836   1.844  51.953  1.00  0.00    -0.032 A 
HETATM   21  C11 UNL     1      21.449   0.555  51.570  1.00  0.00     0.010 A 
HETATM   22  C12 UNL     1      20.123   0.218  51.441  1.00  0.00     0.007 A 
HETATM   23  C13 UNL     1      19.117   1.113  51.677  1.00  0.00    -0.062 A 
HETATM   24  C14 UNL     1      17.665   0.869  51.572  1.00  0.00     0.048 C 
HETATM   25  C15 UNL     1      19.481   2.383  52.054  1.00  0.00     0.007 A 
HETATM   26  C16 UNL     1      20.810   2.726  52.184  1.00  0.00     0.010 A 
ENDBRANCH   4  20
TORSDOF 4
ENDMDL
MODEL 9
REMARK VINA RESULT:      -8.4      1.879      2.464
REMARK  4 active torsions:
REMARK  status: ('A' for Active; 'I' for Inactive)
REMARK    1  A    between atoms: C5_5  and  C6_6 
REMARK    2  A    between atoms: N2_8  and  S1_9 
REMARK    3  A    between atoms: C7_11  and  O1_12 
REMARK    4  A    between atoms: C9_15  and  C10_16 
ROOT
HETATM    1  C6  UNL     1      20.649   0.489  52.270  1.00  0.00     0.068 C 
HETATM    2  N1  UNL     1      21.605   0.321  53.096  1.00  0.00    -0.168 NA
HETATM    3  N2  UNL     1      22.753   1.051  52.804  1.00  0.00    -0.214 N 
HETATM    4  C9  UNL     1      22.141   2.201  52.164  1.00  0.00     0.158 C 
HETATM    5  C17 UNL     1      21.174   1.467  51.249  1.00  0.00     0.095 C 
ENDROOT
BRANCH   1   6
HETATM    6  C5  UNL     1      19.298  -0.101  52.243  1.00  0.00    -0.010 A 
HETATM    7  C4  UNL     1      18.872  -0.910  53.277  1.00  0.00     0.014 A 
HETATM    8  C3  UNL     1      17.584  -1.416  53.155  1.00  0.00     0.007 A 
HETATM    9  C2  UNL     1      16.790  -1.117  52.060  1.00  0.00    -0.062 A 
HETATM   10  C1  UNL     1      15.431  -1.698  52.012  1.00  0.00     0.048 C 
HETATM   11  C19 UNL     1      17.255  -0.303  51.047  1.00  0.00     0.007 A 
HETATM   12  C18 UNL     1      18.526   0.212  51.141  1.00  0.00     0.014 A 
ENDBRANCH   1   6
BRANCH   3  13
HETATM   13  S1  UNL     1      24.331   0.721  53.093  1.00  0.00     0.086 SA
HETATM   14  N3  UNL     1      25.351  -0.687  53.161  1.00  0.00    -0.170 NA
HETATM   15  C7  UNL     1      26.687  -0.282  53.473  1.00  0.00     0.178 A 
HETATM   16  C8  UNL     1      27.235   0.880  53.698  1.00  0.00     0.117 A 
HETATM   17  S2  UNL     1      26.033   2.169  53.581  1.00  0.00    -0.031 SA
BRANCH  15  18
HETATM   18  O1  UNL     1      27.347  -1.537  53.483  1.00  0.00    -0.344 OA
HETATM   19  H6  UNL     1      28.350  -1.626  53.459  1.00  0.00     0.219 HD
ENDBRANCH  15  18
ENDBRANCH   3  13
BRANCH   4  20
HETATM   20  C10 UNL     1      23.067   3.053  51.420  1.00  0.00    -0.032 A 
HETATM   21  C11 UNL     1      23.442   2.573  50.159  1.00  0.00     0.010 A 
HETATM   22  C12 UNL     1      24.307   3.278  49.357  1.00  0.00     0.007 A 
HETATM   23  C13 UNL     1      24.845   4.474  49.740  1.00  0.00    -0.062 A 
HETATM   24  C14 UNL     1      25.780   5.318  48.970  1.00  0.00     0.048 C 
HETATM   25  C15 UNL     1      24.487   4.958  50.976  1.00  0.00     0.007 A 
HETATM   26  C16 UNL     1      23.620   4.255  51.784  1.00  0.00     0.010 A 
ENDBRANCH   4  20
TORSDOF 4
ENDMDL
