MODEL 1
REMARK VINA RESULT:      -9.2      0.000      0.000
REMARK  8 active torsions:
REMARK  status: ('A' for Active; 'I' for Inactive)
REMARK    1  A    between atoms: C2_2  and  C3_4 
REMARK    2  A    between atoms: C3_4  and  N1_5 
REMARK    3  A    between atoms: C3_4  and  O2_16 
REMARK    4  A    between atoms: N1_5  and  C4_6 
REMARK    5  A    between atoms: C8_10  and  O1_11 
REMARK    6  A    between atoms: O1_11  and  C9_12 
REMARK    7  A    between atoms: O2_16  and  C13_17 
REMARK    8  A    between atoms: C13_17  and  C14_18 
ROOT
HETATM    1  C3  UNL     1      26.783   0.161  52.403  1.00  0.00     0.262 C 
ENDROOT
BRANCH   1   2
HETATM    2  C2  UNL     1      28.127   0.479  53.466  1.00  0.00     0.035 A 
HETATM    3  C1  UNL     1      28.992  -0.558  53.604  1.00  0.00     0.152 A 
HETATM    4 CL1  UNL     1      29.356   1.053  54.589  1.00  0.00    -0.182 Cl
ENDBRANCH   1   2
BRANCH   1   5
HETATM    5  N1  UNL     1      25.724   0.421  53.706  1.00  0.00    -0.368 N 
HETATM    6  H4  UNL     1      25.784   1.417  53.924  1.00  0.00     0.161 HD
BRANCH   5   7
HETATM    7  C4  UNL     1      24.932  -0.517  54.387  1.00  0.00     0.093 C 
HETATM    8  C5  UNL     1      23.650  -0.499  54.115  1.00  0.00    -0.039 A 
HETATM    9  C6  UNL     1      23.159   0.475  53.146  1.00  0.00     0.011 A 
HETATM   10  C12 UNL     1      22.813  -1.490  54.848  1.00  0.00     0.070 A 
HETATM   11  C7  UNL     1      21.828   0.484  52.907  1.00  0.00     0.037 A 
HETATM   12  C8  UNL     1      21.076  -0.480  53.642  1.00  0.00     0.065 A 
HETATM   13  C11 UNL     1      21.397  -1.385  54.510  1.00  0.00     0.014 A 
BRANCH  12  14
HETATM   14  O1  UNL     1      19.696  -0.359  53.319  1.00  0.00    -0.352 OA
BRANCH  14  15
HETATM   15  C9  UNL     1      19.273   0.099  52.070  1.00  0.00     0.171 C 
HETATM   16  C10 UNL     1      17.844  -0.400  51.859  1.00  0.00     0.034 C 
ENDBRANCH  14  15
ENDBRANCH  12  14
ENDBRANCH   5   7
ENDBRANCH   1   5
BRANCH   1  17
HETATM   17  O2  UNL     1      26.700   1.358  51.995  1.00  0.00    -0.357 OA
BRANCH  17  18
HETATM   18  C13 UNL     1      26.417   1.905  50.816  1.00  0.00     0.210 C 
BRANCH  18  19
HETATM   19  C14 UNL     1      25.538   3.071  50.847  1.00  0.00    -0.021 A 
HETATM   20  C15 UNL     1      24.371   3.341  51.517  1.00  0.00     0.029 A 
HETATM   21  C16 UNL     1      23.732   4.560  51.425  1.00  0.00     0.118 A 
HETATM   22  N2  UNL     1      24.212   5.569  50.670  1.00  0.00    -0.260 NA
HETATM   23  C17 UNL     1      25.342   5.363  49.993  1.00  0.00     0.067 A 
HETATM   24  C18 UNL     1      25.850   6.374  49.201  1.00  0.00     0.032 A 
HETATM   25  C22 UNL     1      25.995   4.154  50.073  1.00  0.00     0.001 A 
HETATM   26  C19 UNL     1      26.995   6.238  48.474  1.00  0.00     0.002 A 
HETATM   27  C20 UNL     1      27.702   5.032  48.519  1.00  0.00     0.001 A 
HETATM   28  C21 UNL     1      27.129   4.058  49.338  1.00  0.00     0.014 A 
ENDBRANCH  18  19
ENDBRANCH  17  18
ENDBRANCH   1  17
TORSDOF 8
ENDMDL
MODEL 2
REMARK VINA RESULT:      -9.0      3.049      8.279
REMARK  8 active torsions:
REMARK  status: ('A' for Active; 'I' for Inactive)
REMARK    1  A    between atoms: C2_2  and  C3_4 
REMARK    2  A    between atoms: C3_4  and  N1_5 
REMARK    3  A    between atoms: C3_4  and  O2_16 
REMARK    4  A    between atoms: N1_5  and  C4_6 
REMARK    5  A    between atoms: C8_10  and  O1_11 
REMARK    6  A    between atoms: O1_11  and  C9_12 
REMARK    7  A    between atoms: O2_16  and  C13_17 
REMARK    8  A    between atoms: C13_17  and  C14_18 
ROOT
HETATM    1  C3  UNL     1      23.986   1.932  50.976  1.00  0.00     0.262 C 
ENDROOT
BRANCH   1   2
HETATM    2  C2  UNL     1      22.701   2.966  51.541  1.00  0.00     0.035 A 
HETATM    3  C1  UNL     1      21.453   2.530  51.234  1.00  0.00     0.152 A 
HETATM    4 CL1  UNL     1      21.615   4.186  52.199  1.00  0.00    -0.182 Cl
ENDBRANCH   1   2
BRANCH   1   5
HETATM    5  N1  UNL     1      24.939   3.310  50.700  1.00  0.00    -0.368 N 
HETATM    6  H4  UNL     1      24.535   4.052  51.273  1.00  0.00     0.161 HD
BRANCH   5   7
HETATM    7  C4  UNL     1      26.048   3.448  49.851  1.00  0.00     0.093 C 
HETATM    8  C5  UNL     1      26.389   4.675  49.537  1.00  0.00    -0.039 A 
HETATM    9  C6  UNL     1      25.603   5.775  50.083  1.00  0.00     0.011 A 
HETATM   10  C12 UNL     1      27.561   4.815  48.627  1.00  0.00     0.070 A 
HETATM   11  C7  UNL     1      25.965   7.026  49.720  1.00  0.00     0.037 A 
HETATM   12  C8  UNL     1      27.087   7.099  48.842  1.00  0.00     0.065 A 
HETATM   13  C11 UNL     1      27.855   6.207  48.305  1.00  0.00     0.014 A 
BRANCH  12  14
HETATM   14  O1  UNL     1      27.355   8.458  48.520  1.00  0.00    -0.352 OA
BRANCH  14  15
HETATM   15  C9  UNL     1      27.847   9.354  49.471  1.00  0.00     0.171 C 
HETATM   16  C10 UNL     1      29.348   9.504  49.226  1.00  0.00     0.034 C 
ENDBRANCH  14  15
ENDBRANCH  12  14
ENDBRANCH   5   7
ENDBRANCH   1   5
BRANCH   1  17
HETATM   17  O2  UNL     1      24.465   1.735  52.132  1.00  0.00    -0.357 OA
BRANCH  17  18
HETATM   18  C13 UNL     1      25.151   0.736  52.680  1.00  0.00     0.210 C 
BRANCH  18  19
HETATM   19  C14 UNL     1      26.535   1.035  53.041  1.00  0.00    -0.021 A 
HETATM   20  C15 UNL     1      27.176   2.195  53.398  1.00  0.00     0.029 A 
HETATM   21  C16 UNL     1      28.508   2.224  53.752  1.00  0.00     0.118 A 
HETATM   22  N2  UNL     1      29.271   1.112  53.773  1.00  0.00    -0.260 NA
HETATM   23  C17 UNL     1      28.703  -0.045  53.433  1.00  0.00     0.067 A 
HETATM   24  C18 UNL     1      29.463  -1.199  53.433  1.00  0.00     0.032 A 
HETATM   25  C22 UNL     1      27.374  -0.095  53.077  1.00  0.00     0.001 A 
HETATM   26  C19 UNL     1      28.957  -2.417  53.090  1.00  0.00     0.002 A 
HETATM   27  C20 UNL     1      27.612  -2.527  52.723  1.00  0.00     0.001 A 
HETATM   28  C21 UNL     1      26.907  -1.322  52.746  1.00  0.00     0.014 A 
ENDBRANCH  18  19
ENDBRANCH  17  18
ENDBRANCH   1  17
TORSDOF 8
ENDMDL
MODEL 3
REMARK VINA RESULT:      -8.9      3.068      5.626
REMARK  8 active torsions:
REMARK  status: ('A' for Active; 'I' for Inactive)
REMARK    1  A    between atoms: C2_2  and  C3_4 
REMARK    2  A    between atoms: C3_4  and  N1_5 
REMARK    3  A    between atoms: C3_4  and  O2_16 
REMARK    4  A    between atoms: N1_5  and  C4_6 
REMARK    5  A    between atoms: C8_10  and  O1_11 
REMARK    6  A    between atoms: O1_11  and  C9_12 
REMARK    7  A    between atoms: O2_16  and  C13_17 
REMARK    8  A    between atoms: C13_17  and  C14_18 
ROOT
HETATM    1  C3  UNL     1      25.361   4.471  49.187  1.00  0.00     0.262 C 
ENDROOT
BRANCH   1   2
HETATM    2  C2  UNL     1      26.206   5.993  49.269  1.00  0.00     0.035 A 
HETATM    3  C1  UNL     1      27.299   6.073  48.468  1.00  0.00     0.152 A 
HETATM    4 CL1  UNL     1      26.871   7.598  49.558  1.00  0.00    -0.182 Cl
ENDBRANCH   1   2
BRANCH   1   5
HETATM    5  N1  UNL     1      26.064   4.030  50.669  1.00  0.00    -0.368 N 
HETATM    6  H4  UNL     1      25.913   4.819  51.299  1.00  0.00     0.161 HD
BRANCH   5   7
HETATM    7  C4  UNL     1      26.742   2.845  50.995  1.00  0.00     0.093 C 
HETATM    8  C5  UNL     1      26.051   1.942  51.648  1.00  0.00    -0.039 A 
HETATM    9  C6  UNL     1      24.661   2.237  51.979  1.00  0.00     0.011 A 
HETATM   10  C12 UNL     1      26.780   0.691  51.999  1.00  0.00     0.070 A 
HETATM   11  C7  UNL     1      23.985   1.295  52.675  1.00  0.00     0.037 A 
HETATM   12  C8  UNL     1      24.734   0.123  52.990  1.00  0.00     0.065 A 
HETATM   13  C11 UNL     1      25.951  -0.247  52.749  1.00  0.00     0.014 A 
BRANCH  12  14
HETATM   14  O1  UNL     1      23.923  -0.777  53.735  1.00  0.00    -0.352 OA
BRANCH  14  15
HETATM   15  C9  UNL     1      22.558  -0.922  53.476  1.00  0.00     0.171 C 
HETATM   16  C10 UNL     1      21.817  -0.716  54.796  1.00  0.00     0.034 C 
ENDBRANCH  14  15
ENDBRANCH  12  14
ENDBRANCH   5   7
ENDBRANCH   1   5
BRANCH   1  17
HETATM   17  O2  UNL     1      24.307   4.919  49.730  1.00  0.00    -0.357 OA
BRANCH  17  18
HETATM   18  C13 UNL     1      23.018   4.866  49.407  1.00  0.00     0.210 C 
BRANCH  18  19
HETATM   19  C14 UNL     1      22.480   3.534  49.143  1.00  0.00    -0.021 A 
HETATM   20  C15 UNL     1      22.612   2.667  48.086  1.00  0.00     0.029 A 
HETATM   21  C16 UNL     1      22.037   1.414  48.083  1.00  0.00     0.118 A 
HETATM   22  N2  UNL     1      21.307   0.954  49.120  1.00  0.00    -0.260 NA
HETATM   23  C17 UNL     1      21.142   1.754  50.175  1.00  0.00     0.067 A 
HETATM   24  C18 UNL     1      20.389   1.315  51.246  1.00  0.00     0.032 A 
HETATM   25  C22 UNL     1      21.709   3.008  50.197  1.00  0.00     0.001 A 
HETATM   26  C19 UNL     1      20.168   2.076  52.354  1.00  0.00     0.002 A 
HETATM   27  C20 UNL     1      20.722   3.358  52.434  1.00  0.00     0.001 A 
HETATM   28  C21 UNL     1      21.470   3.733  51.316  1.00  0.00     0.014 A 
ENDBRANCH  18  19
ENDBRANCH  17  18
ENDBRANCH   1  17
TORSDOF 8
ENDMDL
MODEL 4
REMARK VINA RESULT:      -8.9      2.339      8.610
REMARK  8 active torsions:
REMARK  status: ('A' for Active; 'I' for Inactive)
REMARK    1  A    between atoms: C2_2  and  C3_4 
REMARK    2  A    between atoms: C3_4  and  N1_5 
REMARK    3  A    between atoms: C3_4  and  O2_16 
REMARK    4  A    between atoms: N1_5  and  C4_6 
REMARK    5  A    between atoms: C8_10  and  O1_11 
REMARK    6  A    between atoms: O1_11  and  C9_12 
REMARK    7  A    between atoms: O2_16  and  C13_17 
REMARK    8  A    between atoms: C13_17  and  C14_18 
ROOT
HETATM    1  C3  UNL     1      24.143   2.700  52.117  1.00  0.00     0.262 C 
ENDROOT
BRANCH   1   2
HETATM    2  C2  UNL     1      25.745   2.074  52.398  1.00  0.00     0.035 A 
HETATM    3  C1  UNL     1      26.168   2.166  53.684  1.00  0.00     0.152 A 
HETATM    4 CL1  UNL     1      27.372   1.400  52.395  1.00  0.00    -0.182 Cl
ENDBRANCH   1   2
BRANCH   1   5
HETATM    5  N1  UNL     1      24.655   3.259  50.597  1.00  0.00    -0.368 N 
HETATM    6  H4  UNL     1      25.114   2.467  50.145  1.00  0.00     0.161 HD
BRANCH   5   7
HETATM    7  C4  UNL     1      24.517   4.543  50.047  1.00  0.00     0.093 C 
HETATM    8  C5  UNL     1      25.566   5.023  49.425  1.00  0.00    -0.039 A 
HETATM    9  C6  UNL     1      26.769   4.202  49.356  1.00  0.00     0.011 A 
HETATM   10  C12 UNL     1      25.416   6.390  48.852  1.00  0.00     0.070 A 
HETATM   11  C7  UNL     1      27.841   4.736  48.729  1.00  0.00     0.037 A 
HETATM   12  C8  UNL     1      27.643   6.050  48.208  1.00  0.00     0.065 A 
HETATM   13  C11 UNL     1      26.635   6.862  48.203  1.00  0.00     0.014 A 
BRANCH  12  14
HETATM   14  O1  UNL     1      28.841   6.507  47.593  1.00  0.00    -0.352 OA
BRANCH  14  15
HETATM   15  C9  UNL     1      30.086   5.964  47.918  1.00  0.00     0.171 C 
HETATM   16  C10 UNL     1      30.867   7.032  48.682  1.00  0.00     0.034 C 
ENDBRANCH  14  15
ENDBRANCH  12  14
ENDBRANCH   5   7
ENDBRANCH   1   5
BRANCH   1  17
HETATM   17  O2  UNL     1      23.695   1.609  51.653  1.00  0.00    -0.357 OA
BRANCH  17  18
HETATM   18  C13 UNL     1      22.487   1.054  51.627  1.00  0.00     0.210 C 
BRANCH  18  19
HETATM   19  C14 UNL     1      22.184   0.132  52.719  1.00  0.00    -0.021 A 
HETATM   20  C15 UNL     1      22.947  -0.403  53.726  1.00  0.00     0.029 A 
HETATM   21  C16 UNL     1      22.418  -1.232  54.693  1.00  0.00     0.118 A 
HETATM   22  N2  UNL     1      21.113  -1.572  54.714  1.00  0.00    -0.260 NA
HETATM   23  C17 UNL     1      20.323  -1.083  53.758  1.00  0.00     0.067 A 
HETATM   24  C18 UNL     1      18.984  -1.425  53.746  1.00  0.00     0.032 A 
HETATM   25  C22 UNL     1      20.832  -0.254  52.784  1.00  0.00     0.001 A 
HETATM   26  C19 UNL     1      18.115  -0.974  52.798  1.00  0.00     0.002 A 
HETATM   27  C20 UNL     1      18.576  -0.125  51.786  1.00  0.00     0.001 A 
HETATM   28  C21 UNL     1      19.938   0.175  51.862  1.00  0.00     0.014 A 
ENDBRANCH  18  19
ENDBRANCH  17  18
ENDBRANCH   1  17
TORSDOF 8
ENDMDL
MODEL 5
REMARK VINA RESULT:      -8.8      3.233      7.693
REMARK  8 active torsions:
REMARK  status: ('A' for Active; 'I' for Inactive)
REMARK    1  A    between atoms: C2_2  and  C3_4 
REMARK    2  A    between atoms: C3_4  and  N1_5 
REMARK    3  A    between atoms: C3_4  and  O2_16 
REMARK    4  A    between atoms: N1_5  and  C4_6 
REMARK    5  A    between atoms: C8_10  and  O1_11 
REMARK    6  A    between atoms: O1_11  and  C9_12 
REMARK    7  A    between atoms: O2_16  and  C13_17 
REMARK    8  A    between atoms: C13_17  and  C14_18 
ROOT
HETATM    1  C3  UNL     1      21.902   2.904  49.070  1.00  0.00     0.262 C 
ENDROOT
BRANCH   1   2
HETATM    2  C2  UNL     1      20.928   4.275  49.527  1.00  0.00     0.035 A 
HETATM    3  C1  UNL     1      20.209   4.819  48.512  1.00  0.00     0.152 A 
HETATM    4 CL1  UNL     1      20.067   5.632  50.249  1.00  0.00    -0.182 Cl
ENDBRANCH   1   2
BRANCH   1   5
HETATM    5  N1  UNL     1      23.210   3.584  49.912  1.00  0.00    -0.368 N 
HETATM    6  H4  UNL     1      22.817   4.327  50.491  1.00  0.00     0.161 HD
BRANCH   5   7
HETATM    7  C4  UNL     1      24.569   3.242  49.837  1.00  0.00     0.093 C 
HETATM    8  C5  UNL     1      25.131   2.849  50.954  1.00  0.00    -0.039 A 
HETATM    9  C6  UNL     1      24.315   2.802  52.162  1.00  0.00     0.011 A 
HETATM   10  C12 UNL     1      26.576   2.495  50.870  1.00  0.00     0.070 A 
HETATM   11  C7  UNL     1      24.931   2.416  53.303  1.00  0.00     0.037 A 
HETATM   12  C8  UNL     1      26.315   2.099  53.164  1.00  0.00     0.065 A 
HETATM   13  C11 UNL     1      27.131   2.097  52.160  1.00  0.00     0.014 A 
BRANCH  12  14
HETATM   14  O1  UNL     1      26.850   1.728  54.429  1.00  0.00    -0.352 OA
BRANCH  14  15
HETATM   15  C9  UNL     1      27.067   0.392  54.771  1.00  0.00     0.171 C 
HETATM   16  C10 UNL     1      28.577   0.191  54.899  1.00  0.00     0.034 C 
ENDBRANCH  14  15
ENDBRANCH  12  14
ENDBRANCH   5   7
ENDBRANCH   1   5
BRANCH   1  17
HETATM   17  O2  UNL     1      21.535   2.195  50.054  1.00  0.00    -0.357 OA
BRANCH  17  18
HETATM   18  C13 UNL     1      21.551   0.887  50.296  1.00  0.00     0.210 C 
BRANCH  18  19
HETATM   19  C14 UNL     1      20.568   0.404  51.262  1.00  0.00    -0.021 A 
HETATM   20  C15 UNL     1      19.197   0.340  51.245  1.00  0.00     0.029 A 
HETATM   21  C16 UNL     1      18.470  -0.216  52.277  1.00  0.00     0.118 A 
HETATM   22  N2  UNL     1      19.060  -0.735  53.373  1.00  0.00    -0.260 NA
HETATM   23  C17 UNL     1      20.391  -0.699  53.447  1.00  0.00     0.067 A 
HETATM   24  C18 UNL     1      21.021  -1.212  54.564  1.00  0.00     0.032 A 
HETATM   25  C22 UNL     1      21.133  -0.149  52.427  1.00  0.00     0.001 A 
HETATM   26  C19 UNL     1      22.375  -1.203  54.716  1.00  0.00     0.002 A 
HETATM   27  C20 UNL     1      23.180  -0.660  53.710  1.00  0.00     0.001 A 
HETATM   28  C21 UNL     1      22.475  -0.161  52.614  1.00  0.00     0.014 A 
ENDBRANCH  18  19
ENDBRANCH  17  18
ENDBRANCH   1  17
TORSDOF 8
ENDMDL
MODEL 6
REMARK VINA RESULT:      -8.8      3.052      5.508
REMARK  8 active torsions:
REMARK  status: ('A' for Active; 'I' for Inactive)
REMARK    1  A    between atoms: C2_2  and  C3_4 
REMARK    2  A    between atoms: C3_4  and  N1_5 
REMARK    3  A    between atoms: C3_4  and  O2_16 
REMARK    4  A    between atoms: N1_5  and  C4_6 
REMARK    5  A    between atoms: C8_10  and  O1_11 
REMARK    6  A    between atoms: O1_11  and  C9_12 
REMARK    7  A    between atoms: O2_16  and  C13_17 
REMARK    8  A    between atoms: C13_17  and  C14_18 
ROOT
HETATM    1  C3  UNL     1      22.051   3.209  50.798  1.00  0.00     0.262 C 
ENDROOT
BRANCH   1   2
HETATM    2  C2  UNL     1      22.077   2.741  49.119  1.00  0.00     0.035 A 
HETATM    3  C1  UNL     1      20.861   2.743  48.516  1.00  0.00     0.152 A 
HETATM    4 CL1  UNL     1      22.385   2.219  47.466  1.00  0.00    -0.182 Cl
ENDBRANCH   1   2
BRANCH   1   5
HETATM    5  N1  UNL     1      23.019   1.862  51.162  1.00  0.00    -0.368 N 
HETATM    6  H4  UNL     1      23.673   1.766  50.384  1.00  0.00     0.161 HD
BRANCH   5   7
HETATM    7  C4  UNL     1      22.951   1.014  52.279  1.00  0.00     0.093 C 
HETATM    8  C5  UNL     1      24.095   0.569  52.740  1.00  0.00    -0.039 A 
HETATM    9  C6  UNL     1      25.322   0.981  52.068  1.00  0.00     0.011 A 
HETATM   10  C12 UNL     1      24.015  -0.337  53.920  1.00  0.00     0.070 A 
HETATM   11  C7  UNL     1      26.482   0.484  52.553  1.00  0.00     0.037 A 
HETATM   12  C8  UNL     1      26.345  -0.384  53.676  1.00  0.00     0.065 A 
HETATM   13  C11 UNL     1      25.326  -0.810  54.352  1.00  0.00     0.014 A 
BRANCH  12  14
HETATM   14  O1  UNL     1      27.626  -0.853  54.079  1.00  0.00    -0.352 OA
BRANCH  14  15
HETATM   15  C9  UNL     1      28.699   0.019  54.272  1.00  0.00     0.171 C 
HETATM   16  C10 UNL     1      29.918  -0.593  53.584  1.00  0.00     0.034 C 
ENDBRANCH  14  15
ENDBRANCH  12  14
ENDBRANCH   5   7
ENDBRANCH   1   5
BRANCH   1  17
HETATM   17  O2  UNL     1      23.042   3.992  50.694  1.00  0.00    -0.357 OA
BRANCH  17  18
HETATM   18  C13 UNL     1      23.541   4.945  51.475  1.00  0.00     0.210 C 
BRANCH  18  19
HETATM   19  C14 UNL     1      24.179   6.065  50.789  1.00  0.00    -0.021 A 
HETATM   20  C15 UNL     1      23.908   7.410  50.747  1.00  0.00     0.029 A 
HETATM   21  C16 UNL     1      24.699   8.302  50.053  1.00  0.00     0.118 A 
HETATM   22  N2  UNL     1      25.794   7.911  49.369  1.00  0.00    -0.260 NA
HETATM   23  C17 UNL     1      26.106   6.615  49.372  1.00  0.00     0.067 A 
HETATM   24  C18 UNL     1      27.214   6.184  48.669  1.00  0.00     0.032 A 
HETATM   25  C22 UNL     1      25.329   5.709  50.059  1.00  0.00     0.001 A 
HETATM   26  C19 UNL     1      27.592   4.875  48.617  1.00  0.00     0.002 A 
HETATM   27  C20 UNL     1      26.842   3.912  49.299  1.00  0.00     0.001 A 
HETATM   28  C21 UNL     1      25.738   4.420  49.985  1.00  0.00     0.014 A 
ENDBRANCH  18  19
ENDBRANCH  17  18
ENDBRANCH   1  17
TORSDOF 8
ENDMDL
MODEL 7
REMARK VINA RESULT:      -8.8      3.406      5.738
REMARK  8 active torsions:
REMARK  status: ('A' for Active; 'I' for Inactive)
REMARK    1  A    between atoms: C2_2  and  C3_4 
REMARK    2  A    between atoms: C3_4  and  N1_5 
REMARK    3  A    between atoms: C3_4  and  O2_16 
REMARK    4  A    between atoms: N1_5  and  C4_6 
REMARK    5  A    between atoms: C8_10  and  O1_11 
REMARK    6  A    between atoms: O1_11  and  C9_12 
REMARK    7  A    between atoms: O2_16  and  C13_17 
REMARK    8  A    between atoms: C13_17  and  C14_18 
ROOT
HETATM    1  C3  UNL     1      23.522   3.746  50.171  1.00  0.00     0.262 C 
ENDROOT
BRANCH   1   2
HETATM    2  C2  UNL     1      22.753   3.249  48.689  1.00  0.00     0.035 A 
HETATM    3  C1  UNL     1      21.740   4.056  48.282  1.00  0.00     0.152 A 
HETATM    4 CL1  UNL     1      22.150   2.516  47.205  1.00  0.00    -0.182 Cl
ENDBRANCH   1   2
BRANCH   1   5
HETATM    5  N1  UNL     1      23.828   2.115  50.530  1.00  0.00    -0.368 N 
HETATM    6  H4  UNL     1      24.276   1.722  49.701  1.00  0.00     0.161 HD
BRANCH   5   7
HETATM    7  C4  UNL     1      23.523   1.407  51.704  1.00  0.00     0.093 C 
HETATM    8  C5  UNL     1      24.534   0.847  52.323  1.00  0.00    -0.039 A 
HETATM    9  C6  UNL     1      25.868   0.999  51.753  1.00  0.00     0.011 A 
HETATM   10  C12 UNL     1      24.203   0.090  53.562  1.00  0.00     0.070 A 
HETATM   11  C7  UNL     1      26.885   0.388  52.401  1.00  0.00     0.037 A 
HETATM   12  C8  UNL     1      26.508  -0.329  53.576  1.00  0.00     0.065 A 
HETATM   13  C11 UNL     1      25.376  -0.526  54.172  1.00  0.00     0.014 A 
BRANCH  12  14
HETATM   14  O1  UNL     1      27.655  -0.939  54.153  1.00  0.00    -0.352 OA
BRANCH  14  15
HETATM   15  C9  UNL     1      28.837  -0.225  54.367  1.00  0.00     0.171 C 
HETATM   16  C10 UNL     1      29.975  -1.023  53.731  1.00  0.00     0.034 C 
ENDBRANCH  14  15
ENDBRANCH  12  14
ENDBRANCH   5   7
ENDBRANCH   1   5
BRANCH   1  17
HETATM   17  O2  UNL     1      24.657   3.923  49.635  1.00  0.00    -0.357 OA
BRANCH  17  18
HETATM   18  C13 UNL     1      25.632   4.806  49.828  1.00  0.00     0.210 C 
BRANCH  18  19
HETATM   19  C14 UNL     1      25.626   5.969  48.944  1.00  0.00    -0.021 A 
HETATM   20  C15 UNL     1      24.643   6.854  48.575  1.00  0.00     0.029 A 
HETATM   21  C16 UNL     1      24.890   7.928  47.746  1.00  0.00     0.118 A 
HETATM   22  N2  UNL     1      26.116   8.183  47.245  1.00  0.00    -0.260 NA
HETATM   23  C17 UNL     1      27.110   7.355  47.567  1.00  0.00     0.067 A 
HETATM   24  C18 UNL     1      28.374   7.583  47.057  1.00  0.00     0.032 A 
HETATM   25  C22 UNL     1      26.884   6.277  48.393  1.00  0.00     0.001 A 
HETATM   26  C19 UNL     1      29.438   6.778  47.334  1.00  0.00     0.002 A 
HETATM   27  C20 UNL     1      29.267   5.670  48.170  1.00  0.00     0.001 A 
HETATM   28  C21 UNL     1      27.965   5.503  48.647  1.00  0.00     0.014 A 
ENDBRANCH  18  19
ENDBRANCH  17  18
ENDBRANCH   1  17
TORSDOF 8
ENDMDL
MODEL 8
REMARK VINA RESULT:      -8.7      2.064      3.236
REMARK  8 active torsions:
REMARK  status: ('A' for Active; 'I' for Inactive)
REMARK    1  A    between atoms: C2_2  and  C3_4 
REMARK    2  A    between atoms: C3_4  and  N1_5 
REMARK    3  A    between atoms: C3_4  and  O2_16 
REMARK    4  A    between atoms: N1_5  and  C4_6 
REMARK    5  A    between atoms: C8_10  and  O1_11 
REMARK    6  A    between atoms: O1_11  and  C9_12 
REMARK    7  A    between atoms: O2_16  and  C13_17 
REMARK    8  A    between atoms: C13_17  and  C14_18 
ROOT
HETATM    1  C3  UNL     1      25.841   1.030  51.973  1.00  0.00     0.262 C 
ENDROOT
BRANCH   1   2
HETATM    2  C2  UNL     1      27.219   1.621  52.862  1.00  0.00     0.035 A 
HETATM    3  C1  UNL     1      28.101   0.660  53.238  1.00  0.00     0.152 A 
HETATM    4 CL1  UNL     1      28.480   2.476  53.745  1.00  0.00    -0.182 Cl
ENDBRANCH   1   2
BRANCH   1   5
HETATM    5  N1  UNL     1      24.997   0.868  53.438  1.00  0.00    -0.368 N 
HETATM    6  H4  UNL     1      25.032   1.785  53.887  1.00  0.00     0.161 HD
BRANCH   5   7
HETATM    7  C4  UNL     1      24.385  -0.277  53.971  1.00  0.00     0.093 C 
HETATM    8  C5  UNL     1      23.083  -0.352  53.842  1.00  0.00    -0.039 A 
HETATM    9  C6  UNL     1      22.388   0.740  53.170  1.00  0.00     0.011 A 
HETATM   10  C12 UNL     1      22.438  -1.566  54.417  1.00  0.00     0.070 A 
HETATM   11  C7  UNL     1      21.042   0.644  53.076  1.00  0.00     0.037 A 
HETATM   12  C8  UNL     1      20.479  -0.534  53.651  1.00  0.00     0.065 A 
HETATM   13  C11 UNL     1      20.988  -1.557  54.258  1.00  0.00     0.014 A 
BRANCH  12  14
HETATM   14  O1  UNL     1      19.065  -0.508  53.506  1.00  0.00    -0.352 OA
BRANCH  14  15
HETATM   15  C9  UNL     1      18.308  -1.682  53.484  1.00  0.00     0.171 C 
HETATM   16  C10 UNL     1      17.018  -1.381  52.723  1.00  0.00     0.034 C 
ENDBRANCH  14  15
ENDBRANCH  12  14
ENDBRANCH   5   7
ENDBRANCH   1   5
BRANCH   1  17
HETATM   17  O2  UNL     1      25.375   2.186  51.742  1.00  0.00    -0.357 OA
BRANCH  17  18
HETATM   18  C13 UNL     1      24.762   2.732  50.696  1.00  0.00     0.210 C 
BRANCH  18  19
HETATM   19  C14 UNL     1      23.540   3.478  50.989  1.00  0.00    -0.021 A 
HETATM   20  C15 UNL     1      23.298   4.626  51.702  1.00  0.00     0.029 A 
HETATM   21  C16 UNL     1      22.039   5.181  51.802  1.00  0.00     0.118 A 
HETATM   22  N2  UNL     1      20.962   4.633  51.203  1.00  0.00    -0.260 NA
HETATM   23  C17 UNL     1      21.137   3.515  50.498  1.00  0.00     0.067 A 
HETATM   24  C18 UNL     1      20.049   2.925  49.885  1.00  0.00     0.032 A 
HETATM   25  C22 UNL     1      22.385   2.946  50.386  1.00  0.00     0.001 A 
HETATM   26  C19 UNL     1      20.146   1.778  49.155  1.00  0.00     0.002 A 
HETATM   27  C20 UNL     1      21.390   1.157  49.005  1.00  0.00     0.001 A 
HETATM   28  C21 UNL     1      22.441   1.810  49.651  1.00  0.00     0.014 A 
ENDBRANCH  18  19
ENDBRANCH  17  18
ENDBRANCH   1  17
TORSDOF 8
ENDMDL
MODEL 9
REMARK VINA RESULT:      -8.6      3.137      8.351
REMARK  8 active torsions:
REMARK  status: ('A' for Active; 'I' for Inactive)
REMARK    1  A    between atoms: C2_2  and  C3_4 
REMARK    2  A    between atoms: C3_4  and  N1_5 
REMARK    3  A    between atoms: C3_4  and  O2_16 
REMARK    4  A    between atoms: N1_5  and  C4_6 
REMARK    5  A    between atoms: C8_10  and  O1_11 
REMARK    6  A    between atoms: O1_11  and  C9_12 
REMARK    7  A    between atoms: O2_16  and  C13_17 
REMARK    8  A    between atoms: C13_17  and  C14_18 
ROOT
HETATM    1  C3  UNL     1      24.407   2.326  50.686  1.00  0.00     0.262 C 
ENDROOT
BRANCH   1   2
HETATM    2  C2  UNL     1      22.872   2.807  50.015  1.00  0.00     0.035 A 
HETATM    3  C1  UNL     1      22.178   1.803  49.421  1.00  0.00     0.152 A 
HETATM    4 CL1  UNL     1      21.397   3.560  49.416  1.00  0.00    -0.182 Cl
ENDBRANCH   1   2
BRANCH   1   5
HETATM    5  N1  UNL     1      25.140   3.625  49.874  1.00  0.00    -0.368 N 
HETATM    6  H4  UNL     1      24.400   4.308  49.708  1.00  0.00     0.161 HD
BRANCH   5   7
HETATM    7  C4  UNL     1      26.478   3.761  49.473  1.00  0.00     0.093 C 
HETATM    8  C5  UNL     1      26.818   4.922  48.969  1.00  0.00    -0.039 A 
HETATM    9  C6  UNL     1      25.798   5.960  48.866  1.00  0.00     0.011 A 
HETATM   10  C12 UNL     1      28.238   5.057  48.537  1.00  0.00     0.070 A 
HETATM   11  C7  UNL     1      26.175   7.137  48.319  1.00  0.00     0.037 A 
HETATM   12  C8  UNL     1      27.542   7.206  47.916  1.00  0.00     0.065 A 
HETATM   13  C11 UNL     1      28.526   6.366  47.963  1.00  0.00     0.014 A 
BRANCH  12  14
HETATM   14  O1  UNL     1      27.809   8.480  47.343  1.00  0.00    -0.352 OA
BRANCH  14  15
HETATM   15  C9  UNL     1      27.547   9.665  48.033  1.00  0.00     0.171 C 
HETATM   16  C10 UNL     1      28.790  10.002  48.855  1.00  0.00     0.034 C 
ENDBRANCH  14  15
ENDBRANCH  12  14
ENDBRANCH   5   7
ENDBRANCH   1   5
BRANCH   1  17
HETATM   17  O2  UNL     1      24.251   2.982  51.759  1.00  0.00    -0.357 OA
BRANCH  17  18
HETATM   18  C13 UNL     1      24.687   2.815  53.004  1.00  0.00     0.210 C 
BRANCH  18  19
HETATM   19  C14 UNL     1      25.064   1.452  53.372  1.00  0.00    -0.021 A 
HETATM   20  C15 UNL     1      24.342   0.293  53.520  1.00  0.00     0.029 A 
HETATM   21  C16 UNL     1      24.937  -0.912  53.832  1.00  0.00     0.118 A 
HETATM   22  N2  UNL     1      26.268  -1.032  54.011  1.00  0.00    -0.260 NA
HETATM   23  C17 UNL     1      27.020   0.062  53.882  1.00  0.00     0.067 A 
HETATM   24  C18 UNL     1      28.385  -0.029  54.073  1.00  0.00     0.032 A 
HETATM   25  C22 UNL     1      26.445   1.273  53.570  1.00  0.00     0.001 A 
HETATM   26  C19 UNL     1      29.218   1.045  53.967  1.00  0.00     0.002 A 
HETATM   27  C20 UNL     1      28.690   2.300  53.649  1.00  0.00     0.001 A 
HETATM   28  C21 UNL     1      27.305   2.315  53.471  1.00  0.00     0.014 A 
ENDBRANCH  18  19
ENDBRANCH  17  18
ENDBRANCH   1  17
TORSDOF 8
ENDMDL
