MODEL 1
REMARK VINA RESULT:      -6.8      0.000      0.000
REMARK  9 active torsions:
REMARK  status: ('A' for Active; 'I' for Inactive)
REMARK    1  A    between atoms: O1_2  and  C2_3 
REMARK    2  A    between atoms: C4_5  and  C5_6 
REMARK    3  A    between atoms: C5_6  and  N1_7 
REMARK    4  A    between atoms: N1_7  and  C6_8 
REMARK    5  A    between atoms: C10_13  and  O3_14 
REMARK    6  A    between atoms: C12_16  and  O4_17 
REMARK    7  A    between atoms: N2_20  and  C15_21 
REMARK    8  A    between atoms: C15_21  and  N3_23 
REMARK    9  A    between atoms: C18_25  and  O5_26 
ROOT
HETATM    1  C2  UNL     1      26.422   1.145  54.097  1.00  0.00     0.102 A 
HETATM    2  C3  UNL     1      25.800   2.322  53.925  1.00  0.00     0.054 A 
HETATM    3  C4  UNL     1      24.490   2.420  53.227  1.00  0.00     0.011 A 
HETATM    4  C14 UNL     1      23.845   1.231  52.710  1.00  0.00     0.068 A 
HETATM    5  N2  UNL     1      22.721   1.461  52.134  1.00  0.00    -0.254 NA
HETATM    6  C17 UNL     1      24.580  -0.001  52.937  1.00  0.00     0.071 A 
HETATM    7  C18 UNL     1      25.738  -0.025  53.562  1.00  0.00     0.103 A 
ENDROOT
BRANCH   3   8
HETATM    8  C5  UNL     1      24.177   3.672  53.235  1.00  0.00     0.102 C 
BRANCH   8   9
HETATM    9  N1  UNL     1      23.815   4.985  53.107  1.00  0.00    -0.366 N 
HETATM   10  H6  UNL     1      23.708   5.870  53.619  1.00  0.00     0.165 HD
BRANCH   9  11
HETATM   11  C6  UNL     1      23.464   5.221  51.725  1.00  0.00     0.043 C 
HETATM   12  C7  UNL     1      22.194   5.404  51.307  1.00  0.00     0.028 C 
HETATM   13  C8  UNL     1      21.515   5.657  50.006  1.00  0.00     0.204 C 
HETATM   14  O2  UNL     1      21.968   4.706  49.061  1.00  0.00    -0.357 OA
HETATM   15  C9  UNL     1      23.168   3.977  49.007  1.00  0.00     0.170 C 
HETATM   16  C10 UNL     1      24.318   4.169  49.674  1.00  0.00     0.102 C 
HETATM   17  C12 UNL     1      24.498   5.283  50.655  1.00  0.00     0.228 C 
BRANCH  16  18
HETATM   18  O3  UNL     1      25.343   3.266  49.402  1.00  0.00    -0.355 OA
HETATM   19  C11 UNL     1      26.475   3.270  50.231  1.00  0.00     0.209 C 
ENDBRANCH  16  18
BRANCH  17  20
HETATM   20  O4  UNL     1      24.502   6.459  49.971  1.00  0.00    -0.378 OA
HETATM   21  C13 UNL     1      25.538   7.321  50.149  1.00  0.00     0.203 C 
ENDBRANCH  17  20
ENDBRANCH   9  11
ENDBRANCH   8   9
ENDBRANCH   3   8
BRANCH   1  22
HETATM   22  O1  UNL     1      27.651   0.861  54.724  1.00  0.00    -0.353 OA
HETATM   23  C1  UNL     1      28.822   1.371  54.069  1.00  0.00     0.210 C 
ENDBRANCH   1  22
BRANCH   5  24
HETATM   24  C15 UNL     1      21.869   0.473  51.532  1.00  0.00     0.335 C 
HETATM   25  C16 UNL     1      20.691   0.164  52.433  1.00  0.00     0.068 C 
BRANCH  24  26
HETATM   26  N3  UNL     1      21.367   1.013  50.269  1.00  0.00     0.102 N 
HETATM   27  H22 UNL     1      20.392   0.659  50.129  1.00  0.00     0.315 HD
HETATM   28  H23 UNL     1      21.391   2.064  50.289  1.00  0.00     0.315 HD
ENDBRANCH  24  26
ENDBRANCH   5  24
BRANCH   7  29
HETATM   29  O5  UNL     1      26.254  -1.296  53.664  1.00  0.00    -0.353 OA
HETATM   30  C19 UNL     1      26.936  -1.955  52.600  1.00  0.00     0.210 C 
ENDBRANCH   7  29
TORSDOF 9
ENDMDL
MODEL 2
REMARK VINA RESULT:      -6.8      1.740      2.951
REMARK  9 active torsions:
REMARK  status: ('A' for Active; 'I' for Inactive)
REMARK    1  A    between atoms: O1_2  and  C2_3 
REMARK    2  A    between atoms: C4_5  and  C5_6 
REMARK    3  A    between atoms: C5_6  and  N1_7 
REMARK    4  A    between atoms: N1_7  and  C6_8 
REMARK    5  A    between atoms: C10_13  and  O3_14 
REMARK    6  A    between atoms: C12_16  and  O4_17 
REMARK    7  A    between atoms: N2_20  and  C15_21 
REMARK    8  A    between atoms: C15_21  and  N3_23 
REMARK    9  A    between atoms: C18_25  and  O5_26 
ROOT
HETATM    1  C2  UNL     1      26.949   0.869  53.281  1.00  0.00     0.102 A 
HETATM    2  C3  UNL     1      26.240   2.009  53.227  1.00  0.00     0.054 A 
HETATM    3  C4  UNL     1      24.754   2.009  53.253  1.00  0.00     0.011 A 
HETATM    4  C14 UNL     1      24.023   0.761  53.339  1.00  0.00     0.068 A 
HETATM    5  N2  UNL     1      22.748   0.908  53.354  1.00  0.00    -0.254 NA
HETATM    6  C17 UNL     1      24.859  -0.425  53.393  1.00  0.00     0.071 A 
HETATM    7  C18 UNL     1      26.174  -0.361  53.366  1.00  0.00     0.103 A 
ENDROOT
BRANCH   3   8
HETATM    8  C5  UNL     1      24.398   3.247  53.190  1.00  0.00     0.102 C 
BRANCH   8   9
HETATM    9  N1  UNL     1      23.895   4.515  53.076  1.00  0.00    -0.366 N 
HETATM   10  H6  UNL     1      23.866   5.438  53.526  1.00  0.00     0.165 HD
BRANCH   9  11
HETATM   11  C6  UNL     1      23.129   4.586  51.853  1.00  0.00     0.043 C 
HETATM   12  C7  UNL     1      23.218   5.615  50.985  1.00  0.00     0.028 C 
HETATM   13  C8  UNL     1      22.591   5.985  49.686  1.00  0.00     0.204 C 
HETATM   14  O2  UNL     1      21.187   5.862  49.804  1.00  0.00    -0.357 OA
HETATM   15  C9  UNL     1      20.411   5.069  50.667  1.00  0.00     0.170 C 
HETATM   16  C10 UNL     1      20.775   4.022  51.426  1.00  0.00     0.102 C 
HETATM   17  C12 UNL     1      22.178   3.508  51.462  1.00  0.00     0.228 C 
BRANCH  16  18
HETATM   18  O3  UNL     1      19.764   3.434  52.185  1.00  0.00    -0.355 OA
HETATM   19  C11 UNL     1      18.585   3.038  51.535  1.00  0.00     0.209 C 
ENDBRANCH  16  18
BRANCH  17  20
HETATM   20  O4  UNL     1      22.460   2.947  50.255  1.00  0.00    -0.378 OA
HETATM   21  C13 UNL     1      21.990   1.702  49.982  1.00  0.00     0.203 C 
ENDBRANCH  17  20
ENDBRANCH   9  11
ENDBRANCH   8   9
ENDBRANCH   3   8
BRANCH   1  22
HETATM   22  O1  UNL     1      28.343   0.677  53.267  1.00  0.00    -0.353 OA
HETATM   23  C1  UNL     1      29.017   0.878  54.518  1.00  0.00     0.210 C 
ENDBRANCH   1  22
BRANCH   5  24
HETATM   24  C15 UNL     1      21.782  -0.152  53.432  1.00  0.00     0.335 C 
HETATM   25  C16 UNL     1      21.631  -0.632  54.862  1.00  0.00     0.068 C 
BRANCH  24  26
HETATM   26  N3  UNL     1      20.495   0.368  52.971  1.00  0.00     0.102 N 
HETATM   27  H22 UNL     1      19.738  -0.121  53.504  1.00  0.00     0.315 HD
HETATM   28  H23 UNL     1      20.452   1.409  53.117  1.00  0.00     0.315 HD
ENDBRANCH  24  26
ENDBRANCH   5  24
BRANCH   7  29
HETATM   29  O5  UNL     1      26.762  -1.604  53.428  1.00  0.00    -0.353 OA
HETATM   30  C19 UNL     1      27.012  -2.412  52.281  1.00  0.00     0.210 C 
ENDBRANCH   7  29
TORSDOF 9
ENDMDL
MODEL 3
REMARK VINA RESULT:      -6.6      1.685      2.479
REMARK  9 active torsions:
REMARK  status: ('A' for Active; 'I' for Inactive)
REMARK    1  A    between atoms: O1_2  and  C2_3 
REMARK    2  A    between atoms: C4_5  and  C5_6 
REMARK    3  A    between atoms: C5_6  and  N1_7 
REMARK    4  A    between atoms: N1_7  and  C6_8 
REMARK    5  A    between atoms: C10_13  and  O3_14 
REMARK    6  A    between atoms: C12_16  and  O4_17 
REMARK    7  A    between atoms: N2_20  and  C15_21 
REMARK    8  A    between atoms: C15_21  and  N3_23 
REMARK    9  A    between atoms: C18_25  and  O5_26 
ROOT
HETATM    1  C2  UNL     1      26.833   0.388  54.030  1.00  0.00     0.102 A 
HETATM    2  C3  UNL     1      26.911   1.326  53.072  1.00  0.00     0.054 A 
HETATM    3  C4  UNL     1      25.741   1.684  52.228  1.00  0.00     0.011 A 
HETATM    4  C14 UNL     1      24.468   1.020  52.423  1.00  0.00     0.068 A 
HETATM    5  N2  UNL     1      23.546   1.427  51.629  1.00  0.00    -0.254 NA
HETATM    6  C17 UNL     1      24.464   0.020  53.476  1.00  0.00     0.071 A 
HETATM    7  C18 UNL     1      25.536  -0.254  54.191  1.00  0.00     0.103 A 
ENDROOT
BRANCH   3   8
HETATM    8  C5  UNL     1      26.151   2.606  51.424  1.00  0.00     0.102 C 
BRANCH   8   9
HETATM    9  N1  UNL     1      26.490   3.667  50.629  1.00  0.00    -0.366 N 
HETATM   10  H6  UNL     1      27.283   4.188  50.236  1.00  0.00     0.165 HD
BRANCH   9  11
HETATM   11  C6  UNL     1      25.270   4.274  50.150  1.00  0.00     0.043 C 
HETATM   12  C7  UNL     1      24.471   3.698  49.227  1.00  0.00     0.028 C 
HETATM   13  C8  UNL     1      23.196   4.043  48.540  1.00  0.00     0.204 C 
HETATM   14  O2  UNL     1      23.298   5.354  48.017  1.00  0.00    -0.357 OA
HETATM   15  C9  UNL     1      24.103   6.435  48.418  1.00  0.00     0.170 C 
HETATM   16  C10 UNL     1      24.793   6.612  49.557  1.00  0.00     0.102 C 
HETATM   17  C12 UNL     1      24.803   5.596  50.654  1.00  0.00     0.228 C 
BRANCH  16  18
HETATM   18  O3  UNL     1      25.506   7.805  49.663  1.00  0.00    -0.355 OA
HETATM   19  C11 UNL     1      26.866   7.802  49.319  1.00  0.00     0.209 C 
ENDBRANCH  16  18
BRANCH  17  20
HETATM   20  O4  UNL     1      23.563   5.557  51.213  1.00  0.00    -0.378 OA
HETATM   21  C13 UNL     1      23.414   5.007  52.446  1.00  0.00     0.203 C 
ENDBRANCH  17  20
ENDBRANCH   9  11
ENDBRANCH   8   9
ENDBRANCH   3   8
BRANCH   1  22
HETATM   22  O1  UNL     1      27.824  -0.078  54.915  1.00  0.00    -0.353 OA
HETATM   23  C1  UNL     1      29.121  -0.304  54.342  1.00  0.00     0.210 C 
ENDBRANCH   1  22
BRANCH   5  24
HETATM   24  C15 UNL     1      22.193   0.945  51.597  1.00  0.00     0.335 C 
HETATM   25  C16 UNL     1      21.273   1.887  52.349  1.00  0.00     0.068 C 
BRANCH  24  26
HETATM   26  N3  UNL     1      21.763   0.883  50.200  1.00  0.00     0.102 N 
HETATM   27  H22 UNL     1      21.282   1.783  49.969  1.00  0.00     0.315 HD
HETATM   28  H23 UNL     1      22.592   0.722  49.573  1.00  0.00     0.315 HD
ENDBRANCH  24  26
ENDBRANCH   5  24
BRANCH   7  29
HETATM   29  O5  UNL     1      25.304  -1.232  55.130  1.00  0.00    -0.353 OA
HETATM   30  C19 UNL     1      24.037  -1.444  55.747  1.00  0.00     0.210 C 
ENDBRANCH   7  29
TORSDOF 9
ENDMDL
MODEL 4
REMARK VINA RESULT:      -6.5      2.577      4.652
REMARK  9 active torsions:
REMARK  status: ('A' for Active; 'I' for Inactive)
REMARK    1  A    between atoms: O1_2  and  C2_3 
REMARK    2  A    between atoms: C4_5  and  C5_6 
REMARK    3  A    between atoms: C5_6  and  N1_7 
REMARK    4  A    between atoms: N1_7  and  C6_8 
REMARK    5  A    between atoms: C10_13  and  O3_14 
REMARK    6  A    between atoms: C12_16  and  O4_17 
REMARK    7  A    between atoms: N2_20  and  C15_21 
REMARK    8  A    between atoms: C15_21  and  N3_23 
REMARK    9  A    between atoms: C18_25  and  O5_26 
ROOT
HETATM    1  C2  UNL     1      23.126   0.738  52.398  1.00  0.00     0.102 A 
HETATM    2  C3  UNL     1      24.004   1.459  51.681  1.00  0.00     0.054 A 
HETATM    3  C4  UNL     1      25.466   1.406  51.952  1.00  0.00     0.011 A 
HETATM    4  C14 UNL     1      25.985   0.563  53.009  1.00  0.00     0.068 A 
HETATM    5  N2  UNL     1      27.261   0.613  53.130  1.00  0.00    -0.254 NA
HETATM    6  C17 UNL     1      24.973  -0.184  53.736  1.00  0.00     0.071 A 
HETATM    7  C18 UNL     1      23.691  -0.095  53.450  1.00  0.00     0.103 A 
ENDROOT
BRANCH   3   8
HETATM    8  C5  UNL     1      26.013   2.202  51.097  1.00  0.00     0.102 C 
BRANCH   8   9
HETATM    9  N1  UNL     1      26.713   2.972  50.208  1.00  0.00    -0.366 N 
HETATM   10  H6  UNL     1      27.599   3.047  49.694  1.00  0.00     0.165 HD
BRANCH   9  11
HETATM   11  C6  UNL     1      25.885   4.099  49.843  1.00  0.00     0.043 C 
HETATM   12  C7  UNL     1      26.367   5.203  49.234  1.00  0.00     0.028 C 
HETATM   13  C8  UNL     1      25.808   6.493  48.743  1.00  0.00     0.204 C 
HETATM   14  O2  UNL     1      25.034   7.078  49.774  1.00  0.00    -0.357 OA
HETATM   15  C9  UNL     1      24.374   6.486  50.864  1.00  0.00     0.170 C 
HETATM   16  C10 UNL     1      24.069   5.196  51.083  1.00  0.00     0.102 C 
HETATM   17  C12 UNL     1      24.421   4.114  50.114  1.00  0.00     0.228 C 
BRANCH  16  18
HETATM   18  O3  UNL     1      23.401   4.918  52.274  1.00  0.00    -0.355 OA
HETATM   19  C11 UNL     1      22.041   4.578  52.214  1.00  0.00     0.209 C 
ENDBRANCH  16  18
BRANCH  17  20
HETATM   20  O4  UNL     1      23.663   4.278  48.996  1.00  0.00    -0.378 OA
HETATM   21  C13 UNL     1      22.718   3.349  48.698  1.00  0.00     0.203 C 
ENDBRANCH  17  20
ENDBRANCH   9  11
ENDBRANCH   8   9
ENDBRANCH   3   8
BRANCH   1  22
HETATM   22  O1  UNL     1      21.725   0.662  52.287  1.00  0.00    -0.353 OA
HETATM   23  C1  UNL     1      21.215   0.317  50.991  1.00  0.00     0.210 C 
ENDBRANCH   1  22
BRANCH   5  24
HETATM   24  C15 UNL     1      28.041  -0.115  54.092  1.00  0.00     0.335 C 
HETATM   25  C16 UNL     1      29.166  -0.867  53.409  1.00  0.00     0.068 C 
BRANCH  24  26
HETATM   26  N3  UNL     1      28.620   0.846  55.031  1.00  0.00     0.102 N 
HETATM   27  H22 UNL     1      29.180   1.539  54.483  1.00  0.00     0.315 HD
HETATM   28  H23 UNL     1      27.858   1.321  55.579  1.00  0.00     0.315 HD
ENDBRANCH  24  26
ENDBRANCH   5  24
BRANCH   7  29
HETATM   29  O5  UNL     1      22.916  -0.888  54.264  1.00  0.00    -0.353 OA
HETATM   30  C19 UNL     1      23.331  -1.333  55.553  1.00  0.00     0.210 C 
ENDBRANCH   7  29
TORSDOF 9
ENDMDL
MODEL 5
REMARK VINA RESULT:      -6.5      2.437      4.407
REMARK  9 active torsions:
REMARK  status: ('A' for Active; 'I' for Inactive)
REMARK    1  A    between atoms: O1_2  and  C2_3 
REMARK    2  A    between atoms: C4_5  and  C5_6 
REMARK    3  A    between atoms: C5_6  and  N1_7 
REMARK    4  A    between atoms: N1_7  and  C6_8 
REMARK    5  A    between atoms: C10_13  and  O3_14 
REMARK    6  A    between atoms: C12_16  and  O4_17 
REMARK    7  A    between atoms: N2_20  and  C15_21 
REMARK    8  A    between atoms: C15_21  and  N3_23 
REMARK    9  A    between atoms: C18_25  and  O5_26 
ROOT
HETATM    1  C2  UNL     1      23.181   0.586  52.358  1.00  0.00     0.102 A 
HETATM    2  C3  UNL     1      23.944   1.544  51.808  1.00  0.00     0.054 A 
HETATM    3  C4  UNL     1      25.378   1.704  52.165  1.00  0.00     0.011 A 
HETATM    4  C14 UNL     1      25.997   0.814  53.128  1.00  0.00     0.068 A 
HETATM    5  N2  UNL     1      27.238   1.064  53.338  1.00  0.00    -0.254 NA
HETATM    6  C17 UNL     1      25.107  -0.194  53.675  1.00  0.00     0.071 A 
HETATM    7  C18 UNL     1      23.842  -0.285  53.320  1.00  0.00     0.103 A 
ENDROOT
BRANCH   3   8
HETATM    8  C5  UNL     1      25.809   2.699  51.467  1.00  0.00     0.102 C 
BRANCH   8   9
HETATM    9  N1  UNL     1      26.164   3.832  50.787  1.00  0.00    -0.366 N 
HETATM   10  H6  UNL     1      26.963   4.415  50.506  1.00  0.00     0.165 HD
BRANCH   9  11
HETATM   11  C6  UNL     1      24.963   4.424  50.244  1.00  0.00     0.043 C 
HETATM   12  C7  UNL     1      24.313   3.924  49.172  1.00  0.00     0.028 C 
HETATM   13  C8  UNL     1      23.098   4.279  48.387  1.00  0.00     0.204 C 
HETATM   14  O2  UNL     1      23.162   5.650  48.040  1.00  0.00    -0.357 OA
HETATM   15  C9  UNL     1      23.838   6.715  48.658  1.00  0.00     0.170 C 
HETATM   16  C10 UNL     1      24.386   6.786  49.883  1.00  0.00     0.102 C 
HETATM   17  C12 UNL     1      24.350   5.642  50.844  1.00  0.00     0.228 C 
BRANCH  16  18
HETATM   18  O3  UNL     1      24.996   7.995  50.213  1.00  0.00    -0.355 OA
HETATM   19  C11 UNL     1      26.393   8.086  50.121  1.00  0.00     0.209 C 
ENDBRANCH  16  18
BRANCH  17  20
HETATM   20  O4  UNL     1      23.063   5.461  51.246  1.00  0.00    -0.378 OA
HETATM   21  C13 UNL     1      22.825   4.850  52.436  1.00  0.00     0.203 C 
ENDBRANCH  17  20
ENDBRANCH   9  11
ENDBRANCH   8   9
ENDBRANCH   3   8
BRANCH   1  22
HETATM   22  O1  UNL     1      21.821   0.287  52.146  1.00  0.00    -0.353 OA
HETATM   23  C1  UNL     1      20.881   1.243  52.661  1.00  0.00     0.210 C 
ENDBRANCH   1  22
BRANCH   5  24
HETATM   24  C15 UNL     1      28.096   0.346  54.240  1.00  0.00     0.335 C 
HETATM   25  C16 UNL     1      28.949  -0.652  53.483  1.00  0.00     0.068 C 
BRANCH  24  26
HETATM   26  N3  UNL     1      28.974   1.312  54.900  1.00  0.00     0.102 N 
HETATM   27  H22 UNL     1      29.040   1.052  55.911  1.00  0.00     0.315 HD
HETATM   28  H23 UNL     1      29.922   1.310  54.444  1.00  0.00     0.315 HD
ENDBRANCH  24  26
ENDBRANCH   5  24
BRANCH   7  29
HETATM   29  O5  UNL     1      23.189  -1.311  53.963  1.00  0.00    -0.353 OA
HETATM   30  C19 UNL     1      22.619  -1.186  55.264  1.00  0.00     0.210 C 
ENDBRANCH   7  29
TORSDOF 9
ENDMDL
MODEL 6
REMARK VINA RESULT:      -6.4      2.250      3.948
REMARK  9 active torsions:
REMARK  status: ('A' for Active; 'I' for Inactive)
REMARK    1  A    between atoms: O1_2  and  C2_3 
REMARK    2  A    between atoms: C4_5  and  C5_6 
REMARK    3  A    between atoms: C5_6  and  N1_7 
REMARK    4  A    between atoms: N1_7  and  C6_8 
REMARK    5  A    between atoms: C10_13  and  O3_14 
REMARK    6  A    between atoms: C12_16  and  O4_17 
REMARK    7  A    between atoms: N2_20  and  C15_21 
REMARK    8  A    between atoms: C15_21  and  N3_23 
REMARK    9  A    between atoms: C18_25  and  O5_26 
ROOT
HETATM    1  C2  UNL     1      21.705   1.481  52.485  1.00  0.00     0.102 A 
HETATM    2  C3  UNL     1      22.197   2.730  52.497  1.00  0.00     0.054 A 
HETATM    3  C4  UNL     1      23.628   3.006  52.794  1.00  0.00     0.011 A 
HETATM    4  C14 UNL     1      24.539   1.916  53.081  1.00  0.00     0.068 A 
HETATM    5  N2  UNL     1      25.741   2.297  53.317  1.00  0.00    -0.254 NA
HETATM    6  C17 UNL     1      23.931   0.598  53.048  1.00  0.00     0.071 A 
HETATM    7  C18 UNL     1      22.655   0.417  52.778  1.00  0.00     0.103 A 
ENDROOT
BRANCH   3   8
HETATM    8  C5  UNL     1      23.765   4.287  52.723  1.00  0.00     0.102 C 
BRANCH   8   9
HETATM    9  N1  UNL     1      23.786   5.655  52.712  1.00  0.00    -0.366 N 
HETATM   10  H6  UNL     1      23.844   6.488  53.311  1.00  0.00     0.165 HD
BRANCH   9  11
HETATM   11  C6  UNL     1      23.718   6.094  51.337  1.00  0.00     0.043 C 
HETATM   12  C7  UNL     1      22.600   6.603  50.780  1.00  0.00     0.028 C 
HETATM   13  C8  UNL     1      22.206   7.127  49.442  1.00  0.00     0.204 C 
HETATM   14  O2  UNL     1      22.590   6.190  48.453  1.00  0.00    -0.357 OA
HETATM   15  C9  UNL     1      23.600   5.213  48.467  1.00  0.00     0.170 C 
HETATM   16  C10 UNL     1      24.643   5.071  49.302  1.00  0.00     0.102 C 
HETATM   17  C12 UNL     1      24.898   6.016  50.432  1.00  0.00     0.228 C 
BRANCH  16  18
HETATM   18  O3  UNL     1      25.482   3.986  49.057  1.00  0.00    -0.355 OA
HETATM   19  C11 UNL     1      26.439   3.648  50.026  1.00  0.00     0.209 C 
ENDBRANCH  16  18
BRANCH  17  20
HETATM   20  O4  UNL     1      25.263   7.218  49.910  1.00  0.00    -0.378 OA
HETATM   21  C13 UNL     1      26.512   7.361  49.394  1.00  0.00     0.203 C 
ENDBRANCH  17  20
ENDBRANCH   9  11
ENDBRANCH   8   9
ENDBRANCH   3   8
BRANCH   1  22
HETATM   22  O1  UNL     1      20.395   1.034  52.228  1.00  0.00    -0.353 OA
HETATM   23  C1  UNL     1      19.432   2.054  51.921  1.00  0.00     0.210 C 
ENDBRANCH   1  22
BRANCH   5  24
HETATM   24  C15 UNL     1      26.847   1.435  53.631  1.00  0.00     0.335 C 
HETATM   25  C16 UNL     1      28.163   2.162  53.436  1.00  0.00     0.068 C 
BRANCH  24  26
HETATM   26  N3  UNL     1      26.733   1.039  55.035  1.00  0.00     0.102 N 
HETATM   27  H22 UNL     1      27.696   0.860  55.401  1.00  0.00     0.315 HD
HETATM   28  H23 UNL     1      26.250   1.793  55.586  1.00  0.00     0.315 HD
ENDBRANCH  24  26
ENDBRANCH   5  24
BRANCH   7  29
HETATM   29  O5  UNL     1      22.297  -0.911  52.802  1.00  0.00    -0.353 OA
HETATM   30  C19 UNL     1      21.909  -1.599  53.988  1.00  0.00     0.210 C 
ENDBRANCH   7  29
TORSDOF 9
ENDMDL
MODEL 7
REMARK VINA RESULT:      -6.3      2.964      5.543
REMARK  9 active torsions:
REMARK  status: ('A' for Active; 'I' for Inactive)
REMARK    1  A    between atoms: O1_2  and  C2_3 
REMARK    2  A    between atoms: C4_5  and  C5_6 
REMARK    3  A    between atoms: C5_6  and  N1_7 
REMARK    4  A    between atoms: N1_7  and  C6_8 
REMARK    5  A    between atoms: C10_13  and  O3_14 
REMARK    6  A    between atoms: C12_16  and  O4_17 
REMARK    7  A    between atoms: N2_20  and  C15_21 
REMARK    8  A    between atoms: C15_21  and  N3_23 
REMARK    9  A    between atoms: C18_25  and  O5_26 
ROOT
HETATM    1  C2  UNL     1      23.570   2.812  49.683  1.00  0.00     0.102 A 
HETATM    2  C3  UNL     1      24.701   3.397  49.256  1.00  0.00     0.054 A 
HETATM    3  C4  UNL     1      25.964   3.326  50.038  1.00  0.00     0.011 A 
HETATM    4  C14 UNL     1      26.006   2.611  51.297  1.00  0.00     0.068 A 
HETATM    5  N2  UNL     1      27.158   2.628  51.863  1.00  0.00    -0.254 NA
HETATM    6  C17 UNL     1      24.745   2.005  51.689  1.00  0.00     0.071 A 
HETATM    7  C18 UNL     1      23.658   2.104  50.953  1.00  0.00     0.103 A 
ENDROOT
BRANCH   3   8
HETATM    8  C5  UNL     1      26.841   3.980  49.355  1.00  0.00     0.102 C 
BRANCH   8   9
HETATM    9  N1  UNL     1      27.748   4.583  48.526  1.00  0.00    -0.366 N 
HETATM   10  H6  UNL     1      28.544   4.408  47.901  1.00  0.00     0.165 HD
BRANCH   9  11
HETATM   11  C6  UNL     1      27.469   6.001  48.514  1.00  0.00     0.043 C 
HETATM   12  C7  UNL     1      28.434   6.942  48.434  1.00  0.00     0.028 C 
HETATM   13  C8  UNL     1      28.486   8.430  48.403  1.00  0.00     0.204 C 
HETATM   14  O2  UNL     1      27.710   8.938  49.472  1.00  0.00    -0.357 OA
HETATM   15  C9  UNL     1      26.628   8.367  50.164  1.00  0.00     0.170 C 
HETATM   16  C10 UNL     1      25.865   7.311  49.838  1.00  0.00     0.102 C 
HETATM   17  C12 UNL     1      26.077   6.526  48.583  1.00  0.00     0.228 C 
BRANCH  16  18
HETATM   18  O3  UNL     1      24.855   6.982  50.740  1.00  0.00    -0.355 OA
HETATM   19  C11 UNL     1      23.766   7.857  50.871  1.00  0.00     0.209 C 
ENDBRANCH  16  18
BRANCH  17  20
HETATM   20  O4  UNL     1      25.739   7.311  47.525  1.00  0.00    -0.378 OA
HETATM   21  C13 UNL     1      24.424   7.506  47.243  1.00  0.00     0.203 C 
ENDBRANCH  17  20
ENDBRANCH   9  11
ENDBRANCH   8   9
ENDBRANCH   3   8
BRANCH   1  22
HETATM   22  O1  UNL     1      22.296   2.775  49.086  1.00  0.00    -0.353 OA
HETATM   23  C1  UNL     1      22.106   1.773  48.075  1.00  0.00     0.210 C 
ENDBRANCH   1  22
BRANCH   5  24
HETATM   24  C15 UNL     1      27.486   2.004  53.115  1.00  0.00     0.335 C 
HETATM   25  C16 UNL     1      28.884   2.393  53.554  1.00  0.00     0.068 C 
BRANCH  24  26
HETATM   26  N3  UNL     1      26.531   2.469  54.120  1.00  0.00     0.102 N 
HETATM   27  H22 UNL     1      26.155   1.632  54.623  1.00  0.00     0.315 HD
HETATM   28  H23 UNL     1      27.001   3.133  54.787  1.00  0.00     0.315 HD
ENDBRANCH  24  26
ENDBRANCH   5  24
BRANCH   7  29
HETATM   29  O5  UNL     1      22.583   1.456  51.516  1.00  0.00    -0.353 OA
HETATM   30  C19 UNL     1      22.659   0.719  52.734  1.00  0.00     0.210 C 
ENDBRANCH   7  29
TORSDOF 9
ENDMDL
MODEL 8
REMARK VINA RESULT:      -6.2      1.853      4.024
REMARK  9 active torsions:
REMARK  status: ('A' for Active; 'I' for Inactive)
REMARK    1  A    between atoms: O1_2  and  C2_3 
REMARK    2  A    between atoms: C4_5  and  C5_6 
REMARK    3  A    between atoms: C5_6  and  N1_7 
REMARK    4  A    between atoms: N1_7  and  C6_8 
REMARK    5  A    between atoms: C10_13  and  O3_14 
REMARK    6  A    between atoms: C12_16  and  O4_17 
REMARK    7  A    between atoms: N2_20  and  C15_21 
REMARK    8  A    between atoms: C15_21  and  N3_23 
REMARK    9  A    between atoms: C18_25  and  O5_26 
ROOT
HETATM    1  C2  UNL     1      25.386  -0.176  53.980  1.00  0.00     0.102 A 
HETATM    2  C3  UNL     1      24.214   0.304  53.535  1.00  0.00     0.054 A 
HETATM    3  C4  UNL     1      24.145   1.430  52.566  1.00  0.00     0.011 A 
HETATM    4  C14 UNL     1      25.361   2.044  52.070  1.00  0.00     0.068 A 
HETATM    5  N2  UNL     1      25.155   3.000  51.240  1.00  0.00    -0.254 NA
HETATM    6  C17 UNL     1      26.585   1.469  52.597  1.00  0.00     0.071 A 
HETATM    7  C18 UNL     1      26.582   0.470  53.456  1.00  0.00     0.103 A 
ENDROOT
BRANCH   3   8
HETATM    8  C5  UNL     1      22.890   1.637  52.350  1.00  0.00     0.102 C 
BRANCH   8   9
HETATM    9  N1  UNL     1      21.573   1.775  52.007  1.00  0.00    -0.366 N 
HETATM   10  H6  UNL     1      20.612   1.713  52.365  1.00  0.00     0.165 HD
BRANCH   9  11
HETATM   11  C6  UNL     1      21.511   2.176  50.620  1.00  0.00     0.043 C 
HETATM   12  C7  UNL     1      21.817   1.350  49.598  1.00  0.00     0.028 C 
HETATM   13  C8  UNL     1      21.859   1.444  48.113  1.00  0.00     0.204 C 
HETATM   14  O2  UNL     1      22.593   2.598  47.748  1.00  0.00    -0.357 OA
HETATM   15  C9  UNL     1      22.828   3.789  48.455  1.00  0.00     0.170 C 
HETATM   16  C10 UNL     1      22.212   4.273  49.546  1.00  0.00     0.102 C 
HETATM   17  C12 UNL     1      21.092   3.549  50.221  1.00  0.00     0.228 C 
BRANCH  16  18
HETATM   18  O3  UNL     1      22.678   5.498  50.021  1.00  0.00    -0.355 OA
HETATM   19  C11 UNL     1      22.177   5.976  51.242  1.00  0.00     0.209 C 
ENDBRANCH  16  18
BRANCH  17  20
HETATM   20  O4  UNL     1      20.011   3.568  49.395  1.00  0.00    -0.378 OA
HETATM   21  C13 UNL     1      18.766   3.503  49.937  1.00  0.00     0.203 C 
ENDBRANCH  17  20
ENDBRANCH   9  11
ENDBRANCH   8   9
ENDBRANCH   3   8
BRANCH   1  22
HETATM   22  O1  UNL     1      25.643  -1.222  54.887  1.00  0.00    -0.353 OA
HETATM   23  C1  UNL     1      24.813  -1.255  56.057  1.00  0.00     0.210 C 
ENDBRANCH   1  22
BRANCH   5  24
HETATM   24  C15 UNL     1      26.171   3.784  50.595  1.00  0.00     0.335 C 
HETATM   25  C16 UNL     1      26.503   3.210  49.232  1.00  0.00     0.068 C 
BRANCH  24  26
HETATM   26  N3  UNL     1      25.658   5.143  50.421  1.00  0.00     0.102 N 
HETATM   27  H22 UNL     1      25.378   5.258  49.419  1.00  0.00     0.315 HD
HETATM   28  H23 UNL     1      24.843   5.308  51.065  1.00  0.00     0.315 HD
ENDBRANCH  24  26
ENDBRANCH   5  24
BRANCH   7  29
HETATM   29  O5  UNL     1      27.851   0.087  53.820  1.00  0.00    -0.353 OA
HETATM   30  C19 UNL     1      28.973   0.967  53.805  1.00  0.00     0.210 C 
ENDBRANCH   7  29
TORSDOF 9
ENDMDL
MODEL 9
REMARK VINA RESULT:      -6.2      2.501      6.913
REMARK  9 active torsions:
REMARK  status: ('A' for Active; 'I' for Inactive)
REMARK    1  A    between atoms: O1_2  and  C2_3 
REMARK    2  A    between atoms: C4_5  and  C5_6 
REMARK    3  A    between atoms: C5_6  and  N1_7 
REMARK    4  A    between atoms: N1_7  and  C6_8 
REMARK    5  A    between atoms: C10_13  and  O3_14 
REMARK    6  A    between atoms: C12_16  and  O4_17 
REMARK    7  A    between atoms: N2_20  and  C15_21 
REMARK    8  A    between atoms: C15_21  and  N3_23 
REMARK    9  A    between atoms: C18_25  and  O5_26 
ROOT
HETATM    1  C2  UNL     1      27.829   5.823  48.270  1.00  0.00     0.102 A 
HETATM    2  C3  UNL     1      27.521   4.658  48.862  1.00  0.00     0.054 A 
HETATM    3  C4  UNL     1      26.205   4.435  49.515  1.00  0.00     0.011 A 
HETATM    4  C14 UNL     1      25.206   5.485  49.528  1.00  0.00     0.068 A 
HETATM    5  N2  UNL     1      24.118   5.155  50.123  1.00  0.00    -0.254 NA
HETATM    6  C17 UNL     1      25.613   6.712  48.867  1.00  0.00     0.071 A 
HETATM    7  C18 UNL     1      26.796   6.850  48.305  1.00  0.00     0.103 A 
ENDROOT
BRANCH   3   8
HETATM    8  C5  UNL     1      26.236   3.230  49.975  1.00  0.00     0.102 C 
BRANCH   8   9
HETATM    9  N1  UNL     1      26.398   1.941  50.405  1.00  0.00    -0.366 N 
HETATM   10  H6  UNL     1      26.440   0.962  50.095  1.00  0.00     0.165 HD
BRANCH   9  11
HETATM   11  C6  UNL     1      26.602   1.968  51.836  1.00  0.00     0.043 C 
HETATM   12  C7  UNL     1      27.776   2.310  52.407  1.00  0.00     0.028 C 
HETATM   13  C8  UNL     1      28.302   2.433  53.795  1.00  0.00     0.204 C 
HETATM   14  O2  UNL     1      27.999   1.247  54.506  1.00  0.00    -0.357 OA
HETATM   15  C9  UNL     1      26.979   0.302  54.307  1.00  0.00     0.170 C 
HETATM   16  C10 UNL     1      25.859   0.392  53.570  1.00  0.00     0.102 C 
HETATM   17  C12 UNL     1      25.512   1.618  52.788  1.00  0.00     0.228 C 
BRANCH  16  18
HETATM   18  O3  UNL     1      25.031  -0.729  53.572  1.00  0.00    -0.355 OA
HETATM   19  C11 UNL     1      23.644  -0.535  53.489  1.00  0.00     0.209 C 
ENDBRANCH  16  18
BRANCH  17  20
HETATM   20  O4  UNL     1      25.217   2.616  53.665  1.00  0.00    -0.378 OA
HETATM   21  C13 UNL     1      24.215   3.483  53.364  1.00  0.00     0.203 C 
ENDBRANCH  17  20
ENDBRANCH   9  11
ENDBRANCH   8   9
ENDBRANCH   3   8
BRANCH   1  22
HETATM   22  O1  UNL     1      29.010   6.212  47.610  1.00  0.00    -0.353 OA
HETATM   23  C1  UNL     1      30.130   6.515  48.455  1.00  0.00     0.210 C 
ENDBRANCH   1  22
BRANCH   5  24
HETATM   24  C15 UNL     1      22.964   5.996  50.286  1.00  0.00     0.335 C 
HETATM   25  C16 UNL     1      21.803   5.474  49.463  1.00  0.00     0.068 C 
BRANCH  24  26
HETATM   26  N3  UNL     1      22.584   5.981  51.698  1.00  0.00     0.102 N 
HETATM   27  H22 UNL     1      22.693   5.003  52.053  1.00  0.00     0.315 HD
HETATM   28  H23 UNL     1      23.185   6.652  52.242  1.00  0.00     0.315 HD
ENDBRANCH  24  26
ENDBRANCH   5  24
BRANCH   7  29
HETATM   29  O5  UNL     1      26.967   8.093  47.740  1.00  0.00    -0.353 OA
HETATM   30  C19 UNL     1      26.463   8.447  46.455  1.00  0.00     0.210 C 
ENDBRANCH   7  29
TORSDOF 9
ENDMDL
