MODEL 1
REMARK VINA RESULT:     -10.3      0.000      0.000
REMARK  5 active torsions:
REMARK  status: ('A' for Active; 'I' for Inactive)
REMARK    1  A    between atoms: O1_2  and  C2_3 
REMARK    2  A    between atoms: N1_11  and  C9_12 
REMARK    3  A    between atoms: C12_15  and  O3_16 
REMARK    4  A    between atoms: C15_20  and  N3_21 
REMARK    5  A    between atoms: N3_21  and  C16_22 
ROOT
HETATM    1  C2  UNL     1      17.307  -0.744  51.955  1.00  0.00     0.069 A 
HETATM    2  C3  UNL     1      17.596  -1.646  52.978  1.00  0.00     0.037 A 
HETATM    3  C4  UNL     1      18.799  -1.490  53.631  1.00  0.00     0.011 A 
HETATM    4  C5  UNL     1      19.734  -0.495  53.334  1.00  0.00    -0.038 A 
HETATM    5  C6  UNL     1      19.355   0.343  52.313  1.00  0.00     0.041 A 
HETATM    6  C7  UNL     1      18.176   0.266  51.602  1.00  0.00     0.054 A 
HETATM    7  C8  UNL     1      20.212   1.459  51.850  1.00  0.00     0.260 C 
HETATM    8  O2  UNL     1      19.556   2.433  51.352  1.00  0.00    -0.267 OA
HETATM    9  N1  UNL     1      21.655   1.603  51.877  1.00  0.00    -0.292 N 
HETATM   10  C14 UNL     1      22.490   0.755  52.650  1.00  0.00     0.160 A 
HETATM   11  N2  UNL     1      23.750   0.954  52.309  1.00  0.00    -0.044 NA
HETATM   12  C15 UNL     1      24.800   0.324  52.837  1.00  0.00     0.728 A 
HETATM   13  N4  UNL     1      24.473  -0.560  53.775  1.00  0.00    -0.074 NA
HETATM   14  C22 UNL     1      23.239  -0.830  54.186  1.00  0.00     0.147 A 
HETATM   15  C23 UNL     1      22.174  -0.165  53.623  1.00  0.00     0.011 A 
HETATM   16  C24 UNL     1      20.906  -0.605  54.218  1.00  0.00     0.083 C 
ENDROOT
BRANCH  12  17
HETATM   17  N3  UNL     1      26.109   0.604  52.405  1.00  0.00    -0.188 N 
HETATM   18  H16 UNL     1      26.202   1.333  51.640  1.00  0.00     0.184 HD
BRANCH  17  19
HETATM   19  C16 UNL     1      27.331   0.044  52.851  1.00  0.00     0.049 A 
HETATM   20  C17 UNL     1      27.684  -1.284  52.794  1.00  0.00     0.033 A 
HETATM   21  C18 UNL     1      28.869  -1.823  53.226  1.00  0.00     0.044 A 
HETATM   22  C19 UNL     1      29.803  -0.969  53.770  1.00  0.00     0.116 A 
HETATM   23  F1  UNL     1      30.986  -1.458  54.211  1.00  0.00    -0.206 F 
HETATM   24  C20 UNL     1      29.514   0.368  53.857  1.00  0.00     0.044 A 
HETATM   25  C21 UNL     1      28.305   0.843  53.403  1.00  0.00     0.033 A 
ENDBRANCH  17  19
ENDBRANCH  12  17
BRANCH   9  26
HETATM   26  C9  UNL     1      22.133   2.661  51.079  1.00  0.00     0.097 C 
HETATM   27  C10 UNL     1      23.002   2.405  49.922  1.00  0.00     0.028 C 
HETATM   28  C11 UNL     1      23.574   3.817  49.685  1.00  0.00     0.034 C 
HETATM   29  C12 UNL     1      23.995   4.206  51.059  1.00  0.00     0.120 C 
HETATM   30  C13 UNL     1      22.896   3.653  51.939  1.00  0.00     0.057 C 
BRANCH  29  31
HETATM   31  O3  UNL     1      25.253   3.702  51.386  1.00  0.00    -0.396 OA
HETATM   32  H13 UNL     1      25.317   3.572  52.361  1.00  0.00     0.210 HD
ENDBRANCH  29  31
ENDBRANCH   9  26
BRANCH   1  33
HETATM   33  O1  UNL     1      16.108  -0.841  51.250  1.00  0.00    -0.356 OA
HETATM   34  C1  UNL     1      16.154  -0.583  49.862  1.00  0.00     0.210 C 
ENDBRANCH   1  33
TORSDOF 5
ENDMDL
MODEL 2
REMARK VINA RESULT:     -10.1      3.744      5.872
REMARK  5 active torsions:
REMARK  status: ('A' for Active; 'I' for Inactive)
REMARK    1  A    between atoms: O1_2  and  C2_3 
REMARK    2  A    between atoms: N1_11  and  C9_12 
REMARK    3  A    between atoms: C12_15  and  O3_16 
REMARK    4  A    between atoms: C15_20  and  N3_21 
REMARK    5  A    between atoms: N3_21  and  C16_22 
ROOT
HETATM    1  C2  UNL     1      19.222  -0.266  52.543  1.00  0.00     0.069 A 
HETATM    2  C3  UNL     1      18.693   0.199  51.341  1.00  0.00     0.037 A 
HETATM    3  C4  UNL     1      19.574   0.749  50.438  1.00  0.00     0.011 A 
HETATM    4  C5  UNL     1      20.950   0.867  50.650  1.00  0.00    -0.038 A 
HETATM    5  C6  UNL     1      21.373   0.380  51.864  1.00  0.00     0.041 A 
HETATM    6  C7  UNL     1      20.569  -0.187  52.830  1.00  0.00     0.054 A 
HETATM    7  C8  UNL     1      22.796   0.416  52.276  1.00  0.00     0.260 C 
HETATM    8  O2  UNL     1      23.116  -0.516  53.085  1.00  0.00    -0.267 OA
HETATM    9  N1  UNL     1      23.853   1.336  51.903  1.00  0.00    -0.292 N 
HETATM   10  C14 UNL     1      23.734   2.229  50.808  1.00  0.00     0.160 A 
HETATM   11  N2  UNL     1      24.728   3.098  50.842  1.00  0.00    -0.044 NA
HETATM   12  C15 UNL     1      24.924   4.079  49.960  1.00  0.00     0.728 A 
HETATM   13  N4  UNL     1      24.006   4.124  49.000  1.00  0.00    -0.074 NA
HETATM   14  C22 UNL     1      22.972   3.297  48.880  1.00  0.00     0.147 A 
HETATM   15  C23 UNL     1      22.794   2.293  49.805  1.00  0.00     0.011 A 
HETATM   16  C24 UNL     1      21.603   1.495  49.490  1.00  0.00     0.083 C 
ENDROOT
BRANCH  12  17
HETATM   17  N3  UNL     1      26.015   4.959  50.082  1.00  0.00    -0.188 N 
HETATM   18  H16 UNL     1      26.507   4.965  51.023  1.00  0.00     0.184 HD
BRANCH  17  19
HETATM   19  C16 UNL     1      26.554   5.846  49.119  1.00  0.00     0.049 A 
HETATM   20  C17 UNL     1      27.810   5.775  48.562  1.00  0.00     0.033 A 
HETATM   21  C18 UNL     1      28.328   6.635  47.628  1.00  0.00     0.044 A 
HETATM   22  C19 UNL     1      27.531   7.673  47.198  1.00  0.00     0.116 A 
HETATM   23  F1  UNL     1      28.002   8.547  46.278  1.00  0.00    -0.206 F 
HETATM   24  C20 UNL     1      26.267   7.801  47.714  1.00  0.00     0.044 A 
HETATM   25  C21 UNL     1      25.808   6.902  48.648  1.00  0.00     0.033 A 
ENDBRANCH  17  19
ENDBRANCH  12  17
BRANCH   9  26
HETATM   26  C9  UNL     1      24.997   1.244  52.721  1.00  0.00     0.097 C 
HETATM   27  C10 UNL     1      25.374   2.342  53.623  1.00  0.00     0.028 C 
HETATM   28  C11 UNL     1      26.837   1.963  53.927  1.00  0.00     0.034 C 
HETATM   29  C12 UNL     1      27.369   1.696  52.563  1.00  0.00     0.120 C 
HETATM   30  C13 UNL     1      26.226   0.992  51.866  1.00  0.00     0.057 C 
BRANCH  29  31
HETATM   31  O3  UNL     1      27.759   2.866  51.912  1.00  0.00    -0.396 OA
HETATM   32  H13 UNL     1      27.950   2.672  50.965  1.00  0.00     0.210 HD
ENDBRANCH  29  31
ENDBRANCH   9  26
BRANCH   1  33
HETATM   33  O1  UNL     1      18.389  -0.836  53.506  1.00  0.00    -0.356 OA
HETATM   34  C1  UNL     1      17.449  -1.791  53.061  1.00  0.00     0.210 C 
ENDBRANCH   1  33
TORSDOF 5
ENDMDL
MODEL 3
REMARK VINA RESULT:      -9.5      3.532      8.342
REMARK  5 active torsions:
REMARK  status: ('A' for Active; 'I' for Inactive)
REMARK    1  A    between atoms: O1_2  and  C2_3 
REMARK    2  A    between atoms: N1_11  and  C9_12 
REMARK    3  A    between atoms: C12_15  and  O3_16 
REMARK    4  A    between atoms: C15_20  and  N3_21 
REMARK    5  A    between atoms: N3_21  and  C16_22 
ROOT
HETATM    1  C2  UNL     1      27.329   1.763  53.873  1.00  0.00     0.069 A 
HETATM    2  C3  UNL     1      27.394   0.672  54.738  1.00  0.00     0.037 A 
HETATM    3  C4  UNL     1      26.352  -0.227  54.695  1.00  0.00     0.011 A 
HETATM    4  C5  UNL     1      25.247  -0.113  53.847  1.00  0.00    -0.038 A 
HETATM    5  C6  UNL     1      25.277   0.995  53.034  1.00  0.00     0.041 A 
HETATM    6  C7  UNL     1      26.274   1.947  53.005  1.00  0.00     0.054 A 
HETATM    7  C8  UNL     1      24.195   1.292  52.066  1.00  0.00     0.260 C 
HETATM    8  O2  UNL     1      24.588   1.955  51.050  1.00  0.00    -0.267 OA
HETATM    9  N1  UNL     1      22.787   0.949  52.105  1.00  0.00    -0.292 N 
HETATM   10  C14 UNL     1      22.263  -0.017  53.002  1.00  0.00     0.160 A 
HETATM   11  N2  UNL     1      20.944   0.041  52.986  1.00  0.00    -0.044 NA
HETATM   12  C15 UNL     1      20.130  -0.728  53.709  1.00  0.00     0.728 A 
HETATM   13  N4  UNL     1      20.769  -1.599  54.484  1.00  0.00    -0.074 NA
HETATM   14  C22 UNL     1      22.089  -1.734  54.570  1.00  0.00     0.147 A 
HETATM   15  C23 UNL     1      22.905  -0.926  53.811  1.00  0.00     0.011 A 
HETATM   16  C24 UNL     1      24.320  -1.238  54.050  1.00  0.00     0.083 C 
ENDROOT
BRANCH  12  17
HETATM   17  N3  UNL     1      18.732  -0.589  53.625  1.00  0.00    -0.188 N 
HETATM   18  H16 UNL     1      18.346   0.377  53.835  1.00  0.00     0.184 HD
BRANCH  17  19
HETATM   19  C16 UNL     1      17.760  -1.566  53.300  1.00  0.00     0.049 A 
HETATM   20  C17 UNL     1      16.645  -1.372  52.518  1.00  0.00     0.033 A 
HETATM   21  C18 UNL     1      15.705  -2.320  52.203  1.00  0.00     0.044 A 
HETATM   22  C19 UNL     1      15.879  -3.589  52.709  1.00  0.00     0.116 A 
HETATM   23  F1  UNL     1      14.975  -4.557  52.425  1.00  0.00    -0.206 F 
HETATM   24  C20 UNL     1      16.970  -3.850  53.497  1.00  0.00     0.044 A 
HETATM   25  C21 UNL     1      17.876  -2.852  53.773  1.00  0.00     0.033 A 
ENDBRANCH  17  19
ENDBRANCH  12  17
BRANCH   9  26
HETATM   26  C9  UNL     1      22.007   1.656  51.168  1.00  0.00     0.097 C 
HETATM   27  C10 UNL     1      20.968   2.599  51.604  1.00  0.00     0.028 C 
HETATM   28  C11 UNL     1      20.159   2.746  50.300  1.00  0.00     0.034 C 
HETATM   29  C12 UNL     1      19.973   1.325  49.900  1.00  0.00     0.120 C 
HETATM   30  C13 UNL     1      21.297   0.680  50.246  1.00  0.00     0.057 C 
BRANCH  29  31
HETATM   31  O3  UNL     1      18.895   0.731  50.555  1.00  0.00    -0.396 OA
HETATM   32  H13 UNL     1      19.179  -0.122  50.959  1.00  0.00     0.210 HD
ENDBRANCH  29  31
ENDBRANCH   9  26
BRANCH   1  33
HETATM   33  O1  UNL     1      28.349   2.714  53.861  1.00  0.00    -0.356 OA
HETATM   34  C1  UNL     1      29.619   2.303  54.323  1.00  0.00     0.210 C 
ENDBRANCH   1  33
TORSDOF 5
ENDMDL
MODEL 4
REMARK VINA RESULT:      -9.3      3.423      5.197
REMARK  5 active torsions:
REMARK  status: ('A' for Active; 'I' for Inactive)
REMARK    1  A    between atoms: O1_2  and  C2_3 
REMARK    2  A    between atoms: N1_11  and  C9_12 
REMARK    3  A    between atoms: C12_15  and  O3_16 
REMARK    4  A    between atoms: C15_20  and  N3_21 
REMARK    5  A    between atoms: N3_21  and  C16_22 
ROOT
HETATM    1  C2  UNL     1      19.858  -0.488  53.438  1.00  0.00     0.069 A 
HETATM    2  C3  UNL     1      20.857  -1.313  53.952  1.00  0.00     0.037 A 
HETATM    3  C4  UNL     1      22.151  -0.845  53.893  1.00  0.00     0.011 A 
HETATM    4  C5  UNL     1      22.518   0.393  53.358  1.00  0.00    -0.038 A 
HETATM    5  C6  UNL     1      21.462   1.131  52.879  1.00  0.00     0.041 A 
HETATM    6  C7  UNL     1      20.138   0.748  52.893  1.00  0.00     0.054 A 
HETATM    7  C8  UNL     1      21.648   2.469  52.271  1.00  0.00     0.260 C 
HETATM    8  O2  UNL     1      20.634   3.232  52.399  1.00  0.00    -0.267 OA
HETATM    9  N1  UNL     1      22.786   3.026  51.566  1.00  0.00    -0.292 N 
HETATM   10  C14 UNL     1      24.070   2.423  51.598  1.00  0.00     0.160 A 
HETATM   11  N2  UNL     1      24.845   2.996  50.696  1.00  0.00    -0.044 NA
HETATM   12  C15 UNL     1      26.117   2.676  50.456  1.00  0.00     0.728 A 
HETATM   13  N4  UNL     1      26.571   1.692  51.226  1.00  0.00    -0.074 NA
HETATM   14  C22 UNL     1      25.872   1.054  52.159  1.00  0.00     0.147 A 
HETATM   15  C23 UNL     1      24.561   1.406  52.384  1.00  0.00     0.011 A 
HETATM   16  C24 UNL     1      23.974   0.587  53.452  1.00  0.00     0.083 C 
ENDROOT
BRANCH  12  17
HETATM   17  N3  UNL     1      26.863   3.345  49.469  1.00  0.00    -0.188 N 
HETATM   18  H16 UNL     1      27.623   2.777  48.995  1.00  0.00     0.184 HD
BRANCH  17  19
HETATM   19  C16 UNL     1      26.740   4.681  49.015  1.00  0.00     0.049 A 
HETATM   20  C17 UNL     1      25.584   5.426  48.987  1.00  0.00     0.033 A 
HETATM   21  C18 UNL     1      25.470   6.720  48.548  1.00  0.00     0.044 A 
HETATM   22  C19 UNL     1      26.607   7.347  48.090  1.00  0.00     0.116 A 
HETATM   23  F1  UNL     1      26.540   8.624  47.646  1.00  0.00    -0.206 F 
HETATM   24  C20 UNL     1      27.794   6.660  48.091  1.00  0.00     0.044 A 
HETATM   25  C21 UNL     1      27.839   5.363  48.546  1.00  0.00     0.033 A 
ENDBRANCH  17  19
ENDBRANCH  12  17
BRANCH   9  26
HETATM   26  C9  UNL     1      22.494   4.214  50.868  1.00  0.00     0.097 C 
HETATM   27  C10 UNL     1      21.982   5.399  51.570  1.00  0.00     0.028 C 
HETATM   28  C11 UNL     1      21.432   6.212  50.381  1.00  0.00     0.034 C 
HETATM   29  C12 UNL     1      20.637   5.184  49.656  1.00  0.00     0.120 C 
HETATM   30  C13 UNL     1      21.482   3.934  49.771  1.00  0.00     0.057 C 
BRANCH  29  31
HETATM   31  O3  UNL     1      19.363   5.026  50.197  1.00  0.00    -0.396 OA
HETATM   32  H13 UNL     1      18.683   5.267  49.525  1.00  0.00     0.210 HD
ENDBRANCH  29  31
ENDBRANCH   9  26
BRANCH   1  33
HETATM   33  O1  UNL     1      18.525  -0.896  53.463  1.00  0.00    -0.356 OA
HETATM   34  C1  UNL     1      17.806  -0.825  52.250  1.00  0.00     0.210 C 
ENDBRANCH   1  33
TORSDOF 5
ENDMDL
MODEL 5
REMARK VINA RESULT:      -9.2      4.624      9.072
REMARK  5 active torsions:
REMARK  status: ('A' for Active; 'I' for Inactive)
REMARK    1  A    between atoms: O1_2  and  C2_3 
REMARK    2  A    between atoms: N1_11  and  C9_12 
REMARK    3  A    between atoms: C12_15  and  O3_16 
REMARK    4  A    between atoms: C15_20  and  N3_21 
REMARK    5  A    between atoms: N3_21  and  C16_22 
ROOT
HETATM    1  C2  UNL     1      29.145   8.210  47.862  1.00  0.00     0.069 A 
HETATM    2  C3  UNL     1      29.928   7.059  47.931  1.00  0.00     0.037 A 
HETATM    3  C4  UNL     1      29.283   5.876  48.217  1.00  0.00     0.011 A 
HETATM    4  C5  UNL     1      27.908   5.761  48.439  1.00  0.00    -0.038 A 
HETATM    5  C6  UNL     1      27.226   6.951  48.349  1.00  0.00     0.041 A 
HETATM    6  C7  UNL     1      27.782   8.181  48.069  1.00  0.00     0.054 A 
HETATM    7  C8  UNL     1      25.761   7.036  48.555  1.00  0.00     0.260 C 
HETATM    8  O2  UNL     1      25.212   7.995  47.917  1.00  0.00    -0.267 OA
HETATM    9  N1  UNL     1      24.880   6.210  49.358  1.00  0.00    -0.292 N 
HETATM   10  C14 UNL     1      25.282   4.954  49.880  1.00  0.00     0.160 A 
HETATM   11  N2  UNL     1      24.383   4.536  50.753  1.00  0.00    -0.044 NA
HETATM   12  C15 UNL     1      24.445   3.391  51.434  1.00  0.00     0.728 A 
HETATM   13  N4  UNL     1      25.525   2.666  51.160  1.00  0.00    -0.074 NA
HETATM   14  C22 UNL     1      26.482   3.000  50.301  1.00  0.00     0.147 A 
HETATM   15  C23 UNL     1      26.393   4.188  49.611  1.00  0.00     0.011 A 
HETATM   16  C24 UNL     1      27.543   4.363  48.716  1.00  0.00     0.083 C 
ENDROOT
BRANCH  12  17
HETATM   17  N3  UNL     1      23.436   3.033  52.347  1.00  0.00    -0.188 N 
HETATM   18  H16 UNL     1      22.897   3.835  52.785  1.00  0.00     0.184 HD
BRANCH  17  19
HETATM   19  C16 UNL     1      23.036   1.741  52.768  1.00  0.00     0.049 A 
HETATM   20  C17 UNL     1      23.868   0.739  53.212  1.00  0.00     0.033 A 
HETATM   21  C18 UNL     1      23.477  -0.511  53.621  1.00  0.00     0.044 A 
HETATM   22  C19 UNL     1      22.133  -0.806  53.589  1.00  0.00     0.116 A 
HETATM   23  F1  UNL     1      21.702  -2.028  53.982  1.00  0.00    -0.206 F 
HETATM   24  C20 UNL     1      21.249   0.149  53.157  1.00  0.00     0.044 A 
HETATM   25  C21 UNL     1      21.708   1.384  52.761  1.00  0.00     0.033 A 
ENDBRANCH  17  19
ENDBRANCH  12  17
BRANCH   9  26
HETATM   26  C9  UNL     1      23.602   6.770  49.552  1.00  0.00     0.097 C 
HETATM   27  C10 UNL     1      23.201   7.308  50.859  1.00  0.00     0.028 C 
HETATM   28  C11 UNL     1      21.672   7.374  50.678  1.00  0.00     0.034 C 
HETATM   29  C12 UNL     1      21.375   6.021  50.133  1.00  0.00     0.120 C 
HETATM   30  C13 UNL     1      22.532   5.752  49.196  1.00  0.00     0.057 C 
BRANCH  29  31
HETATM   31  O3  UNL     1      21.259   5.063  51.138  1.00  0.00    -0.396 OA
HETATM   32  H13 UNL     1      22.145   4.680  51.337  1.00  0.00     0.210 HD
ENDBRANCH  29  31
ENDBRANCH   9  26
BRANCH   1  33
HETATM   33  O1  UNL     1      29.729   9.443  47.577  1.00  0.00    -0.356 OA
HETATM   34  C1  UNL     1      30.659   9.947  48.512  1.00  0.00     0.210 C 
ENDBRANCH   1  33
TORSDOF 5
ENDMDL
MODEL 6
REMARK VINA RESULT:      -9.2      4.108      5.666
REMARK  5 active torsions:
REMARK  status: ('A' for Active; 'I' for Inactive)
REMARK    1  A    between atoms: O1_2  and  C2_3 
REMARK    2  A    between atoms: N1_11  and  C9_12 
REMARK    3  A    between atoms: C12_15  and  O3_16 
REMARK    4  A    between atoms: C15_20  and  N3_21 
REMARK    5  A    between atoms: N3_21  and  C16_22 
ROOT
HETATM    1  C2  UNL     1      21.351  -0.386  53.387  1.00  0.00     0.069 A 
HETATM    2  C3  UNL     1      22.583  -0.963  53.689  1.00  0.00     0.037 A 
HETATM    3  C4  UNL     1      23.707  -0.201  53.459  1.00  0.00     0.011 A 
HETATM    4  C5  UNL     1      23.687   1.100  52.949  1.00  0.00    -0.038 A 
HETATM    5  C6  UNL     1      22.426   1.578  52.685  1.00  0.00     0.041 A 
HETATM    6  C7  UNL     1      21.246   0.892  52.880  1.00  0.00     0.054 A 
HETATM    7  C8  UNL     1      22.197   2.936  52.137  1.00  0.00     0.260 C 
HETATM    8  O2  UNL     1      21.070   3.434  52.466  1.00  0.00    -0.267 OA
HETATM    9  N1  UNL     1      23.045   3.761  51.300  1.00  0.00    -0.292 N 
HETATM   10  C14 UNL     1      24.420   3.478  51.096  1.00  0.00     0.160 A 
HETATM   11  N2  UNL     1      24.883   4.239  50.121  1.00  0.00    -0.044 NA
HETATM   12  C15 UNL     1      26.138   4.233  49.669  1.00  0.00     0.728 A 
HETATM   13  N4  UNL     1      26.927   3.368  50.299  1.00  0.00    -0.074 NA
HETATM   14  C22 UNL     1      26.556   2.562  51.288  1.00  0.00     0.147 A 
HETATM   15  C23 UNL     1      25.254   2.589  51.735  1.00  0.00     0.011 A 
HETATM   16  C24 UNL     1      25.055   1.631  52.829  1.00  0.00     0.083 C 
ENDROOT
BRANCH  12  17
HETATM   17  N3  UNL     1      26.537   5.082  48.620  1.00  0.00    -0.188 N 
HETATM   18  H16 UNL     1      25.879   5.138  47.790  1.00  0.00     0.184 HD
BRANCH  17  19
HETATM   19  C16 UNL     1      27.704   5.877  48.516  1.00  0.00     0.049 A 
HETATM   20  C17 UNL     1      28.982   5.419  48.292  1.00  0.00     0.033 A 
HETATM   21  C18 UNL     1      30.110   6.193  48.190  1.00  0.00     0.044 A 
HETATM   22  C19 UNL     1      29.968   7.556  48.322  1.00  0.00     0.116 A 
HETATM   23  F1  UNL     1      31.055   8.358  48.230  1.00  0.00    -0.206 F 
HETATM   24  C20 UNL     1      28.721   8.079  48.547  1.00  0.00     0.044 A 
HETATM   25  C21 UNL     1      27.630   7.246  48.638  1.00  0.00     0.033 A 
ENDBRANCH  17  19
ENDBRANCH  12  17
BRANCH   9  26
HETATM   26  C9  UNL     1      22.377   4.862  50.728  1.00  0.00     0.097 C 
HETATM   27  C10 UNL     1      22.151   4.942  49.279  1.00  0.00     0.028 C 
HETATM   28  C11 UNL     1      21.817   6.440  49.130  1.00  0.00     0.034 C 
HETATM   29  C12 UNL     1      22.918   7.072  49.906  1.00  0.00     0.120 C 
HETATM   30  C13 UNL     1      23.096   6.149  51.091  1.00  0.00     0.057 C 
BRANCH  29  31
HETATM   31  O3  UNL     1      24.081   7.211  49.150  1.00  0.00    -0.396 OA
HETATM   32  H13 UNL     1      24.195   6.425  48.566  1.00  0.00     0.210 HD
ENDBRANCH  29  31
ENDBRANCH   9  26
BRANCH   1  33
HETATM   33  O1  UNL     1      20.171  -1.098  53.593  1.00  0.00    -0.356 OA
HETATM   34  C1  UNL     1      18.989  -0.563  53.035  1.00  0.00     0.210 C 
ENDBRANCH   1  33
TORSDOF 5
ENDMDL
MODEL 7
REMARK VINA RESULT:      -9.0      4.246      8.430
REMARK  5 active torsions:
REMARK  status: ('A' for Active; 'I' for Inactive)
REMARK    1  A    between atoms: O1_2  and  C2_3 
REMARK    2  A    between atoms: N1_11  and  C9_12 
REMARK    3  A    between atoms: C12_15  and  O3_16 
REMARK    4  A    between atoms: C15_20  and  N3_21 
REMARK    5  A    between atoms: N3_21  and  C16_22 
ROOT
HETATM    1  C2  UNL     1      26.405   0.468  54.562  1.00  0.00     0.069 A 
HETATM    2  C3  UNL     1      25.655  -0.598  55.052  1.00  0.00     0.037 A 
HETATM    3  C4  UNL     1      24.447  -0.851  54.440  1.00  0.00     0.011 A 
HETATM    4  C5  UNL     1      23.937  -0.113  53.369  1.00  0.00    -0.038 A 
HETATM    5  C6  UNL     1      24.751   0.916  52.960  1.00  0.00     0.041 A 
HETATM    6  C7  UNL     1      25.972   1.246  53.509  1.00  0.00     0.054 A 
HETATM    7  C8  UNL     1      24.383   1.815  51.840  1.00  0.00     0.260 C 
HETATM    8  O2  UNL     1      25.389   2.303  51.227  1.00  0.00    -0.267 OA
HETATM    9  N1  UNL     1      23.077   2.213  51.353  1.00  0.00    -0.292 N 
HETATM   10  C14 UNL     1      21.886   1.541  51.730  1.00  0.00     0.160 A 
HETATM   11  N2  UNL     1      20.842   2.247  51.335  1.00  0.00    -0.044 NA
HETATM   12  C15 UNL     1      19.567   1.908  51.525  1.00  0.00     0.728 A 
HETATM   13  N4  UNL     1      19.412   0.756  52.170  1.00  0.00    -0.074 NA
HETATM   14  C22 UNL     1      20.396  -0.023  52.606  1.00  0.00     0.147 A 
HETATM   15  C23 UNL     1      21.703   0.351  52.396  1.00  0.00     0.011 A 
HETATM   16  C24 UNL     1      22.630  -0.645  52.949  1.00  0.00     0.083 C 
ENDROOT
BRANCH  12  17
HETATM   17  N3  UNL     1      18.519   2.730  51.068  1.00  0.00    -0.188 N 
HETATM   18  H16 UNL     1      18.749   3.364  50.249  1.00  0.00     0.184 HD
BRANCH  17  19
HETATM   19  C16 UNL     1      17.193   2.830  51.552  1.00  0.00     0.049 A 
HETATM   20  C17 UNL     1      16.280   1.804  51.638  1.00  0.00     0.033 A 
HETATM   21  C18 UNL     1      14.996   1.905  52.108  1.00  0.00     0.044 A 
HETATM   22  C19 UNL     1      14.563   3.140  52.537  1.00  0.00     0.116 A 
HETATM   23  F1  UNL     1      13.302   3.286  53.008  1.00  0.00    -0.206 F 
HETATM   24  C20 UNL     1      15.424   4.206  52.478  1.00  0.00     0.044 A 
HETATM   25  C21 UNL     1      16.700   4.036  51.995  1.00  0.00     0.033 A 
ENDBRANCH  17  19
ENDBRANCH  12  17
BRANCH   9  26
HETATM   26  C9  UNL     1      23.114   3.311  50.470  1.00  0.00     0.097 C 
HETATM   27  C10 UNL     1      23.924   3.272  49.245  1.00  0.00     0.028 C 
HETATM   28  C11 UNL     1      23.976   4.773  48.897  1.00  0.00     0.034 C 
HETATM   29  C12 UNL     1      24.353   5.373  50.206  1.00  0.00     0.120 C 
HETATM   30  C13 UNL     1      23.571   4.555  51.211  1.00  0.00     0.057 C 
BRANCH  29  31
HETATM   31  O3  UNL     1      25.728   5.330  50.428  1.00  0.00    -0.396 OA
HETATM   32  H13 UNL     1      25.948   5.821  51.254  1.00  0.00     0.210 HD
ENDBRANCH  29  31
ENDBRANCH   9  26
BRANCH   1  33
HETATM   33  O1  UNL     1      27.638   0.783  55.133  1.00  0.00    -0.356 OA
HETATM   34  C1  UNL     1      28.778   0.145  54.598  1.00  0.00     0.210 C 
ENDBRANCH   1  33
TORSDOF 5
ENDMDL
MODEL 8
REMARK VINA RESULT:      -8.9      3.650      7.803
REMARK  5 active torsions:
REMARK  status: ('A' for Active; 'I' for Inactive)
REMARK    1  A    between atoms: O1_2  and  C2_3 
REMARK    2  A    between atoms: N1_11  and  C9_12 
REMARK    3  A    between atoms: C12_15  and  O3_16 
REMARK    4  A    between atoms: C15_20  and  N3_21 
REMARK    5  A    between atoms: N3_21  and  C16_22 
ROOT
HETATM    1  C2  UNL     1      26.156   7.533  48.133  1.00  0.00     0.069 A 
HETATM    2  C3  UNL     1      27.422   6.955  48.202  1.00  0.00     0.037 A 
HETATM    3  C4  UNL     1      27.494   5.648  48.630  1.00  0.00     0.011 A 
HETATM    4  C5  UNL     1      26.387   4.876  48.995  1.00  0.00    -0.038 A 
HETATM    5  C6  UNL     1      25.186   5.536  48.892  1.00  0.00     0.041 A 
HETATM    6  C7  UNL     1      25.015   6.839  48.476  1.00  0.00     0.054 A 
HETATM    7  C8  UNL     1      23.899   4.888  49.236  1.00  0.00     0.260 C 
HETATM    8  O2  UNL     1      22.903   5.358  48.592  1.00  0.00    -0.267 OA
HETATM    9  N1  UNL     1      23.611   3.822  50.175  1.00  0.00    -0.292 N 
HETATM   10  C14 UNL     1      24.627   3.009  50.740  1.00  0.00     0.160 A 
HETATM   11  N2  UNL     1      24.117   2.291  51.723  1.00  0.00    -0.044 NA
HETATM   12  C15 UNL     1      24.793   1.418  52.471  1.00  0.00     0.728 A 
HETATM   13  N4  UNL     1      26.077   1.317  52.141  1.00  0.00    -0.074 NA
HETATM   14  C22 UNL     1      26.681   1.994  51.171  1.00  0.00     0.147 A 
HETATM   15  C23 UNL     1      25.959   2.889  50.415  1.00  0.00     0.011 A 
HETATM   16  C24 UNL     1      26.808   3.525  49.400  1.00  0.00     0.083 C 
ENDROOT
BRANCH  12  17
HETATM   17  N3  UNL     1      24.160   0.699  53.501  1.00  0.00    -0.188 N 
HETATM   18  H16 UNL     1      24.737   0.534  54.377  1.00  0.00     0.184 HD
BRANCH  17  19
HETATM   19  C16 UNL     1      22.852   0.159  53.535  1.00  0.00     0.049 A 
HETATM   20  C17 UNL     1      21.758   0.638  52.852  1.00  0.00     0.033 A 
HETATM   21  C18 UNL     1      20.492   0.112  52.885  1.00  0.00     0.044 A 
HETATM   22  C19 UNL     1      20.278  -0.999  53.671  1.00  0.00     0.116 A 
HETATM   23  F1  UNL     1      19.044  -1.551  53.734  1.00  0.00    -0.206 F 
HETATM   24  C20 UNL     1      21.327  -1.527  54.378  1.00  0.00     0.044 A 
HETATM   25  C21 UNL     1      22.573  -0.951  54.299  1.00  0.00     0.033 A 
ENDBRANCH  17  19
ENDBRANCH  12  17
BRANCH   9  26
HETATM   26  C9  UNL     1      22.238   3.672  50.457  1.00  0.00     0.097 C 
HETATM   27  C10 UNL     1      21.273   3.381  49.389  1.00  0.00     0.028 C 
HETATM   28  C11 UNL     1      19.953   3.743  50.099  1.00  0.00     0.034 C 
HETATM   29  C12 UNL     1      20.278   5.074  50.679  1.00  0.00     0.120 C 
HETATM   30  C13 UNL     1      21.711   4.921  51.141  1.00  0.00     0.057 C 
BRANCH  29  31
HETATM   31  O3  UNL     1      20.116   6.105  49.755  1.00  0.00    -0.396 OA
HETATM   32  H13 UNL     1      19.186   6.429  49.777  1.00  0.00     0.210 HD
ENDBRANCH  29  31
ENDBRANCH   9  26
BRANCH   1  33
HETATM   33  O1  UNL     1      26.007   8.853  47.709  1.00  0.00    -0.356 OA
HETATM   34  C1  UNL     1      25.085   9.657  48.414  1.00  0.00     0.210 C 
ENDBRANCH   1  33
TORSDOF 5
ENDMDL
MODEL 9
REMARK VINA RESULT:      -8.7      3.900      8.736
REMARK  5 active torsions:
REMARK  status: ('A' for Active; 'I' for Inactive)
REMARK    1  A    between atoms: O1_2  and  C2_3 
REMARK    2  A    between atoms: N1_11  and  C9_12 
REMARK    3  A    between atoms: C12_15  and  O3_16 
REMARK    4  A    between atoms: C15_20  and  N3_21 
REMARK    5  A    between atoms: N3_21  and  C16_22 
ROOT
HETATM    1  C2  UNL     1      27.941   0.264  53.831  1.00  0.00     0.069 A 
HETATM    2  C3  UNL     1      28.490   1.301  53.080  1.00  0.00     0.037 A 
HETATM    3  C4  UNL     1      27.614   2.109  52.389  1.00  0.00     0.011 A 
HETATM    4  C5  UNL     1      26.226   1.954  52.397  1.00  0.00    -0.038 A 
HETATM    5  C6  UNL     1      25.784   0.905  53.167  1.00  0.00     0.041 A 
HETATM    6  C7  UNL     1      26.581   0.044  53.891  1.00  0.00     0.054 A 
HETATM    7  C8  UNL     1      24.345   0.576  53.301  1.00  0.00     0.260 C 
HETATM    8  O2  UNL     1      24.052   0.012  54.406  1.00  0.00    -0.267 OA
HETATM    9  N1  UNL     1      23.247   0.795  52.380  1.00  0.00    -0.292 N 
HETATM   10  C14 UNL     1      23.354   1.657  51.258  1.00  0.00     0.160 A 
HETATM   11  N2  UNL     1      22.305   1.488  50.475  1.00  0.00    -0.044 NA
HETATM   12  C15 UNL     1      22.083   2.140  49.333  1.00  0.00     0.728 A 
HETATM   13  N4  UNL     1      23.037   3.013  49.024  1.00  0.00    -0.074 NA
HETATM   14  C22 UNL     1      24.127   3.254  49.745  1.00  0.00     0.147 A 
HETATM   15  C23 UNL     1      24.331   2.566  50.920  1.00  0.00     0.011 A 
HETATM   16  C24 UNL     1      25.584   2.982  51.561  1.00  0.00     0.083 C 
ENDROOT
BRANCH  12  17
HETATM   17  N3  UNL     1      20.933   1.889  48.563  1.00  0.00    -0.188 N 
HETATM   18  H16 UNL     1      21.099   1.634  47.547  1.00  0.00     0.184 HD
BRANCH  17  19
HETATM   19  C16 UNL     1      19.573   1.929  48.957  1.00  0.00     0.049 A 
HETATM   20  C17 UNL     1      18.959   1.072  49.841  1.00  0.00     0.033 A 
HETATM   21  C18 UNL     1      17.641   1.115  50.222  1.00  0.00     0.044 A 
HETATM   22  C19 UNL     1      16.847   2.099  49.677  1.00  0.00     0.116 A 
HETATM   23  F1  UNL     1      15.540   2.178  50.023  1.00  0.00    -0.206 F 
HETATM   24  C20 UNL     1      17.398   2.986  48.789  1.00  0.00     0.044 A 
HETATM   25  C21 UNL     1      18.727   2.888  48.450  1.00  0.00     0.033 A 
ENDBRANCH  17  19
ENDBRANCH  12  17
BRANCH   9  26
HETATM   26  C9  UNL     1      22.078   0.084  52.714  1.00  0.00     0.097 C 
HETATM   27  C10 UNL     1      21.210   0.526  53.815  1.00  0.00     0.028 C 
HETATM   28  C11 UNL     1      20.381  -0.753  54.049  1.00  0.00     0.034 C 
HETATM   29  C12 UNL     1      21.443  -1.794  54.103  1.00  0.00     0.120 C 
HETATM   30  C13 UNL     1      22.424  -1.359  53.036  1.00  0.00     0.057 C 
BRANCH  29  31
HETATM   31  O3  UNL     1      22.025  -1.886  55.366  1.00  0.00    -0.396 OA
HETATM   32  H13 UNL     1      21.787  -2.748  55.781  1.00  0.00     0.210 HD
ENDBRANCH  29  31
ENDBRANCH   9  26
BRANCH   1  33
HETATM   33  O1  UNL     1      28.767  -0.594  54.556  1.00  0.00    -0.356 OA
HETATM   34  C1  UNL     1      29.824  -1.216  53.855  1.00  0.00     0.210 C 
ENDBRANCH   1  33
TORSDOF 5
ENDMDL
