MODEL 1
REMARK VINA RESULT:      -8.1      0.000      0.000
REMARK  6 active torsions:
REMARK  status: ('A' for Active; 'I' for Inactive)
REMARK    1  A    between atoms: C2_2  and  C3_3 
REMARK    2  A    between atoms: C2_2  and  N2_12 
REMARK    3  A    between atoms: C3_3  and  C4_4 
REMARK    4  A    between atoms: C4_4  and  N1_5 
REMARK    5  A    between atoms: N2_12  and  C9_13 
REMARK    6  A    between atoms: C11_15  and  N3_16 
ROOT
HETATM    1  C9  UNL     1      21.982   1.004  52.838  1.00  0.00     0.012 C 
HETATM    2  C10 UNL     1      23.245   0.631  52.966  1.00  0.00     0.075 C 
HETATM    3  C11 UNL     1      24.378  -0.059  53.575  1.00  0.00     0.129 C 
HETATM    4  N4  UNL     1      23.919  -0.973  54.397  1.00  0.00    -0.225 NA
HETATM    5  C17 UNL     1      22.482  -1.116  54.531  1.00  0.00     0.234 C 
HETATM    6  N5  UNL     1      21.214  -1.139  54.908  1.00  0.00    -0.254 NA
HETATM    7  C18 UNL     1      20.184  -1.625  54.045  1.00  0.00     0.114 C 
HETATM    8  C19 UNL     1      20.092  -0.424  53.423  1.00  0.00    -0.002 C 
HETATM    9  C20 UNL     1      20.951   0.676  53.849  1.00  0.00     0.085 C 
ENDROOT
BRANCH   1  10
HETATM   10  N2  UNL     1      21.765   1.841  51.713  1.00  0.00    -0.389 N 
HETATM   11  H15 UNL     1      21.424   2.831  51.818  1.00  0.00     0.159 HD
BRANCH  10  12
HETATM   12  C2  UNL     1      22.023   1.308  50.415  1.00  0.00     0.079 C 
HETATM   13  C1  UNL     1      20.786   0.810  49.715  1.00  0.00     0.032 C 
BRANCH  12  14
HETATM   14  C3  UNL     1      22.674   2.343  49.488  1.00  0.00     0.044 C 
BRANCH  14  15
HETATM   15  C4  UNL     1      23.065   3.489  50.397  1.00  0.00     0.128 C 
BRANCH  15  16
HETATM   16  N1  UNL     1      24.491   3.629  50.571  1.00  0.00    -0.348 N 
HETATM   17  C5  UNL     1      25.193   3.130  51.763  1.00  0.00     0.152 C 
HETATM   18  C6  UNL     1      26.364   2.344  51.160  1.00  0.00     0.188 C 
HETATM   19  O1  UNL     1      27.197   3.251  50.546  1.00  0.00    -0.380 OA
HETATM   20  C7  UNL     1      26.708   3.859  49.422  1.00  0.00     0.270 C 
HETATM   21  C8  UNL     1      25.269   4.270  49.561  1.00  0.00     0.243 C 
HETATM   22  O2  UNL     1      24.762   5.137  48.829  1.00  0.00    -0.271 OA
ENDBRANCH  15  16
ENDBRANCH  14  15
ENDBRANCH  12  14
ENDBRANCH  10  12
ENDBRANCH   1  10
BRANCH   3  23
HETATM   23  N3  UNL     1      25.722  -0.447  53.770  1.00  0.00    -0.362 N 
HETATM   24  C12 UNL     1      26.298  -1.507  52.991  1.00  0.00     0.153 C 
HETATM   25  C13 UNL     1      27.744  -1.115  52.789  1.00  0.00     0.007 C 
HETATM   26  C14 UNL     1      28.306  -0.396  53.754  1.00  0.00    -0.012 C 
HETATM   27 BR1  UNL     1      30.131   0.053  53.415  1.00  0.00    -0.056 Br
HETATM   28  C15 UNL     1      27.711   0.084  55.016  1.00  0.00     0.066 C 
HETATM   29  C16 UNL     1      26.268   0.396  54.810  1.00  0.00     0.130 C 
ENDBRANCH   3  23
TORSDOF 6
ENDMDL
MODEL 2
REMARK VINA RESULT:      -7.9      1.359      1.991
REMARK  6 active torsions:
REMARK  status: ('A' for Active; 'I' for Inactive)
REMARK    1  A    between atoms: C2_2  and  C3_3 
REMARK    2  A    between atoms: C2_2  and  N2_12 
REMARK    3  A    between atoms: C3_3  and  C4_4 
REMARK    4  A    between atoms: C4_4  and  N1_5 
REMARK    5  A    between atoms: N2_12  and  C9_13 
REMARK    6  A    between atoms: C11_15  and  N3_16 
ROOT
HETATM    1  C9  UNL     1      22.129   1.574  52.370  1.00  0.00     0.012 C 
HETATM    2  C10 UNL     1      23.333   1.076  52.603  1.00  0.00     0.075 C 
HETATM    3  C11 UNL     1      24.339   0.291  53.312  1.00  0.00     0.129 C 
HETATM    4  N4  UNL     1      23.726  -0.542  54.120  1.00  0.00    -0.225 NA
HETATM    5  C17 UNL     1      22.276  -0.531  54.148  1.00  0.00     0.234 C 
HETATM    6  N5  UNL     1      20.988  -0.409  54.428  1.00  0.00    -0.254 NA
HETATM    7  C18 UNL     1      19.978  -0.812  53.502  1.00  0.00     0.114 C 
HETATM    8  C19 UNL     1      20.061   0.371  52.845  1.00  0.00    -0.002 C 
HETATM    9  C20 UNL     1      20.998   1.389  53.308  1.00  0.00     0.085 C 
ENDROOT
BRANCH   1  10
HETATM   10  N2  UNL     1      22.086   2.392  51.212  1.00  0.00    -0.389 N 
HETATM   11  H15 UNL     1      21.702   3.372  51.241  1.00  0.00     0.159 HD
BRANCH  10  12
HETATM   12  C2  UNL     1      22.580   1.854  49.986  1.00  0.00     0.079 C 
HETATM   13  C1  UNL     1      21.509   1.231  49.130  1.00  0.00     0.032 C 
BRANCH  12  14
HETATM   14  C3  UNL     1      23.271   2.923  49.128  1.00  0.00     0.044 C 
BRANCH  14  15
HETATM   15  C4  UNL     1      24.550   3.249  49.868  1.00  0.00     0.128 C 
BRANCH  15  16
HETATM   16  N1  UNL     1      24.792   4.666  50.007  1.00  0.00    -0.348 N 
HETATM   17  C5  UNL     1      25.751   5.389  49.157  1.00  0.00     0.152 C 
HETATM   18  C6  UNL     1      24.936   6.602  48.690  1.00  0.00     0.188 C 
HETATM   19  O1  UNL     1      24.695   7.388  49.794  1.00  0.00    -0.380 OA
HETATM   20  C7  UNL     1      23.844   6.871  50.732  1.00  0.00     0.270 C 
HETATM   21  C8  UNL     1      24.087   5.411  50.998  1.00  0.00     0.243 C 
HETATM   22  O2  UNL     1      23.693   4.862  52.041  1.00  0.00    -0.271 OA
ENDBRANCH  15  16
ENDBRANCH  14  15
ENDBRANCH  12  14
ENDBRANCH  10  12
ENDBRANCH   1  10
BRANCH   3  23
HETATM   23  N3  UNL     1      25.616  -0.228  53.619  1.00  0.00    -0.362 N 
HETATM   24  C12 UNL     1      26.095  -1.419  52.975  1.00  0.00     0.153 C 
HETATM   25  C13 UNL     1      27.585  -1.220  52.820  1.00  0.00     0.007 C 
HETATM   26  C14 UNL     1      28.185  -0.478  53.744  1.00  0.00    -0.012 C 
HETATM   27 BR1  UNL     1      30.064  -0.280  53.468  1.00  0.00    -0.056 Br
HETATM   28  C15 UNL     1      27.595   0.189  54.921  1.00  0.00     0.066 C 
HETATM   29  C16 UNL     1      26.212   0.645  54.605  1.00  0.00     0.130 C 
ENDBRANCH   3  23
TORSDOF 6
ENDMDL
MODEL 3
REMARK VINA RESULT:      -7.8      2.938      5.759
REMARK  6 active torsions:
REMARK  status: ('A' for Active; 'I' for Inactive)
REMARK    1  A    between atoms: C2_2  and  C3_3 
REMARK    2  A    between atoms: C2_2  and  N2_12 
REMARK    3  A    between atoms: C3_3  and  C4_4 
REMARK    4  A    between atoms: C4_4  and  N1_5 
REMARK    5  A    between atoms: N2_12  and  C9_13 
REMARK    6  A    between atoms: C11_15  and  N3_16 
ROOT
HETATM    1  C9  UNL     1      22.935   0.894  51.765  1.00  0.00     0.012 C 
HETATM    2  C10 UNL     1      23.796   1.849  51.454  1.00  0.00     0.075 C 
HETATM    3  C11 UNL     1      24.230   3.126  50.898  1.00  0.00     0.129 C 
HETATM    4  N4  UNL     1      23.172   3.876  50.698  1.00  0.00    -0.225 NA
HETATM    5  C17 UNL     1      21.872   3.336  51.047  1.00  0.00     0.234 C 
HETATM    6  N5  UNL     1      20.647   2.837  51.088  1.00  0.00    -0.254 NA
HETATM    7  C18 UNL     1      20.002   2.533  52.325  1.00  0.00     0.114 C 
HETATM    8  C19 UNL     1      20.616   1.325  52.387  1.00  0.00    -0.002 C 
HETATM    9  C20 UNL     1      21.523   0.922  51.318  1.00  0.00     0.085 C 
ENDROOT
BRANCH   1  10
HETATM   10  N2  UNL     1      23.539  -0.193  52.448  1.00  0.00    -0.389 N 
HETATM   11  H15 UNL     1      23.896  -1.039  51.933  1.00  0.00     0.159 HD
BRANCH  10  12
HETATM   12  C2  UNL     1      23.654  -0.118  53.868  1.00  0.00     0.079 C 
HETATM   13  C1  UNL     1      22.647  -0.967  54.597  1.00  0.00     0.032 C 
BRANCH  12  14
HETATM   14  C3  UNL     1      25.042  -0.556  54.354  1.00  0.00     0.044 C 
BRANCH  14  15
HETATM   15  C4  UNL     1      25.796  -0.930  53.096  1.00  0.00     0.128 C 
BRANCH  15  16
HETATM   16  N1  UNL     1      27.085  -0.290  52.982  1.00  0.00    -0.348 N 
HETATM   17  C5  UNL     1      27.239   1.098  52.524  1.00  0.00     0.152 C 
HETATM   18  C6  UNL     1      28.161   1.704  53.589  1.00  0.00     0.188 C 
HETATM   19  O1  UNL     1      29.390   1.095  53.466  1.00  0.00    -0.380 OA
HETATM   20  C7  UNL     1      29.450  -0.225  53.815  1.00  0.00     0.270 C 
HETATM   21  C8  UNL     1      28.268  -1.013  53.323  1.00  0.00     0.243 C 
HETATM   22  O2  UNL     1      28.307  -2.250  53.211  1.00  0.00    -0.271 OA
ENDBRANCH  15  16
ENDBRANCH  14  15
ENDBRANCH  12  14
ENDBRANCH  10  12
ENDBRANCH   1  10
BRANCH   3  23
HETATM   23  N3  UNL     1      25.124   4.150  50.512  1.00  0.00    -0.362 N 
HETATM   24  C12 UNL     1      26.419   3.828  49.981  1.00  0.00     0.153 C 
HETATM   25  C13 UNL     1      26.710   4.900  48.956  1.00  0.00     0.007 C 
HETATM   26  C14 UNL     1      26.181   6.097  49.181  1.00  0.00    -0.012 C 
HETATM   27 BR1  UNL     1      26.599   7.387  47.837  1.00  0.00    -0.056 Br
HETATM   28  C15 UNL     1      25.335   6.537  50.307  1.00  0.00     0.066 C 
HETATM   29  C16 UNL     1      24.468   5.413  50.761  1.00  0.00     0.130 C 
ENDBRANCH   3  23
TORSDOF 6
ENDMDL
MODEL 4
REMARK VINA RESULT:      -7.3      2.367      3.765
REMARK  6 active torsions:
REMARK  status: ('A' for Active; 'I' for Inactive)
REMARK    1  A    between atoms: C2_2  and  C3_3 
REMARK    2  A    between atoms: C2_2  and  N2_12 
REMARK    3  A    between atoms: C3_3  and  C4_4 
REMARK    4  A    between atoms: C4_4  and  N1_5 
REMARK    5  A    between atoms: N2_12  and  C9_13 
REMARK    6  A    between atoms: C11_15  and  N3_16 
ROOT
HETATM    1  C9  UNL     1      23.078   3.779  52.395  1.00  0.00     0.012 C 
HETATM    2  C10 UNL     1      24.221   3.278  52.834  1.00  0.00     0.075 C 
HETATM    3  C11 UNL     1      25.167   2.226  53.193  1.00  0.00     0.129 C 
HETATM    4  N4  UNL     1      24.756   1.096  52.666  1.00  0.00    -0.225 NA
HETATM    5  C17 UNL     1      23.536   1.108  51.882  1.00  0.00     0.234 C 
HETATM    6  N5  UNL     1      22.318   0.975  51.383  1.00  0.00    -0.254 NA
HETATM    7  C18 UNL     1      21.967   1.514  50.107  1.00  0.00     0.114 C 
HETATM    8  C19 UNL     1      21.732   2.734  50.650  1.00  0.00    -0.002 C 
HETATM    9  C20 UNL     1      21.905   2.931  52.085  1.00  0.00     0.085 C 
ENDROOT
BRANCH   1  10
HETATM   10  N2  UNL     1      23.068   5.198  52.381  1.00  0.00    -0.389 N 
HETATM   11  H15 UNL     1      23.124   5.760  53.269  1.00  0.00     0.159 HD
BRANCH  10  12
HETATM   12  C2  UNL     1      22.979   5.860  51.120  1.00  0.00     0.079 C 
HETATM   13  C1  UNL     1      21.788   6.773  51.004  1.00  0.00     0.032 C 
BRANCH  12  14
HETATM   14  C3  UNL     1      24.223   6.711  50.830  1.00  0.00     0.044 C 
BRANCH  14  15
HETATM   15  C4  UNL     1      25.230   5.744  50.245  1.00  0.00     0.128 C 
BRANCH  15  16
HETATM   16  N1  UNL     1      26.000   6.299  49.158  1.00  0.00    -0.348 N 
HETATM   17  C5  UNL     1      25.635   7.560  48.495  1.00  0.00     0.152 C 
HETATM   18  C6  UNL     1      26.960   8.333  48.490  1.00  0.00     0.188 C 
HETATM   19  O1  UNL     1      27.824   7.666  47.650  1.00  0.00    -0.380 OA
HETATM   20  C7  UNL     1      28.259   6.442  48.076  1.00  0.00     0.270 C 
HETATM   21  C8  UNL     1      27.163   5.616  48.692  1.00  0.00     0.243 C 
HETATM   22  O2  UNL     1      27.255   4.381  48.797  1.00  0.00    -0.271 OA
ENDBRANCH  15  16
ENDBRANCH  14  15
ENDBRANCH  12  14
ENDBRANCH  10  12
ENDBRANCH   1  10
BRANCH   3  23
HETATM   23  N3  UNL     1      26.356   1.650  53.693  1.00  0.00    -0.362 N 
HETATM   24  C12 UNL     1      26.311   0.691  54.761  1.00  0.00     0.153 C 
HETATM   25  C13 UNL     1      27.435  -0.279  54.477  1.00  0.00     0.007 C 
HETATM   26  C14 UNL     1      28.496   0.209  53.844  1.00  0.00    -0.012 C 
HETATM   27 BR1  UNL     1      29.864  -1.084  53.527  1.00  0.00    -0.056 Br
HETATM   28  C15 UNL     1      28.739   1.587  53.373  1.00  0.00     0.066 C 
HETATM   29  C16 UNL     1      27.456   2.209  52.940  1.00  0.00     0.130 C 
ENDBRANCH   3  23
TORSDOF 6
ENDMDL
MODEL 5
REMARK VINA RESULT:      -7.3      2.922      5.705
REMARK  6 active torsions:
REMARK  status: ('A' for Active; 'I' for Inactive)
REMARK    1  A    between atoms: C2_2  and  C3_3 
REMARK    2  A    between atoms: C2_2  and  N2_12 
REMARK    3  A    between atoms: C3_3  and  C4_4 
REMARK    4  A    between atoms: C4_4  and  N1_5 
REMARK    5  A    between atoms: N2_12  and  C9_13 
REMARK    6  A    between atoms: C11_15  and  N3_16 
ROOT
HETATM    1  C9  UNL     1      21.692   0.784  51.479  1.00  0.00     0.012 C 
HETATM    2  C10 UNL     1      22.447   1.850  51.267  1.00  0.00     0.075 C 
HETATM    3  C11 UNL     1      22.774   3.171  50.739  1.00  0.00     0.129 C 
HETATM    4  N4  UNL     1      21.663   3.758  50.362  1.00  0.00    -0.225 NA
HETATM    5  C17 UNL     1      20.415   3.040  50.534  1.00  0.00     0.234 C 
HETATM    6  N5  UNL     1      19.280   2.370  50.411  1.00  0.00    -0.254 NA
HETATM    7  C18 UNL     1      18.506   1.989  51.550  1.00  0.00     0.114 C 
HETATM    8  C19 UNL     1      19.268   0.884  51.740  1.00  0.00    -0.002 C 
HETATM    9  C20 UNL     1      20.373   0.604  50.829  1.00  0.00     0.085 C 
ENDROOT
BRANCH   1  10
HETATM   10  N2  UNL     1      22.333  -0.197  52.278  1.00  0.00    -0.389 N 
HETATM   11  H15 UNL     1      22.588  -1.143  51.893  1.00  0.00     0.159 HD
BRANCH  10  12
HETATM   12  C2  UNL     1      22.631   0.127  53.635  1.00  0.00     0.079 C 
HETATM   13  C1  UNL     1      21.532  -0.243  54.595  1.00  0.00     0.032 C 
BRANCH  12  14
HETATM   14  C3  UNL     1      23.906  -0.573  54.125  1.00  0.00     0.044 C 
BRANCH  14  15
HETATM   15  C4  UNL     1      24.986  -0.137  53.159  1.00  0.00     0.128 C 
BRANCH  15  16
HETATM   16  N1  UNL     1      26.057   0.603  53.784  1.00  0.00    -0.348 N 
HETATM   17  C5  UNL     1      26.671   0.181  55.052  1.00  0.00     0.152 C 
HETATM   18  C6  UNL     1      28.171   0.245  54.736  1.00  0.00     0.188 C 
HETATM   19  O1  UNL     1      28.497   1.569  54.545  1.00  0.00    -0.380 OA
HETATM   20  C7  UNL     1      27.987   2.163  53.424  1.00  0.00     0.270 C 
HETATM   21  C8  UNL     1      26.554   1.789  53.167  1.00  0.00     0.243 C 
HETATM   22  O2  UNL     1      25.817   2.482  52.445  1.00  0.00    -0.271 OA
ENDBRANCH  15  16
ENDBRANCH  14  15
ENDBRANCH  12  14
ENDBRANCH  10  12
ENDBRANCH   1  10
BRANCH   3  23
HETATM   23  N3  UNL     1      23.563   4.308  50.456  1.00  0.00    -0.362 N 
HETATM   24  C12 UNL     1      24.315   4.391  49.236  1.00  0.00     0.153 C 
HETATM   25  C13 UNL     1      24.292   5.852  48.849  1.00  0.00     0.007 C 
HETATM   26  C14 UNL     1      24.226   6.730  49.844  1.00  0.00    -0.012 C 
HETATM   27 BR1  UNL     1      24.200   8.548  49.264  1.00  0.00    -0.056 Br
HETATM   28  C15 UNL     1      24.172   6.478  51.297  1.00  0.00     0.066 C 
HETATM   29  C16 UNL     1      23.417   5.222  51.567  1.00  0.00     0.130 C 
ENDBRANCH   3  23
TORSDOF 6
ENDMDL
MODEL 6
REMARK VINA RESULT:      -7.3      1.875      2.543
REMARK  6 active torsions:
REMARK  status: ('A' for Active; 'I' for Inactive)
REMARK    1  A    between atoms: C2_2  and  C3_3 
REMARK    2  A    between atoms: C2_2  and  N2_12 
REMARK    3  A    between atoms: C3_3  and  C4_4 
REMARK    4  A    between atoms: C4_4  and  N1_5 
REMARK    5  A    between atoms: N2_12  and  C9_13 
REMARK    6  A    between atoms: C11_15  and  N3_16 
ROOT
HETATM    1  C9  UNL     1      21.455   1.247  53.242  1.00  0.00     0.012 C 
HETATM    2  C10 UNL     1      22.763   1.232  53.044  1.00  0.00     0.075 C 
HETATM    3  C11 UNL     1      24.142   0.810  53.266  1.00  0.00     0.129 C 
HETATM    4  N4  UNL     1      24.132  -0.305  53.957  1.00  0.00    -0.225 NA
HETATM    5  C17 UNL     1      22.850  -0.867  54.335  1.00  0.00     0.234 C 
HETATM    6  N5  UNL     1      21.755  -1.303  54.938  1.00  0.00    -0.254 NA
HETATM    7  C18 UNL     1      20.696  -1.929  54.211  1.00  0.00     0.114 C 
HETATM    8  C19 UNL     1      20.168  -0.725  53.878  1.00  0.00    -0.002 C 
HETATM    9  C20 UNL     1      20.810   0.499  54.345  1.00  0.00     0.085 C 
ENDROOT
BRANCH   1  10
HETATM   10  N2  UNL     1      20.776   2.144  52.376  1.00  0.00    -0.389 N 
HETATM   11  H15 UNL     1      20.187   2.932  52.749  1.00  0.00     0.159 HD
BRANCH  10  12
HETATM   12  C2  UNL     1      20.907   1.952  50.969  1.00  0.00     0.079 C 
HETATM   13  C1  UNL     1      20.254   0.690  50.471  1.00  0.00     0.032 C 
BRANCH  12  14
HETATM   14  C3  UNL     1      20.296   3.113  50.173  1.00  0.00     0.044 C 
BRANCH  14  15
HETATM   15  C4  UNL     1      20.704   4.361  50.927  1.00  0.00     0.128 C 
BRANCH  15  16
HETATM   16  N1  UNL     1      22.025   4.835  50.589  1.00  0.00    -0.348 N 
HETATM   17  C5  UNL     1      22.489   4.950  49.199  1.00  0.00     0.152 C 
HETATM   18  C6  UNL     1      23.070   6.369  49.155  1.00  0.00     0.188 C 
HETATM   19  O1  UNL     1      24.187   6.384  49.960  1.00  0.00    -0.380 OA
HETATM   20  C7  UNL     1      23.966   6.254  51.304  1.00  0.00     0.270 C 
HETATM   21  C8  UNL     1      22.930   5.213  51.626  1.00  0.00     0.243 C 
HETATM   22  O2  UNL     1      22.854   4.692  52.752  1.00  0.00    -0.271 OA
ENDBRANCH  15  16
ENDBRANCH  14  15
ENDBRANCH  12  14
ENDBRANCH  10  12
ENDBRANCH   1  10
BRANCH   3  23
HETATM   23  N3  UNL     1      25.546   0.794  53.113  1.00  0.00    -0.362 N 
HETATM   24  C12 UNL     1      26.362   1.792  53.746  1.00  0.00     0.153 C 
HETATM   25  C13 UNL     1      27.643   1.083  54.122  1.00  0.00     0.007 C 
HETATM   26  C14 UNL     1      28.020   0.079  53.339  1.00  0.00    -0.012 C 
HETATM   27 BR1  UNL     1      29.645  -0.758  53.888  1.00  0.00    -0.056 Br
HETATM   28  C15 UNL     1      27.356  -0.451  52.132  1.00  0.00     0.066 C 
HETATM   29  C16 UNL     1      25.876  -0.336  52.274  1.00  0.00     0.130 C 
ENDBRANCH   3  23
TORSDOF 6
ENDMDL
MODEL 7
REMARK VINA RESULT:      -7.3      3.427      5.832
REMARK  6 active torsions:
REMARK  status: ('A' for Active; 'I' for Inactive)
REMARK    1  A    between atoms: C2_2  and  C3_3 
REMARK    2  A    between atoms: C2_2  and  N2_12 
REMARK    3  A    between atoms: C3_3  and  C4_4 
REMARK    4  A    between atoms: C4_4  and  N1_5 
REMARK    5  A    between atoms: N2_12  and  C9_13 
REMARK    6  A    between atoms: C11_15  and  N3_16 
ROOT
HETATM    1  C9  UNL     1      25.506   2.146  51.617  1.00  0.00     0.012 C 
HETATM    2  C10 UNL     1      24.260   1.916  51.998  1.00  0.00     0.075 C 
HETATM    3  C11 UNL     1      23.155   1.139  52.551  1.00  0.00     0.129 C 
HETATM    4  N4  UNL     1      23.649   0.105  53.190  1.00  0.00    -0.225 NA
HETATM    5  C17 UNL     1      25.089  -0.054  53.229  1.00  0.00     0.234 C 
HETATM    6  N5  UNL     1      26.355  -0.416  53.094  1.00  0.00    -0.254 NA
HETATM    7  C18 UNL     1      27.412   0.291  53.745  1.00  0.00     0.114 C 
HETATM    8  C19 UNL     1      27.454   1.211  52.750  1.00  0.00    -0.002 C 
HETATM    9  C20 UNL     1      26.544   1.090  51.616  1.00  0.00     0.085 C 
ENDROOT
BRANCH   1  10
HETATM   10  N2  UNL     1      25.692   3.455  51.101  1.00  0.00    -0.389 N 
HETATM   11  H15 UNL     1      25.899   4.272  51.730  1.00  0.00     0.159 HD
BRANCH  10  12
HETATM   12  C2  UNL     1      25.592   3.645  49.691  1.00  0.00     0.079 C 
HETATM   13  C1  UNL     1      24.179   3.569  49.174  1.00  0.00     0.032 C 
BRANCH  12  14
HETATM   14  C3  UNL     1      26.154   5.004  49.254  1.00  0.00     0.044 C 
BRANCH  14  15
HETATM   15  C4  UNL     1      27.554   4.707  48.760  1.00  0.00     0.128 C 
BRANCH  15  16
HETATM   16  N1  UNL     1      28.263   5.875  48.293  1.00  0.00    -0.348 N 
HETATM   17  C5  UNL     1      27.579   7.137  47.973  1.00  0.00     0.152 C 
HETATM   18  C6  UNL     1      28.419   8.174  48.728  1.00  0.00     0.188 C 
HETATM   19  O1  UNL     1      29.658   8.218  48.129  1.00  0.00    -0.380 OA
HETATM   20  C7  UNL     1      30.445   7.110  48.283  1.00  0.00     0.270 C 
HETATM   21  C8  UNL     1      29.679   5.825  48.130  1.00  0.00     0.243 C 
HETATM   22  O2  UNL     1      30.248   4.752  47.869  1.00  0.00    -0.271 OA
ENDBRANCH  15  16
ENDBRANCH  14  15
ENDBRANCH  12  14
ENDBRANCH  10  12
ENDBRANCH   1  10
BRANCH   3  23
HETATM   23  N3  UNL     1      21.828   0.840  52.932  1.00  0.00    -0.362 N 
HETATM   24  C12 UNL     1      20.719   1.306  52.148  1.00  0.00     0.153 C 
HETATM   25  C13 UNL     1      19.672   0.220  52.249  1.00  0.00     0.007 C 
HETATM   26  C14 UNL     1      19.654  -0.485  53.374  1.00  0.00    -0.012 C 
HETATM   27 BR1  UNL     1      18.302  -1.833  53.414  1.00  0.00    -0.056 Br
HETATM   28  C15 UNL     1      20.523  -0.358  54.560  1.00  0.00     0.066 C 
HETATM   29  C16 UNL     1      21.894   0.052  54.142  1.00  0.00     0.130 C 
ENDBRANCH   3  23
TORSDOF 6
ENDMDL
MODEL 8
REMARK VINA RESULT:      -7.2      3.223      5.334
REMARK  6 active torsions:
REMARK  status: ('A' for Active; 'I' for Inactive)
REMARK    1  A    between atoms: C2_2  and  C3_3 
REMARK    2  A    between atoms: C2_2  and  N2_12 
REMARK    3  A    between atoms: C3_3  and  C4_4 
REMARK    4  A    between atoms: C4_4  and  N1_5 
REMARK    5  A    between atoms: N2_12  and  C9_13 
REMARK    6  A    between atoms: C11_15  and  N3_16 
ROOT
HETATM    1  C9  UNL     1      25.335   4.276  50.417  1.00  0.00     0.012 C 
HETATM    2  C10 UNL     1      25.918   3.298  51.091  1.00  0.00     0.075 C 
HETATM    3  C11 UNL     1      25.983   2.054  51.852  1.00  0.00     0.129 C 
HETATM    4  N4  UNL     1      24.856   1.403  51.685  1.00  0.00    -0.225 NA
HETATM    5  C17 UNL     1      23.840   1.995  50.837  1.00  0.00     0.234 C 
HETATM    6  N5  UNL     1      22.774   2.573  50.304  1.00  0.00    -0.254 NA
HETATM    7  C18 UNL     1      22.668   2.798  48.898  1.00  0.00     0.114 C 
HETATM    8  C19 UNL     1      23.380   3.948  48.995  1.00  0.00    -0.002 C 
HETATM    9  C20 UNL     1      23.863   4.390  50.298  1.00  0.00     0.085 C 
ENDROOT
BRANCH   1  10
HETATM   10  N2  UNL     1      26.256   5.246  49.944  1.00  0.00    -0.389 N 
HETATM   11  H15 UNL     1      27.296   5.092  49.995  1.00  0.00     0.159 HD
BRANCH  10  12
HETATM   12  C2  UNL     1      25.738   6.454  49.390  1.00  0.00     0.079 C 
HETATM   13  C1  UNL     1      25.736   7.606  50.359  1.00  0.00     0.032 C 
BRANCH  12  14
HETATM   14  C3  UNL     1      26.535   6.908  48.159  1.00  0.00     0.044 C 
BRANCH  14  15
HETATM   15  C4  UNL     1      27.798   6.074  48.183  1.00  0.00     0.128 C 
BRANCH  15  16
HETATM   16  N1  UNL     1      29.009   6.859  48.212  1.00  0.00    -0.348 N 
HETATM   17  C5  UNL     1      29.013   8.312  47.982  1.00  0.00     0.152 C 
HETATM   18  C6  UNL     1      29.848   8.835  49.158  1.00  0.00     0.188 C 
HETATM   19  O1  UNL     1      31.139   8.390  48.978  1.00  0.00    -0.380 OA
HETATM   20  C7  UNL     1      31.341   7.045  49.117  1.00  0.00     0.270 C 
HETATM   21  C8  UNL     1      30.260   6.223  48.470  1.00  0.00     0.243 C 
HETATM   22  O2  UNL     1      30.438   5.032  48.165  1.00  0.00    -0.271 OA
ENDBRANCH  15  16
ENDBRANCH  14  15
ENDBRANCH  12  14
ENDBRANCH  10  12
ENDBRANCH   1  10
BRANCH   3  23
HETATM   23  N3  UNL     1      26.562   1.014  52.612  1.00  0.00    -0.362 N 
HETATM   24  C12 UNL     1      25.939  -0.279  52.676  1.00  0.00     0.153 C 
HETATM   25  C13 UNL     1      27.079  -1.269  52.758  1.00  0.00     0.007 C 
HETATM   26  C14 UNL     1      28.187  -0.852  53.359  1.00  0.00    -0.012 C 
HETATM   27 BR1  UNL     1      29.571  -2.166  53.416  1.00  0.00    -0.056 Br
HETATM   28  C15 UNL     1      28.470   0.462  53.969  1.00  0.00     0.066 C 
HETATM   29  C16 UNL     1      27.771   1.536  53.208  1.00  0.00     0.130 C 
ENDBRANCH   3  23
TORSDOF 6
ENDMDL
MODEL 9
REMARK VINA RESULT:      -7.2      3.876      7.533
REMARK  6 active torsions:
REMARK  status: ('A' for Active; 'I' for Inactive)
REMARK    1  A    between atoms: C2_2  and  C3_3 
REMARK    2  A    between atoms: C2_2  and  N2_12 
REMARK    3  A    between atoms: C3_3  and  C4_4 
REMARK    4  A    between atoms: C4_4  and  N1_5 
REMARK    5  A    between atoms: N2_12  and  C9_13 
REMARK    6  A    between atoms: C11_15  and  N3_16 
ROOT
HETATM    1  C9  UNL     1      24.427   4.314  49.402  1.00  0.00     0.012 C 
HETATM    2  C10 UNL     1      25.602   4.889  49.206  1.00  0.00     0.075 C 
HETATM    3  C11 UNL     1      26.542   5.845  48.629  1.00  0.00     0.129 C 
HETATM    4  N4  UNL     1      25.859   6.824  48.083  1.00  0.00    -0.225 NA
HETATM    5  C17 UNL     1      24.412   6.776  48.155  1.00  0.00     0.234 C 
HETATM    6  N5  UNL     1      23.108   6.683  47.946  1.00  0.00    -0.254 NA
HETATM    7  C18 UNL     1      22.165   6.831  49.009  1.00  0.00     0.114 C 
HETATM    8  C19 UNL     1      22.313   5.531  49.366  1.00  0.00    -0.002 C 
HETATM    9  C20 UNL     1      23.226   4.676  48.615  1.00  0.00     0.085 C 
ENDROOT
BRANCH   1  10
HETATM   10  N2  UNL     1      24.481   3.250  50.339  1.00  0.00    -0.389 N 
HETATM   11  H15 UNL     1      24.386   2.245  50.040  1.00  0.00     0.159 HD
BRANCH  10  12
HETATM   12  C2  UNL     1      24.670   3.572  51.715  1.00  0.00     0.079 C 
HETATM   13  C1  UNL     1      23.445   4.157  52.368  1.00  0.00     0.032 C 
BRANCH  12  14
HETATM   14  C3  UNL     1      25.071   2.343  52.542  1.00  0.00     0.044 C 
BRANCH  14  15
HETATM   15  C4  UNL     1      26.557   2.180  52.302  1.00  0.00     0.128 C 
BRANCH  15  16
HETATM   16  N1  UNL     1      27.172   1.181  53.143  1.00  0.00    -0.348 N 
HETATM   17  C5  UNL     1      26.573  -0.144  53.360  1.00  0.00     0.152 C 
HETATM   18  C6  UNL     1      27.752  -1.092  53.103  1.00  0.00     0.188 C 
HETATM   19  O1  UNL     1      28.672  -0.890  54.107  1.00  0.00    -0.380 OA
HETATM   20  C7  UNL     1      29.322   0.313  54.100  1.00  0.00     0.270 C 
HETATM   21  C8  UNL     1      28.408   1.468  53.796  1.00  0.00     0.243 C 
HETATM   22  O2  UNL     1      28.706   2.636  54.100  1.00  0.00    -0.271 OA
ENDBRANCH  15  16
ENDBRANCH  14  15
ENDBRANCH  12  14
ENDBRANCH  10  12
ENDBRANCH   1  10
BRANCH   3  23
HETATM   23  N3  UNL     1      27.785   6.460  48.363  1.00  0.00    -0.362 N 
HETATM   24  C12 UNL     1      27.876   7.883  48.190  1.00  0.00     0.153 C 
HETATM   25  C13 UNL     1      29.217   8.272  48.769  1.00  0.00     0.007 C 
HETATM   26  C14 UNL     1      30.184   7.364  48.694  1.00  0.00    -0.012 C 
HETATM   27 BR1  UNL     1      31.840   7.941  49.449  1.00  0.00    -0.056 Br
HETATM   28  C15 UNL     1      30.135   6.008  48.115  1.00  0.00     0.066 C 
HETATM   29  C16 UNL     1      28.784   5.415  48.324  1.00  0.00     0.130 C 
ENDBRANCH   3  23
TORSDOF 6
ENDMDL
