MODEL 1
REMARK VINA RESULT:      -7.6      0.000      0.000
REMARK  6 active torsions:
REMARK  status: ('A' for Active; 'I' for Inactive)
REMARK    1  A    between atoms: N1_2  and  C2_3 
REMARK    2  A    between atoms: C3_5  and  N3_6 
REMARK    3  A    between atoms: N4_7  and  C4_8 
REMARK    4  A    between atoms: C4_8  and  C5_9 
REMARK    5  A    between atoms: C9_14  and  N6_15 
REMARK    6  A    between atoms: C14_20  and  O1_21 
ROOT
HETATM    1  C2  UNL     1      26.284   3.273  50.544  1.00  0.00     0.753 A 
HETATM    2  N2  UNL     1      25.018   3.501  50.934  1.00  0.00     0.134 NA
HETATM    3  C3  UNL     1      24.486   2.947  52.041  1.00  0.00     0.798 A 
HETATM    4  N5  UNL     1      25.297   2.140  52.749  1.00  0.00     0.135 NA
HETATM    5  C9  UNL     1      26.574   1.895  52.377  1.00  0.00     0.758 A 
HETATM    6  N7  UNL     1      27.084   2.458  51.270  1.00  0.00     0.131 NA
ENDROOT
BRANCH   5   7
HETATM    7  N6  UNL     1      27.340   1.025  53.202  1.00  0.00    -0.183 N 
HETATM    8  C10 UNL     1      28.685   1.398  53.562  1.00  0.00     0.148 C 
HETATM    9  C11 UNL     1      29.537   0.228  53.944  1.00  0.00     0.047 C 
HETATM   10  C12 UNL     1      29.081  -1.019  53.263  1.00  0.00    -0.025 C 
HETATM   11  C13 UNL     1      27.783  -1.281  53.131  1.00  0.00     0.023 C 
HETATM   12  C14 UNL     1      26.889  -0.223  53.723  1.00  0.00     0.261 C 
BRANCH  12  13
HETATM   13  O1  UNL     1      27.072  -0.308  55.104  1.00  0.00    -0.373 OA
HETATM   14  H19 UNL     1      27.877  -0.878  55.260  1.00  0.00     0.212 HD
ENDBRANCH  12  13
ENDBRANCH   5   7
BRANCH   3  15
HETATM   15  N3  UNL     1      23.155   3.152  52.502  1.00  0.00     0.041 NA
HETATM   16  N4  UNL     1      22.209   2.363  52.315  1.00  0.00    -0.176 NA
BRANCH  16  17
HETATM   17  C4  UNL     1      22.347   1.133  51.602  1.00  0.00     0.183 C 
BRANCH  17  18
HETATM   18  C5  UNL     1      21.862  -0.037  52.429  1.00  0.00     0.033 A 
HETATM   19  C6  UNL     1      22.922  -0.775  53.098  1.00  0.00    -0.024 A 
HETATM   20  C7  UNL     1      22.498  -0.503  54.312  1.00  0.00    -0.029 A 
HETATM   21  C8  UNL     1      21.373   0.279  53.790  1.00  0.00     0.037 A 
ENDBRANCH  17  18
ENDBRANCH  16  17
ENDBRANCH   3  15
BRANCH   1  22
HETATM   22  N1  UNL     1      26.734   3.925  49.343  1.00  0.00    -0.226 N 
HETATM   23  C1  UNL     1      26.296   5.295  49.133  1.00  0.00     0.165 C 
HETATM   24  H4  UNL     1      27.327   3.224  48.832  1.00  0.00     0.177 HD
ENDBRANCH   1  22
TORSDOF 6
ENDMDL
MODEL 2
REMARK VINA RESULT:      -7.1      2.155      5.784
REMARK  6 active torsions:
REMARK  status: ('A' for Active; 'I' for Inactive)
REMARK    1  A    between atoms: N1_2  and  C2_3 
REMARK    2  A    between atoms: C3_5  and  N3_6 
REMARK    3  A    between atoms: N4_7  and  C4_8 
REMARK    4  A    between atoms: C4_8  and  C5_9 
REMARK    5  A    between atoms: C9_14  and  N6_15 
REMARK    6  A    between atoms: C14_20  and  O1_21 
ROOT
HETATM    1  C2  UNL     1      25.161   2.681  50.856  1.00  0.00     0.753 A 
HETATM    2  N2  UNL     1      25.997   2.581  51.904  1.00  0.00     0.134 NA
HETATM    3  C3  UNL     1      25.583   2.216  53.133  1.00  0.00     0.798 A 
HETATM    4  N5  UNL     1      24.270   1.953  53.263  1.00  0.00     0.135 NA
HETATM    5  C9  UNL     1      23.410   2.046  52.225  1.00  0.00     0.758 A 
HETATM    6  N7  UNL     1      23.843   2.411  51.009  1.00  0.00     0.131 NA
ENDROOT
BRANCH   5   7
HETATM    7  N6  UNL     1      22.043   1.743  52.479  1.00  0.00    -0.183 N 
HETATM    8  C10 UNL     1      21.714   0.702  53.420  1.00  0.00     0.148 C 
HETATM    9  C11 UNL     1      20.349   0.126  53.206  1.00  0.00     0.047 C 
HETATM   10  C12 UNL     1      19.932   0.239  51.778  1.00  0.00    -0.025 C 
HETATM   11  C13 UNL     1      20.198   1.340  51.080  1.00  0.00     0.023 C 
HETATM   12  C14 UNL     1      20.930   2.394  51.870  1.00  0.00     0.261 C 
BRANCH  12  13
HETATM   13  O1  UNL     1      20.013   2.856  52.816  1.00  0.00    -0.373 OA
HETATM   14  H19 UNL     1      19.100   2.665  52.460  1.00  0.00     0.212 HD
ENDBRANCH  12  13
ENDBRANCH   5   7
BRANCH   3  15
HETATM   15  N3  UNL     1      26.421   2.094  54.277  1.00  0.00     0.041 NA
HETATM   16  N4  UNL     1      27.018   1.052  54.612  1.00  0.00    -0.176 NA
BRANCH  16  17
HETATM   17  C4  UNL     1      26.934  -0.168  53.875  1.00  0.00     0.183 C 
BRANCH  17  18
HETATM   18  C5  UNL     1      28.184  -0.401  53.056  1.00  0.00     0.033 A 
HETATM   19  C6  UNL     1      29.395   0.150  53.645  1.00  0.00    -0.024 A 
HETATM   20  C7  UNL     1      29.987  -1.015  53.792  1.00  0.00    -0.029 A 
HETATM   21  C8  UNL     1      28.838  -1.719  53.215  1.00  0.00     0.037 A 
ENDBRANCH  17  18
ENDBRANCH  16  17
ENDBRANCH   3  15
BRANCH   1  22
HETATM   22  N1  UNL     1      25.725   3.081  49.595  1.00  0.00    -0.226 N 
HETATM   23  C1  UNL     1      26.640   4.211  49.611  1.00  0.00     0.165 C 
HETATM   24  H4  UNL     1      25.331   2.426  48.875  1.00  0.00     0.177 HD
ENDBRANCH   1  22
TORSDOF 6
ENDMDL
MODEL 3
REMARK VINA RESULT:      -7.1      1.901      2.251
REMARK  6 active torsions:
REMARK  status: ('A' for Active; 'I' for Inactive)
REMARK    1  A    between atoms: N1_2  and  C2_3 
REMARK    2  A    between atoms: C3_5  and  N3_6 
REMARK    3  A    between atoms: N4_7  and  C4_8 
REMARK    4  A    between atoms: C4_8  and  C5_9 
REMARK    5  A    between atoms: C9_14  and  N6_15 
REMARK    6  A    between atoms: C14_20  and  O1_21 
ROOT
HETATM    1  C2  UNL     1      23.799   3.782  52.635  1.00  0.00     0.753 A 
HETATM    2  N2  UNL     1      22.827   3.133  51.972  1.00  0.00     0.134 NA
HETATM    3  C3  UNL     1      22.822   1.795  51.811  1.00  0.00     0.798 A 
HETATM    4  N5  UNL     1      23.856   1.129  52.357  1.00  0.00     0.135 NA
HETATM    5  C9  UNL     1      24.846   1.758  53.029  1.00  0.00     0.758 A 
HETATM    6  N7  UNL     1      24.830   3.092  53.177  1.00  0.00     0.131 NA
ENDROOT
BRANCH   5   7
HETATM    7  N6  UNL     1      25.889   0.953  53.563  1.00  0.00    -0.183 N 
HETATM    8  C10 UNL     1      27.210   1.513  53.707  1.00  0.00     0.148 C 
HETATM    9  C11 UNL     1      28.287   0.475  53.754  1.00  0.00     0.047 C 
HETATM   10  C12 UNL     1      27.887  -0.753  53.008  1.00  0.00    -0.025 C 
HETATM   11  C13 UNL     1      26.645  -1.222  53.093  1.00  0.00     0.023 C 
HETATM   12  C14 UNL     1      25.749  -0.402  53.985  1.00  0.00     0.261 C 
BRANCH  12  13
HETATM   13  O1  UNL     1      26.230  -0.598  55.280  1.00  0.00    -0.373 OA
HETATM   14  H19 UNL     1      26.746  -1.453  55.277  1.00  0.00     0.212 HD
ENDBRANCH  12  13
ENDBRANCH   5   7
BRANCH   3  15
HETATM   15  N3  UNL     1      21.822   1.055  51.120  1.00  0.00     0.041 NA
HETATM   16  N4  UNL     1      20.738   0.690  51.616  1.00  0.00    -0.176 NA
BRANCH  16  17
HETATM   17  C4  UNL     1      20.360   0.975  52.964  1.00  0.00     0.183 C 
BRANCH  17  18
HETATM   18  C5  UNL     1      20.428  -0.265  53.826  1.00  0.00     0.033 A 
HETATM   19  C6  UNL     1      21.331  -1.290  53.328  1.00  0.00    -0.024 A 
HETATM   20  C7  UNL     1      22.136  -1.243  54.366  1.00  0.00    -0.029 A 
HETATM   21  C8  UNL     1      21.325  -0.200  55.001  1.00  0.00     0.037 A 
ENDBRANCH  17  18
ENDBRANCH  16  17
ENDBRANCH   3  15
BRANCH   1  22
HETATM   22  N1  UNL     1      23.689   5.212  52.737  1.00  0.00    -0.226 N 
HETATM   23  C1  UNL     1      23.783   5.970  51.500  1.00  0.00     0.165 C 
HETATM   24  H4  UNL     1      23.552   5.425  53.757  1.00  0.00     0.177 HD
ENDBRANCH   1  22
TORSDOF 6
ENDMDL
MODEL 4
REMARK VINA RESULT:      -7.0      1.590      2.600
REMARK  6 active torsions:
REMARK  status: ('A' for Active; 'I' for Inactive)
REMARK    1  A    between atoms: N1_2  and  C2_3 
REMARK    2  A    between atoms: C3_5  and  N3_6 
REMARK    3  A    between atoms: N4_7  and  C4_8 
REMARK    4  A    between atoms: C4_8  and  C5_9 
REMARK    5  A    between atoms: C9_14  and  N6_15 
REMARK    6  A    between atoms: C14_20  and  O1_21 
ROOT
HETATM    1  C2  UNL     1      26.395   3.429  50.620  1.00  0.00     0.753 A 
HETATM    2  N2  UNL     1      25.081   3.526  50.883  1.00  0.00     0.134 NA
HETATM    3  C3  UNL     1      24.479   2.822  51.861  1.00  0.00     0.798 A 
HETATM    4  N5  UNL     1      25.272   2.002  52.575  1.00  0.00     0.135 NA
HETATM    5  C9  UNL     1      26.596   1.887  52.330  1.00  0.00     0.758 A 
HETATM    6  N7  UNL     1      27.175   2.598  51.351  1.00  0.00     0.131 NA
ENDROOT
BRANCH   5   7
HETATM    7  N6  UNL     1      27.337   0.989  53.148  1.00  0.00    -0.183 N 
HETATM    8  C10 UNL     1      28.710   1.293  53.465  1.00  0.00     0.148 C 
HETATM    9  C11 UNL     1      29.508   0.083  53.843  1.00  0.00     0.047 C 
HETATM   10  C12 UNL     1      28.965  -1.146  53.196  1.00  0.00    -0.025 C 
HETATM   11  C13 UNL     1      27.652  -1.339  53.105  1.00  0.00     0.023 C 
HETATM   12  C14 UNL     1      26.834  -0.224  53.703  1.00  0.00     0.261 C 
BRANCH  12  13
HETATM   13  O1  UNL     1      27.051  -0.298  55.080  1.00  0.00    -0.373 OA
HETATM   14  H19 UNL     1      27.549   0.526  55.345  1.00  0.00     0.212 HD
ENDBRANCH  12  13
ENDBRANCH   5   7
BRANCH   3  15
HETATM   15  N3  UNL     1      23.094   2.884  52.184  1.00  0.00     0.041 NA
HETATM   16  N4  UNL     1      22.190   2.304  51.551  1.00  0.00    -0.176 NA
BRANCH  16  17
HETATM   17  C4  UNL     1      22.438   1.491  50.403  1.00  0.00     0.183 C 
BRANCH  17  18
HETATM   18  C5  UNL     1      21.776   2.066  49.172  1.00  0.00     0.033 A 
HETATM   19  C6  UNL     1      21.747   3.520  49.133  1.00  0.00    -0.024 A 
HETATM   20  C7  UNL     1      22.493   3.618  48.055  1.00  0.00    -0.029 A 
HETATM   21  C8  UNL     1      22.617   2.160  47.957  1.00  0.00     0.037 A 
ENDBRANCH  17  18
ENDBRANCH  16  17
ENDBRANCH   3  15
BRANCH   1  22
HETATM   22  N1  UNL     1      26.917   4.234  49.549  1.00  0.00    -0.226 N 
HETATM   23  C1  UNL     1      26.058   5.291  49.040  1.00  0.00     0.165 C 
HETATM   24  H4  UNL     1      27.878   3.864  49.344  1.00  0.00     0.177 HD
ENDBRANCH   1  22
TORSDOF 6
ENDMDL
MODEL 5
REMARK VINA RESULT:      -6.8      2.205      5.639
REMARK  6 active torsions:
REMARK  status: ('A' for Active; 'I' for Inactive)
REMARK    1  A    between atoms: N1_2  and  C2_3 
REMARK    2  A    between atoms: C3_5  and  N3_6 
REMARK    3  A    between atoms: N4_7  and  C4_8 
REMARK    4  A    between atoms: C4_8  and  C5_9 
REMARK    5  A    between atoms: C9_14  and  N6_15 
REMARK    6  A    between atoms: C14_20  and  O1_21 
ROOT
HETATM    1  C2  UNL     1      23.113   1.868  50.482  1.00  0.00     0.753 A 
HETATM    2  N2  UNL     1      24.350   2.267  50.826  1.00  0.00     0.134 NA
HETATM    3  C3  UNL     1      24.880   2.028  52.041  1.00  0.00     0.798 A 
HETATM    4  N5  UNL     1      24.099   1.359  52.908  1.00  0.00     0.135 NA
HETATM    5  C9  UNL     1      22.852   0.948  52.586  1.00  0.00     0.758 A 
HETATM    6  N7  UNL     1      22.343   1.197  51.369  1.00  0.00     0.131 NA
ENDROOT
BRANCH   5   7
HETATM    7  N6  UNL     1      22.115   0.249  53.582  1.00  0.00    -0.183 N 
HETATM    8  C10 UNL     1      22.758  -0.807  54.325  1.00  0.00     0.148 C 
HETATM    9  C11 UNL     1      21.790  -1.783  54.917  1.00  0.00     0.047 C 
HETATM   10  C12 UNL     1      20.537  -1.858  54.111  1.00  0.00    -0.025 C 
HETATM   11  C13 UNL     1      19.992  -0.756  53.604  1.00  0.00     0.023 C 
HETATM   12  C14 UNL     1      20.755   0.502  53.928  1.00  0.00     0.261 C 
BRANCH  12  13
HETATM   13  O1  UNL     1      20.593   0.694  55.301  1.00  0.00    -0.373 OA
HETATM   14  H19 UNL     1      19.884   0.059  55.606  1.00  0.00     0.212 HD
ENDBRANCH  12  13
ENDBRANCH   5   7
BRANCH   3  15
HETATM   15  N3  UNL     1      26.181   2.425  52.461  1.00  0.00     0.041 NA
HETATM   16  N4  UNL     1      27.139   1.648  52.636  1.00  0.00    -0.176 NA
BRANCH  16  17
HETATM   17  C4  UNL     1      27.049   0.237  52.432  1.00  0.00     0.183 C 
BRANCH  17  18
HETATM   18  C5  UNL     1      27.709  -0.523  53.560  1.00  0.00     0.033 A 
HETATM   19  C6  UNL     1      28.811  -1.374  53.143  1.00  0.00    -0.024 A 
HETATM   20  C7  UNL     1      29.721  -0.727  53.837  1.00  0.00    -0.029 A 
HETATM   21  C8  UNL     1      28.721   0.217  54.346  1.00  0.00     0.037 A 
ENDBRANCH  17  18
ENDBRANCH  16  17
ENDBRANCH   3  15
BRANCH   1  22
HETATM   22  N1  UNL     1      22.662   2.185  49.153  1.00  0.00    -0.226 N 
HETATM   23  C1  UNL     1      21.490   1.476  48.669  1.00  0.00     0.165 C 
HETATM   24  H4  UNL     1      23.321   2.915  48.785  1.00  0.00     0.177 HD
ENDBRANCH   1  22
TORSDOF 6
ENDMDL
MODEL 6
REMARK VINA RESULT:      -6.8      1.953      2.757
REMARK  6 active torsions:
REMARK  status: ('A' for Active; 'I' for Inactive)
REMARK    1  A    between atoms: N1_2  and  C2_3 
REMARK    2  A    between atoms: C3_5  and  N3_6 
REMARK    3  A    between atoms: N4_7  and  C4_8 
REMARK    4  A    between atoms: C4_8  and  C5_9 
REMARK    5  A    between atoms: C9_14  and  N6_15 
REMARK    6  A    between atoms: C14_20  and  O1_21 
ROOT
HETATM    1  C2  UNL     1      23.017   4.537  51.620  1.00  0.00     0.753 A 
HETATM    2  N2  UNL     1      22.068   3.697  51.173  1.00  0.00     0.134 NA
HETATM    3  C3  UNL     1      22.228   2.359  51.160  1.00  0.00     0.798 A 
HETATM    4  N5  UNL     1      23.404   1.897  51.623  1.00  0.00     0.135 NA
HETATM    5  C9  UNL     1      24.374   2.722  52.078  1.00  0.00     0.758 A 
HETATM    6  N7  UNL     1      24.193   4.052  52.082  1.00  0.00     0.131 NA
ENDROOT
BRANCH   5   7
HETATM    7  N6  UNL     1      25.577   2.123  52.544  1.00  0.00    -0.183 N 
HETATM    8  C10 UNL     1      26.404   1.389  51.619  1.00  0.00     0.148 C 
HETATM    9  C11 UNL     1      27.299   0.396  52.291  1.00  0.00     0.047 C 
HETATM   10  C12 UNL     1      26.708  -0.084  53.574  1.00  0.00    -0.025 C 
HETATM   11  C13 UNL     1      26.087   0.763  54.391  1.00  0.00     0.023 C 
HETATM   12  C14 UNL     1      26.059   2.182  53.884  1.00  0.00     0.261 C 
BRANCH  12  13
HETATM   13  O1  UNL     1      27.381   2.626  53.945  1.00  0.00    -0.373 OA
HETATM   14  H19 UNL     1      27.417   3.510  53.482  1.00  0.00     0.212 HD
ENDBRANCH  12  13
ENDBRANCH   5   7
BRANCH   3  15
HETATM   15  N3  UNL     1      21.261   1.422  50.699  1.00  0.00     0.041 NA
HETATM   16  N4  UNL     1      20.533   0.731  51.438  1.00  0.00    -0.176 NA
BRANCH  16  17
HETATM   17  C4  UNL     1      20.581   0.796  52.864  1.00  0.00     0.183 C 
BRANCH  17  18
HETATM   18  C5  UNL     1      20.976  -0.536  53.461  1.00  0.00     0.033 A 
HETATM   19  C6  UNL     1      22.325  -0.964  53.125  1.00  0.00    -0.024 A 
HETATM   20  C7  UNL     1      22.759  -0.948  54.366  1.00  0.00    -0.029 A 
HETATM   21  C8  UNL     1      21.450  -0.513  54.863  1.00  0.00     0.037 A 
ENDBRANCH  17  18
ENDBRANCH  16  17
ENDBRANCH   3  15
BRANCH   1  22
HETATM   22  N1  UNL     1      22.724   5.945  51.583  1.00  0.00    -0.226 N 
HETATM   23  C1  UNL     1      23.805   6.832  51.184  1.00  0.00     0.165 C 
HETATM   24  H4  UNL     1      21.719   6.044  51.871  1.00  0.00     0.177 HD
ENDBRANCH   1  22
TORSDOF 6
ENDMDL
MODEL 7
REMARK VINA RESULT:      -6.7      1.931      4.572
REMARK  6 active torsions:
REMARK  status: ('A' for Active; 'I' for Inactive)
REMARK    1  A    between atoms: N1_2  and  C2_3 
REMARK    2  A    between atoms: C3_5  and  N3_6 
REMARK    3  A    between atoms: N4_7  and  C4_8 
REMARK    4  A    between atoms: C4_8  and  C5_9 
REMARK    5  A    between atoms: C9_14  and  N6_15 
REMARK    6  A    between atoms: C14_20  and  O1_21 
ROOT
HETATM    1  C2  UNL     1      21.911   1.053  51.818  1.00  0.00     0.753 A 
HETATM    2  N2  UNL     1      21.837   2.393  51.746  1.00  0.00     0.134 NA
HETATM    3  C3  UNL     1      22.798   3.203  52.232  1.00  0.00     0.798 A 
HETATM    4  N5  UNL     1      23.854   2.594  52.802  1.00  0.00     0.135 NA
HETATM    5  C9  UNL     1      23.952   1.249  52.886  1.00  0.00     0.758 A 
HETATM    6  N7  UNL     1      22.983   0.461  52.396  1.00  0.00     0.131 NA
ENDROOT
BRANCH   5   7
HETATM    7  N6  UNL     1      25.114   0.715  53.510  1.00  0.00    -0.183 N 
HETATM    8  C10 UNL     1      26.184   1.604  53.886  1.00  0.00     0.148 C 
HETATM    9  C11 UNL     1      27.505   0.912  54.017  1.00  0.00     0.047 C 
HETATM   10  C12 UNL     1      27.576  -0.289  53.135  1.00  0.00    -0.025 C 
HETATM   11  C13 UNL     1      26.525  -1.094  53.002  1.00  0.00     0.023 C 
HETATM   12  C14 UNL     1      25.327  -0.663  53.808  1.00  0.00     0.261 C 
BRANCH  12  13
HETATM   13  O1  UNL     1      25.685  -0.858  55.143  1.00  0.00    -0.373 OA
HETATM   14  H19 UNL     1      24.898  -0.600  55.701  1.00  0.00     0.212 HD
ENDBRANCH  12  13
ENDBRANCH   5   7
BRANCH   3  15
HETATM   15  N3  UNL     1      22.774   4.625  52.184  1.00  0.00     0.041 NA
HETATM   16  N4  UNL     1      23.283   5.315  51.279  1.00  0.00    -0.176 NA
BRANCH  16  17
HETATM   17  C4  UNL     1      23.967   4.752  50.159  1.00  0.00     0.183 C 
BRANCH  17  18
HETATM   18  C5  UNL     1      25.464   4.914  50.292  1.00  0.00     0.033 A 
HETATM   19  C6  UNL     1      26.207   3.665  50.254  1.00  0.00    -0.024 A 
HETATM   20  C7  UNL     1      26.867   3.961  49.157  1.00  0.00    -0.029 A 
HETATM   21  C8  UNL     1      26.200   5.262  49.056  1.00  0.00     0.037 A 
ENDBRANCH  17  18
ENDBRANCH  16  17
ENDBRANCH   3  15
BRANCH   1  22
HETATM   22  N1  UNL     1      20.819   0.299  51.262  1.00  0.00    -0.226 N 
HETATM   23  C1  UNL     1      19.803   1.047  50.539  1.00  0.00     0.165 C 
HETATM   24  H4  UNL     1      20.997  -0.705  51.512  1.00  0.00     0.177 HD
ENDBRANCH   1  22
TORSDOF 6
ENDMDL
MODEL 8
REMARK VINA RESULT:      -6.7      2.397      6.209
REMARK  6 active torsions:
REMARK  status: ('A' for Active; 'I' for Inactive)
REMARK    1  A    between atoms: N1_2  and  C2_3 
REMARK    2  A    between atoms: C3_5  and  N3_6 
REMARK    3  A    between atoms: N4_7  and  C4_8 
REMARK    4  A    between atoms: C4_8  and  C5_9 
REMARK    5  A    between atoms: C9_14  and  N6_15 
REMARK    6  A    between atoms: C14_20  and  O1_21 
ROOT
HETATM    1  C2  UNL     1      21.820  -0.251  53.954  1.00  0.00     0.753 A 
HETATM    2  N2  UNL     1      22.855  -0.881  54.537  1.00  0.00     0.134 NA
HETATM    3  C3  UNL     1      24.138  -0.543  54.303  1.00  0.00     0.798 A 
HETATM    4  N5  UNL     1      24.337   0.472  53.443  1.00  0.00     0.135 NA
HETATM    5  C9  UNL     1      23.314   1.121  52.844  1.00  0.00     0.758 A 
HETATM    6  N7  UNL     1      22.043   0.769  53.091  1.00  0.00     0.131 NA
ENDROOT
BRANCH   5   7
HETATM    7  N6  UNL     1      23.643   2.180  51.953  1.00  0.00    -0.183 N 
HETATM    8  C10 UNL     1      22.925   2.302  50.708  1.00  0.00     0.148 C 
HETATM    9  C11 UNL     1      23.682   3.065  49.666  1.00  0.00     0.047 C 
HETATM   10  C12 UNL     1      25.155   2.942  49.868  1.00  0.00    -0.025 C 
HETATM   11  C13 UNL     1      25.675   2.986  51.092  1.00  0.00     0.023 C 
HETATM   12  C14 UNL     1      24.648   3.164  52.180  1.00  0.00     0.261 C 
BRANCH  12  13
HETATM   13  O1  UNL     1      24.156   4.461  52.020  1.00  0.00    -0.373 OA
HETATM   14  H19 UNL     1      24.183   4.900  52.916  1.00  0.00     0.212 HD
ENDBRANCH  12  13
ENDBRANCH   5   7
BRANCH   3  15
HETATM   15  N3  UNL     1      25.271  -1.173  54.890  1.00  0.00     0.041 NA
HETATM   16  N4  UNL     1      26.405  -0.661  54.973  1.00  0.00    -0.176 NA
BRANCH  16  17
HETATM   17  C4  UNL     1      26.711   0.644  54.481  1.00  0.00     0.183 C 
BRANCH  17  18
HETATM   18  C5  UNL     1      27.863   0.604  53.502  1.00  0.00     0.033 A 
HETATM   19  C6  UNL     1      29.169   0.808  54.107  1.00  0.00    -0.024 A 
HETATM   20  C7  UNL     1      29.627  -0.382  53.785  1.00  0.00    -0.029 A 
HETATM   21  C8  UNL     1      28.364  -0.739  53.133  1.00  0.00     0.037 A 
ENDBRANCH  17  18
ENDBRANCH  16  17
ENDBRANCH   3  15
BRANCH   1  22
HETATM   22  N1  UNL     1      20.497  -0.706  54.286  1.00  0.00    -0.226 N 
HETATM   23  C1  UNL     1      19.460  -0.503  53.287  1.00  0.00     0.165 C 
HETATM   24  H4  UNL     1      20.561  -1.119  55.249  1.00  0.00     0.177 HD
ENDBRANCH   1  22
TORSDOF 6
ENDMDL
MODEL 9
REMARK VINA RESULT:      -6.6      1.382      5.328
REMARK  6 active torsions:
REMARK  status: ('A' for Active; 'I' for Inactive)
REMARK    1  A    between atoms: N1_2  and  C2_3 
REMARK    2  A    between atoms: C3_5  and  N3_6 
REMARK    3  A    between atoms: N4_7  and  C4_8 
REMARK    4  A    between atoms: C4_8  and  C5_9 
REMARK    5  A    between atoms: C9_14  and  N6_15 
REMARK    6  A    between atoms: C14_20  and  O1_21 
ROOT
HETATM    1  C2  UNL     1      24.417   2.335  51.146  1.00  0.00     0.753 A 
HETATM    2  N2  UNL     1      25.070   3.005  50.180  1.00  0.00     0.134 NA
HETATM    3  C3  UNL     1      26.412   3.114  50.150  1.00  0.00     0.798 A 
HETATM    4  N5  UNL     1      27.080   2.510  51.150  1.00  0.00     0.135 NA
HETATM    5  C9  UNL     1      26.447   1.831  52.132  1.00  0.00     0.758 A 
HETATM    6  N7  UNL     1      25.108   1.734  52.143  1.00  0.00     0.131 NA
ENDROOT
BRANCH   5   7
HETATM    7  N6  UNL     1      27.254   1.232  53.139  1.00  0.00    -0.183 N 
HETATM    8  C10 UNL     1      28.308   2.003  53.749  1.00  0.00     0.148 C 
HETATM    9  C11 UNL     1      29.382   1.154  54.356  1.00  0.00     0.047 C 
HETATM   10  C12 UNL     1      29.490  -0.161  53.659  1.00  0.00    -0.025 C 
HETATM   11  C13 UNL     1      28.397  -0.816  53.277  1.00  0.00     0.023 C 
HETATM   12  C14 UNL     1      27.114  -0.104  53.618  1.00  0.00     0.261 C 
BRANCH  12  13
HETATM   13  O1  UNL     1      27.019  -0.151  55.010  1.00  0.00    -0.373 OA
HETATM   14  H19 UNL     1      26.056  -0.288  55.236  1.00  0.00     0.212 HD
ENDBRANCH  12  13
ENDBRANCH   5   7
BRANCH   3  15
HETATM   15  N3  UNL     1      27.156   3.808  49.154  1.00  0.00     0.041 NA
HETATM   16  N4  UNL     1      26.974   4.998  48.832  1.00  0.00    -0.176 NA
BRANCH  16  17
HETATM   17  C4  UNL     1      25.978   5.827  49.434  1.00  0.00     0.183 C 
BRANCH  17  18
HETATM   18  C5  UNL     1      26.121   7.265  48.989  1.00  0.00     0.033 A 
HETATM   19  C6  UNL     1      26.869   7.437  47.754  1.00  0.00    -0.024 A 
HETATM   20  C7  UNL     1      25.861   7.949  47.083  1.00  0.00    -0.029 A 
HETATM   21  C8  UNL     1      24.976   7.840  48.247  1.00  0.00     0.037 A 
ENDBRANCH  17  18
ENDBRANCH  16  17
ENDBRANCH   3  15
BRANCH   1  22
HETATM   22  N1  UNL     1      22.982   2.292  51.066  1.00  0.00    -0.226 N 
HETATM   23  C1  UNL     1      22.265   1.948  52.283  1.00  0.00     0.165 C 
HETATM   24  H4  UNL     1      22.735   2.535  50.075  1.00  0.00     0.177 HD
ENDBRANCH   1  22
TORSDOF 6
ENDMDL
