MODEL 1
REMARK VINA RESULT:      -8.7      0.000      0.000
REMARK  9 active torsions:
REMARK  status: ('A' for Active; 'I' for Inactive)
REMARK    1  A    between atoms: O1_2  and  C2_3 
REMARK    2  A    between atoms: C6_7  and  C7_8 
REMARK    3  A    between atoms: C7_8  and  C8_9 
REMARK    4  A    between atoms: C15_18  and  N2_19 
REMARK    5  A    between atoms: N2_19  and  C16_20 
REMARK    6  A    between atoms: C17_21  and  C18_22 
REMARK    7  A    between atoms: C18_22  and  C19_23 
REMARK    8  A    between atoms: C19_23  and  C20_24 
REMARK    9  A    between atoms: C20_24  and  O4_26 
ROOT
HETATM    1  C8  UNL     1      24.844   1.062  52.565  1.00  0.00     0.008 C 
HETATM    2  C9  UNL     1      24.392   2.055  51.823  1.00  0.00     0.038 C 
HETATM    3  N1  UNL     1      23.069   2.633  51.889  1.00  0.00    -0.326 N 
HETATM    4  C10 UNL     1      23.087   3.651  50.906  1.00  0.00     0.235 C 
HETATM    5  O2  UNL     1      22.120   4.454  50.864  1.00  0.00    -0.272 OA
HETATM    6  C11 UNL     1      24.267   3.624  50.049  1.00  0.00     0.143 C 
HETATM    7  C12 UNL     1      25.204   2.715  50.811  1.00  0.00    -0.018 C 
HETATM    8  C13 UNL     1      26.440   2.782  50.362  1.00  0.00    -0.010 C 
HETATM    9  C14 UNL     1      26.758   3.691  49.209  1.00  0.00     0.085 C 
HETATM   10  C15 UNL     1      26.229   5.028  49.588  1.00  0.00     0.015 C 
HETATM   11  C21 UNL     1      24.975   4.952  50.006  1.00  0.00    -0.043 C 
HETATM   12  C22 UNL     1      24.198   6.133  50.448  1.00  0.00     0.046 C 
HETATM   13  H9  UNL     1      22.296   2.334  52.537  1.00  0.00     0.169 HD
ENDROOT
BRANCH  10  14
HETATM   14  N2  UNL     1      26.894   6.284  49.548  1.00  0.00    -0.369 N 
HETATM   15  H14 UNL     1      27.202   6.781  50.411  1.00  0.00     0.165 HD
BRANCH  14  16
HETATM   16  C16 UNL     1      27.268   7.096  48.443  1.00  0.00     0.084 C 
HETATM   17  C17 UNL     1      28.391   6.963  47.759  1.00  0.00    -0.009 C 
BRANCH  17  18
HETATM   18  C18 UNL     1      29.392   5.927  48.088  1.00  0.00     0.039 C 
BRANCH  18  19
HETATM   19  C19 UNL     1      30.636   6.614  48.634  1.00  0.00     0.113 C 
BRANCH  19  20
HETATM   20  C20 UNL     1      31.456   5.553  49.252  1.00  0.00     0.139 C 
HETATM   21  O3  UNL     1      32.084   4.694  48.566  1.00  0.00    -0.650 OA
BRANCH  20  22
HETATM   22  O4  UNL     1      31.507   5.540  50.639  1.00  0.00    -0.776 OA
HETATM   23  H21 UNL     1      30.746   5.926  51.199  1.00  0.00     0.167 HD
ENDBRANCH  20  22
ENDBRANCH  19  20
ENDBRANCH  18  19
ENDBRANCH  17  18
ENDBRANCH  14  16
ENDBRANCH  10  14
BRANCH   1  24
HETATM   24  C7  UNL     1      25.944   0.163  52.911  1.00  0.00     0.072 C 
BRANCH  24  25
HETATM   25  C6  UNL     1      27.112   0.893  53.476  1.00  0.00    -0.010 C 
HETATM   26  C2  UNL     1      28.339   0.184  53.877  1.00  0.00     0.075 C 
HETATM   27  C3  UNL     1      29.298   1.077  54.018  1.00  0.00     0.038 C 
HETATM   28  C4  UNL     1      28.708   2.394  53.709  1.00  0.00     0.016 C 
HETATM   29  C5  UNL     1      27.410   2.149  53.759  1.00  0.00    -0.016 C 
BRANCH  26  30
HETATM   30  O1  UNL     1      28.467  -1.180  54.072  1.00  0.00    -0.355 OA
HETATM   31  C1  UNL     1      29.116  -2.026  53.149  1.00  0.00     0.210 C 
ENDBRANCH  26  30
ENDBRANCH  24  25
ENDBRANCH   1  24
TORSDOF 9
ENDMDL
MODEL 2
REMARK VINA RESULT:      -8.4      1.931      2.385
REMARK  9 active torsions:
REMARK  status: ('A' for Active; 'I' for Inactive)
REMARK    1  A    between atoms: O1_2  and  C2_3 
REMARK    2  A    between atoms: C6_7  and  C7_8 
REMARK    3  A    between atoms: C7_8  and  C8_9 
REMARK    4  A    between atoms: C15_18  and  N2_19 
REMARK    5  A    between atoms: N2_19  and  C16_20 
REMARK    6  A    between atoms: C17_21  and  C18_22 
REMARK    7  A    between atoms: C18_22  and  C19_23 
REMARK    8  A    between atoms: C19_23  and  C20_24 
REMARK    9  A    between atoms: C20_24  and  O4_26 
ROOT
HETATM    1  C8  UNL     1      24.621   1.310  53.067  1.00  0.00     0.008 C 
HETATM    2  C9  UNL     1      24.232   2.279  52.260  1.00  0.00     0.038 C 
HETATM    3  N1  UNL     1      23.004   3.033  52.367  1.00  0.00    -0.326 N 
HETATM    4  C10 UNL     1      23.061   3.940  51.282  1.00  0.00     0.235 C 
HETATM    5  O2  UNL     1      22.202   4.858  51.229  1.00  0.00    -0.272 OA
HETATM    6  C11 UNL     1      24.146   3.673  50.345  1.00  0.00     0.143 C 
HETATM    7  C12 UNL     1      25.026   2.725  51.125  1.00  0.00    -0.018 C 
HETATM    8  C13 UNL     1      26.216   2.582  50.577  1.00  0.00    -0.010 C 
HETATM    9  C14 UNL     1      26.540   3.325  49.313  1.00  0.00     0.085 C 
HETATM   10  C15 UNL     1      26.219   4.752  49.587  1.00  0.00     0.015 C 
HETATM   11  C21 UNL     1      25.008   4.884  50.105  1.00  0.00    -0.043 C 
HETATM   12  C22 UNL     1      24.429   6.196  50.477  1.00  0.00     0.046 C 
HETATM   13  H9  UNL     1      22.262   2.904  53.100  1.00  0.00     0.169 HD
ENDROOT
BRANCH  10  14
HETATM   14  N2  UNL     1      27.030   5.898  49.361  1.00  0.00    -0.369 N 
HETATM   15  H14 UNL     1      26.929   6.771  49.921  1.00  0.00     0.165 HD
BRANCH  14  16
HETATM   16  C16 UNL     1      28.070   6.123  48.419  1.00  0.00     0.084 C 
HETATM   17  C17 UNL     1      28.234   7.241  47.735  1.00  0.00    -0.009 C 
BRANCH  17  18
HETATM   18  C18 UNL     1      27.327   8.397  47.890  1.00  0.00     0.039 C 
BRANCH  18  19
HETATM   19  C19 UNL     1      27.994   9.416  48.804  1.00  0.00     0.113 C 
BRANCH  19  20
HETATM   20  C20 UNL     1      27.148   9.504  50.011  1.00  0.00     0.139 C 
HETATM   21  O3  UNL     1      25.886   9.590  49.951  1.00  0.00    -0.650 OA
BRANCH  20  22
HETATM   22  O4  UNL     1      27.808   9.490  51.232  1.00  0.00    -0.776 OA
HETATM   23  H21 UNL     1      27.522  10.105  51.993  1.00  0.00     0.167 HD
ENDBRANCH  20  22
ENDBRANCH  19  20
ENDBRANCH  18  19
ENDBRANCH  17  18
ENDBRANCH  14  16
ENDBRANCH  10  14
BRANCH   1  24
HETATM   24  C7  UNL     1      25.627   0.309  53.422  1.00  0.00     0.072 C 
BRANCH  24  25
HETATM   25  C6  UNL     1      26.957   0.919  53.696  1.00  0.00    -0.010 C 
HETATM   26  C2  UNL     1      28.190   0.115  53.667  1.00  0.00     0.075 C 
HETATM   27  C3  UNL     1      29.215   0.942  53.610  1.00  0.00     0.038 C 
HETATM   28  C4  UNL     1      28.662   2.311  53.602  1.00  0.00     0.016 C 
HETATM   29  C5  UNL     1      27.415   2.123  53.996  1.00  0.00    -0.016 C 
BRANCH  26  30
HETATM   30  O1  UNL     1      28.265  -1.267  53.693  1.00  0.00    -0.355 OA
HETATM   31  C1  UNL     1      29.438  -1.975  53.360  1.00  0.00     0.210 C 
ENDBRANCH  26  30
ENDBRANCH  24  25
ENDBRANCH   1  24
TORSDOF 9
ENDMDL
MODEL 3
REMARK VINA RESULT:      -8.3      3.676      5.736
REMARK  9 active torsions:
REMARK  status: ('A' for Active; 'I' for Inactive)
REMARK    1  A    between atoms: O1_2  and  C2_3 
REMARK    2  A    between atoms: C6_7  and  C7_8 
REMARK    3  A    between atoms: C7_8  and  C8_9 
REMARK    4  A    between atoms: C15_18  and  N2_19 
REMARK    5  A    between atoms: N2_19  and  C16_20 
REMARK    6  A    between atoms: C17_21  and  C18_22 
REMARK    7  A    between atoms: C18_22  and  C19_23 
REMARK    8  A    between atoms: C19_23  and  C20_24 
REMARK    9  A    between atoms: C20_24  and  O4_26 
ROOT
HETATM    1  C8  UNL     1      25.552  -0.396  55.160  1.00  0.00     0.008 C 
HETATM    2  C9  UNL     1      24.343  -0.632  54.686  1.00  0.00     0.038 C 
HETATM    3  N1  UNL     1      23.347  -1.490  55.286  1.00  0.00    -0.326 N 
HETATM    4  C10 UNL     1      22.241  -1.403  54.406  1.00  0.00     0.235 C 
HETATM    5  O2  UNL     1      21.149  -1.907  54.773  1.00  0.00    -0.272 OA
HETATM    6  C11 UNL     1      22.536  -0.718  53.153  1.00  0.00     0.143 C 
HETATM    7  C12 UNL     1      23.848  -0.031  53.457  1.00  0.00    -0.018 C 
HETATM    8  C13 UNL     1      24.154   0.883  52.558  1.00  0.00    -0.010 C 
HETATM    9  C14 UNL     1      23.225   1.118  51.400  1.00  0.00     0.085 C 
HETATM   10  C15 UNL     1      21.883   1.349  51.997  1.00  0.00     0.015 C 
HETATM   11  C21 UNL     1      21.573   0.405  52.873  1.00  0.00    -0.043 C 
HETATM   12  C22 UNL     1      20.294   0.385  53.620  1.00  0.00     0.046 C 
HETATM   13  H9  UNL     1      23.458  -2.037  56.177  1.00  0.00     0.169 HD
ENDROOT
BRANCH  10  14
HETATM   14  N2  UNL     1      20.970   2.408  51.734  1.00  0.00    -0.369 N 
HETATM   15  H14 UNL     1      20.176   2.307  51.066  1.00  0.00     0.165 HD
BRANCH  14  16
HETATM   16  C16 UNL     1      20.912   3.728  52.256  1.00  0.00     0.084 C 
HETATM   17  C17 UNL     1      21.575   4.760  51.766  1.00  0.00    -0.009 C 
BRANCH  17  18
HETATM   18  C18 UNL     1      22.467   4.634  50.594  1.00  0.00     0.039 C 
BRANCH  18  19
HETATM   19  C19 UNL     1      23.908   4.764  51.068  1.00  0.00     0.113 C 
BRANCH  19  20
HETATM   20  C20 UNL     1      24.239   6.201  50.995  1.00  0.00     0.139 C 
HETATM   21  O3  UNL     1      24.345   6.818  49.895  1.00  0.00    -0.650 OA
BRANCH  20  22
HETATM   22  O4  UNL     1      24.433   6.853  52.205  1.00  0.00    -0.776 OA
HETATM   23  H21 UNL     1      24.234   6.390  53.092  1.00  0.00     0.167 HD
ENDBRANCH  20  22
ENDBRANCH  19  20
ENDBRANCH  18  19
ENDBRANCH  17  18
ENDBRANCH  14  16
ENDBRANCH  10  14
BRANCH   1  24
HETATM   24  C7  UNL     1      26.837   0.287  55.018  1.00  0.00     0.072 C 
BRANCH  24  25
HETATM   25  C6  UNL     1      27.747  -0.415  54.072  1.00  0.00    -0.010 C 
HETATM   26  C2  UNL     1      29.120   0.061  53.833  1.00  0.00     0.075 C 
HETATM   27  C3  UNL     1      29.789  -0.906  53.236  1.00  0.00     0.038 C 
HETATM   28  C4  UNL     1      28.855  -2.037  53.075  1.00  0.00     0.016 C 
HETATM   29  C5  UNL     1      27.678  -1.475  53.285  1.00  0.00    -0.016 C 
BRANCH  26  30
HETATM   30  O1  UNL     1      29.624   1.304  54.174  1.00  0.00    -0.355 OA
HETATM   31  C1  UNL     1      29.053   2.511  53.721  1.00  0.00     0.210 C 
ENDBRANCH  26  30
ENDBRANCH  24  25
ENDBRANCH   1  24
TORSDOF 9
ENDMDL
MODEL 4
REMARK VINA RESULT:      -8.0      3.281      4.433
REMARK  9 active torsions:
REMARK  status: ('A' for Active; 'I' for Inactive)
REMARK    1  A    between atoms: O1_2  and  C2_3 
REMARK    2  A    between atoms: C6_7  and  C7_8 
REMARK    3  A    between atoms: C7_8  and  C8_9 
REMARK    4  A    between atoms: C15_18  and  N2_19 
REMARK    5  A    between atoms: N2_19  and  C16_20 
REMARK    6  A    between atoms: C17_21  and  C18_22 
REMARK    7  A    between atoms: C18_22  and  C19_23 
REMARK    8  A    between atoms: C19_23  and  C20_24 
REMARK    9  A    between atoms: C20_24  and  O4_26 
ROOT
HETATM    1  C8  UNL     1      24.661  -0.392  54.064  1.00  0.00     0.008 C 
HETATM    2  C9  UNL     1      23.758   0.108  53.242  1.00  0.00     0.038 C 
HETATM    3  N1  UNL     1      22.525  -0.531  52.843  1.00  0.00    -0.326 N 
HETATM    4  C10 UNL     1      21.919   0.402  51.969  1.00  0.00     0.235 C 
HETATM    5  O2  UNL     1      20.733   0.194  51.606  1.00  0.00    -0.272 OA
HETATM    6  C11 UNL     1      22.787   1.514  51.598  1.00  0.00     0.143 C 
HETATM    7  C12 UNL     1      23.899   1.415  52.617  1.00  0.00    -0.018 C 
HETATM    8  C13 UNL     1      24.645   2.500  52.650  1.00  0.00    -0.010 C 
HETATM    9  C14 UNL     1      24.332   3.639  51.722  1.00  0.00     0.085 C 
HETATM   10  C15 UNL     1      22.891   3.946  51.928  1.00  0.00     0.015 C 
HETATM   11  C21 UNL     1      22.148   2.852  51.859  1.00  0.00    -0.043 C 
HETATM   12  C22 UNL     1      20.677   2.864  52.028  1.00  0.00     0.046 C 
HETATM   13  H9  UNL     1      22.190  -1.478  53.156  1.00  0.00     0.169 HD
ENDROOT
BRANCH  10  14
HETATM   14  N2  UNL     1      22.284   5.208  52.173  1.00  0.00    -0.369 N 
HETATM   15  H14 UNL     1      22.185   5.602  53.134  1.00  0.00     0.165 HD
BRANCH  14  16
HETATM   16  C16 UNL     1      21.720   6.153  51.274  1.00  0.00     0.084 C 
HETATM   17  C17 UNL     1      22.405   7.083  50.633  1.00  0.00    -0.009 C 
BRANCH  17  18
HETATM   18  C18 UNL     1      23.867   7.233  50.796  1.00  0.00     0.039 C 
BRANCH  18  19
HETATM   19  C19 UNL     1      24.317   8.454  50.007  1.00  0.00     0.113 C 
BRANCH  19  20
HETATM   20  C20 UNL     1      25.780   8.544  50.184  1.00  0.00     0.139 C 
HETATM   21  O3  UNL     1      26.391   9.651  50.237  1.00  0.00    -0.650 OA
BRANCH  20  22
HETATM   22  O4  UNL     1      26.465   7.341  50.289  1.00  0.00    -0.776 OA
HETATM   23  H21 UNL     1      27.220   7.221  50.964  1.00  0.00     0.167 HD
ENDBRANCH  20  22
ENDBRANCH  19  20
ENDBRANCH  18  19
ENDBRANCH  17  18
ENDBRANCH  14  16
ENDBRANCH  10  14
BRANCH   1  24
HETATM   24  C7  UNL     1      25.941  -0.237  54.756  1.00  0.00     0.072 C 
BRANCH  24  25
HETATM   25  C6  UNL     1      27.092  -0.658  53.911  1.00  0.00    -0.010 C 
HETATM   26  C2  UNL     1      28.385   0.046  53.971  1.00  0.00     0.075 C 
HETATM   27  C3  UNL     1      29.292  -0.718  53.396  1.00  0.00     0.038 C 
HETATM   28  C4  UNL     1      28.601  -1.943  52.948  1.00  0.00     0.016 C 
HETATM   29  C5  UNL     1      27.327  -1.597  53.011  1.00  0.00    -0.016 C 
BRANCH  26  30
HETATM   30  O1  UNL     1      28.611   1.291  54.532  1.00  0.00    -0.355 OA
HETATM   31  C1  UNL     1      28.786   2.457  53.758  1.00  0.00     0.210 C 
ENDBRANCH  26  30
ENDBRANCH  24  25
ENDBRANCH   1  24
TORSDOF 9
ENDMDL
MODEL 5
REMARK VINA RESULT:      -8.0      4.679      7.945
REMARK  9 active torsions:
REMARK  status: ('A' for Active; 'I' for Inactive)
REMARK    1  A    between atoms: O1_2  and  C2_3 
REMARK    2  A    between atoms: C6_7  and  C7_8 
REMARK    3  A    between atoms: C7_8  and  C8_9 
REMARK    4  A    between atoms: C15_18  and  N2_19 
REMARK    5  A    between atoms: N2_19  and  C16_20 
REMARK    6  A    between atoms: C17_21  and  C18_22 
REMARK    7  A    between atoms: C18_22  and  C19_23 
REMARK    8  A    between atoms: C19_23  and  C20_24 
REMARK    9  A    between atoms: C20_24  and  O4_26 
ROOT
HETATM    1  C8  UNL     1      19.406   0.209  52.330  1.00  0.00     0.008 C 
HETATM    2  C9  UNL     1      20.440  -0.034  53.114  1.00  0.00     0.038 C 
HETATM    3  N1  UNL     1      20.527  -1.083  54.104  1.00  0.00    -0.326 N 
HETATM    4  C10 UNL     1      21.818  -0.923  54.662  1.00  0.00     0.235 C 
HETATM    5  O2  UNL     1      22.249  -1.821  55.431  1.00  0.00    -0.272 OA
HETATM    6  C11 UNL     1      22.491   0.304  54.253  1.00  0.00     0.143 C 
HETATM    7  C12 UNL     1      21.663   0.753  53.071  1.00  0.00    -0.018 C 
HETATM    8  C13 UNL     1      22.264   1.688  52.365  1.00  0.00    -0.010 C 
HETATM    9  C14 UNL     1      23.618   2.179  52.793  1.00  0.00     0.085 C 
HETATM   10  C15 UNL     1      24.462   0.964  52.943  1.00  0.00     0.015 C 
HETATM   11  C21 UNL     1      23.860   0.045  53.683  1.00  0.00    -0.043 C 
HETATM   12  C22 UNL     1      24.472  -1.268  53.995  1.00  0.00     0.046 C 
HETATM   13  H9  UNL     1      19.778  -1.786  54.328  1.00  0.00     0.169 HD
ENDROOT
BRANCH  10  14
HETATM   14  N2  UNL     1      25.756   0.716  52.407  1.00  0.00    -0.369 N 
HETATM   15  H14 UNL     1      25.964  -0.117  51.816  1.00  0.00     0.165 HD
BRANCH  14  16
HETATM   16  C16 UNL     1      26.963   1.456  52.526  1.00  0.00     0.084 C 
HETATM   17  C17 UNL     1      27.998   1.092  53.261  1.00  0.00    -0.009 C 
BRANCH  17  18
HETATM   18  C18 UNL     1      27.999  -0.157  54.052  1.00  0.00     0.039 C 
BRANCH  18  19
HETATM   19  C19 UNL     1      28.972  -1.134  53.409  1.00  0.00     0.113 C 
BRANCH  19  20
HETATM   20  C20 UNL     1      28.170  -2.301  52.991  1.00  0.00     0.139 C 
HETATM   21  O3  UNL     1      27.101  -2.186  52.323  1.00  0.00    -0.650 OA
BRANCH  20  22
HETATM   22  O4  UNL     1      28.648  -3.548  53.369  1.00  0.00    -0.776 OA
HETATM   23  H21 UNL     1      28.177  -4.098  54.087  1.00  0.00     0.167 HD
ENDBRANCH  20  22
ENDBRANCH  19  20
ENDBRANCH  18  19
ENDBRANCH  17  18
ENDBRANCH  14  16
ENDBRANCH  10  14
BRANCH   1  24
HETATM   24  C7  UNL     1      18.805   1.021  51.273  1.00  0.00     0.072 C 
BRANCH  24  25
HETATM   25  C6  UNL     1      19.708   1.175  50.099  1.00  0.00    -0.010 C 
HETATM   26  C2  UNL     1      19.670   2.382  49.256  1.00  0.00     0.075 C 
HETATM   27  C3  UNL     1      20.766   2.402  48.523  1.00  0.00     0.038 C 
HETATM   28  C4  UNL     1      21.542   1.199  48.879  1.00  0.00     0.016 C 
HETATM   29  C5  UNL     1      20.654   0.458  49.518  1.00  0.00    -0.016 C 
BRANCH  26  30
HETATM   30  O1  UNL     1      18.663   3.331  49.234  1.00  0.00    -0.355 OA
HETATM   31  C1  UNL     1      18.689   4.491  50.036  1.00  0.00     0.210 C 
ENDBRANCH  26  30
ENDBRANCH  24  25
ENDBRANCH   1  24
TORSDOF 9
ENDMDL
MODEL 6
REMARK VINA RESULT:      -8.0      3.341      6.720
REMARK  9 active torsions:
REMARK  status: ('A' for Active; 'I' for Inactive)
REMARK    1  A    between atoms: O1_2  and  C2_3 
REMARK    2  A    between atoms: C6_7  and  C7_8 
REMARK    3  A    between atoms: C7_8  and  C8_9 
REMARK    4  A    between atoms: C15_18  and  N2_19 
REMARK    5  A    between atoms: N2_19  and  C16_20 
REMARK    6  A    between atoms: C17_21  and  C18_22 
REMARK    7  A    between atoms: C18_22  and  C19_23 
REMARK    8  A    between atoms: C19_23  and  C20_24 
REMARK    9  A    between atoms: C20_24  and  O4_26 
ROOT
HETATM    1  C8  UNL     1      21.455  -0.221  52.447  1.00  0.00     0.008 C 
HETATM    2  C9  UNL     1      22.705  -0.030  52.825  1.00  0.00     0.038 C 
HETATM    3  N1  UNL     1      23.580  -1.023  53.404  1.00  0.00    -0.326 N 
HETATM    4  C10 UNL     1      24.792  -0.328  53.626  1.00  0.00     0.235 C 
HETATM    5  O2  UNL     1      25.807  -0.993  53.956  1.00  0.00    -0.272 OA
HETATM    6  C11 UNL     1      24.690   1.114  53.433  1.00  0.00     0.143 C 
HETATM    7  C12 UNL     1      23.378   1.254  52.695  1.00  0.00    -0.018 C 
HETATM    8  C13 UNL     1      23.229   2.450  52.163  1.00  0.00    -0.010 C 
HETATM    9  C14 UNL     1      24.308   3.479  52.346  1.00  0.00     0.085 C 
HETATM   10  C15 UNL     1      25.570   2.826  51.906  1.00  0.00     0.015 C 
HETATM   11  C21 UNL     1      25.725   1.640  52.475  1.00  0.00    -0.043 C 
HETATM   12  C22 UNL     1      26.894   0.768  52.216  1.00  0.00     0.046 C 
HETATM   13  H9  UNL     1      23.332  -2.026  53.600  1.00  0.00     0.169 HD
ENDROOT
BRANCH  10  14
HETATM   14  N2  UNL     1      26.550   3.319  51.002  1.00  0.00    -0.369 N 
HETATM   15  H14 UNL     1      27.525   3.537  51.300  1.00  0.00     0.165 HD
BRANCH  14  16
HETATM   16  C16 UNL     1      26.463   3.611  49.614  1.00  0.00     0.084 C 
HETATM   17  C17 UNL     1      26.070   4.768  49.113  1.00  0.00    -0.009 C 
BRANCH  17  18
HETATM   18  C18 UNL     1      25.671   5.902  49.974  1.00  0.00     0.039 C 
BRANCH  18  19
HETATM   19  C19 UNL     1      24.231   6.272  49.648  1.00  0.00     0.113 C 
BRANCH  19  20
HETATM   20  C20 UNL     1      23.700   6.957  50.843  1.00  0.00     0.139 C 
HETATM   21  O3  UNL     1      22.563   7.514  50.857  1.00  0.00    -0.650 OA
BRANCH  20  22
HETATM   22  O4  UNL     1      24.516   6.964  51.966  1.00  0.00    -0.776 OA
HETATM   23  H21 UNL     1      25.255   7.658  52.076  1.00  0.00     0.167 HD
ENDBRANCH  20  22
ENDBRANCH  19  20
ENDBRANCH  18  19
ENDBRANCH  17  18
ENDBRANCH  14  16
ENDBRANCH  10  14
BRANCH   1  24
HETATM   24  C7  UNL     1      20.227   0.326  51.870  1.00  0.00     0.072 C 
BRANCH  24  25
HETATM   25  C6  UNL     1      20.437   0.853  50.494  1.00  0.00    -0.010 C 
HETATM   26  C2  UNL     1      19.613   1.951  49.959  1.00  0.00     0.075 C 
HETATM   27  C3  UNL     1      20.216   2.428  48.888  1.00  0.00     0.038 C 
HETATM   28  C4  UNL     1      21.452   1.643  48.706  1.00  0.00     0.016 C 
HETATM   29  C5  UNL     1      21.249   0.594  49.483  1.00  0.00    -0.016 C 
BRANCH  26  30
HETATM   30  O1  UNL     1      18.417   2.404  50.486  1.00  0.00    -0.355 OA
HETATM   31  C1  UNL     1      18.334   3.521  51.343  1.00  0.00     0.210 C 
ENDBRANCH  26  30
ENDBRANCH  24  25
ENDBRANCH   1  24
TORSDOF 9
ENDMDL
MODEL 7
REMARK VINA RESULT:      -8.0      1.818      2.906
REMARK  9 active torsions:
REMARK  status: ('A' for Active; 'I' for Inactive)
REMARK    1  A    between atoms: O1_2  and  C2_3 
REMARK    2  A    between atoms: C6_7  and  C7_8 
REMARK    3  A    between atoms: C7_8  and  C8_9 
REMARK    4  A    between atoms: C15_18  and  N2_19 
REMARK    5  A    between atoms: N2_19  and  C16_20 
REMARK    6  A    between atoms: C17_21  and  C18_22 
REMARK    7  A    between atoms: C18_22  and  C19_23 
REMARK    8  A    between atoms: C19_23  and  C20_24 
REMARK    9  A    between atoms: C20_24  and  O4_26 
ROOT
HETATM    1  C8  UNL     1      23.330   2.080  52.427  1.00  0.00     0.008 C 
HETATM    2  C9  UNL     1      23.177   3.250  51.838  1.00  0.00     0.038 C 
HETATM    3  N1  UNL     1      22.133   4.211  52.114  1.00  0.00    -0.326 N 
HETATM    4  C10 UNL     1      22.409   5.283  51.232  1.00  0.00     0.235 C 
HETATM    5  O2  UNL     1      21.766   6.354  51.379  1.00  0.00    -0.272 OA
HETATM    6  C11 UNL     1      23.437   4.984  50.242  1.00  0.00     0.143 C 
HETATM    7  C12 UNL     1      24.076   3.734  50.801  1.00  0.00    -0.018 C 
HETATM    8  C13 UNL     1      25.222   3.454  50.215  1.00  0.00    -0.010 C 
HETATM    9  C14 UNL     1      25.729   4.348  49.120  1.00  0.00     0.085 C 
HETATM   10  C15 UNL     1      25.711   5.726  49.680  1.00  0.00     0.015 C 
HETATM   11  C21 UNL     1      24.542   6.007  50.235  1.00  0.00    -0.043 C 
HETATM   12  C22 UNL     1      24.244   7.311  50.872  1.00  0.00     0.046 C 
HETATM   13  H9  UNL     1      21.362   4.099  52.820  1.00  0.00     0.169 HD
ENDROOT
BRANCH  10  14
HETATM   14  N2  UNL     1      26.752   6.695  49.674  1.00  0.00    -0.369 N 
HETATM   15  H14 UNL     1      27.208   7.028  50.551  1.00  0.00     0.165 HD
BRANCH  14  16
HETATM   16  C16 UNL     1      27.368   7.383  48.594  1.00  0.00     0.084 C 
HETATM   17  C17 UNL     1      28.448   6.966  47.957  1.00  0.00    -0.009 C 
BRANCH  17  18
HETATM   18  C18 UNL     1      29.136   5.709  48.318  1.00  0.00     0.039 C 
BRANCH  18  19
HETATM   19  C19 UNL     1      30.544   5.747  47.740  1.00  0.00     0.113 C 
BRANCH  19  20
HETATM   20  C20 UNL     1      31.463   5.798  48.894  1.00  0.00     0.139 C 
HETATM   21  O3  UNL     1      31.582   6.827  49.623  1.00  0.00    -0.650 OA
BRANCH  20  22
HETATM   22  O4  UNL     1      32.203   4.651  49.146  1.00  0.00    -0.776 OA
HETATM   23  H21 UNL     1      33.198   4.606  48.927  1.00  0.00     0.167 HD
ENDBRANCH  20  22
ENDBRANCH  19  20
ENDBRANCH  18  19
ENDBRANCH  17  18
ENDBRANCH  14  16
ENDBRANCH  10  14
BRANCH   1  24
HETATM   24  C7  UNL     1      24.092   0.838  52.557  1.00  0.00     0.072 C 
BRANCH  24  25
HETATM   25  C6  UNL     1      23.446  -0.125  53.490  1.00  0.00    -0.010 C 
HETATM   26  C2  UNL     1      24.221  -0.825  54.528  1.00  0.00     0.075 C 
HETATM   27  C3  UNL     1      23.371  -1.336  55.397  1.00  0.00     0.038 C 
HETATM   28  C4  UNL     1      22.017  -0.974  54.936  1.00  0.00     0.016 C 
HETATM   29  C5  UNL     1      22.226  -0.596  53.688  1.00  0.00    -0.016 C 
BRANCH  26  30
HETATM   30  O1  UNL     1      25.600  -0.930  54.586  1.00  0.00    -0.355 OA
HETATM   31  C1  UNL     1      26.425   0.109  55.063  1.00  0.00     0.210 C 
ENDBRANCH  26  30
ENDBRANCH  24  25
ENDBRANCH   1  24
TORSDOF 9
ENDMDL
MODEL 8
REMARK VINA RESULT:      -7.8      5.182      8.770
REMARK  9 active torsions:
REMARK  status: ('A' for Active; 'I' for Inactive)
REMARK    1  A    between atoms: O1_2  and  C2_3 
REMARK    2  A    between atoms: C6_7  and  C7_8 
REMARK    3  A    between atoms: C7_8  and  C8_9 
REMARK    4  A    between atoms: C15_18  and  N2_19 
REMARK    5  A    between atoms: N2_19  and  C16_20 
REMARK    6  A    between atoms: C17_21  and  C18_22 
REMARK    7  A    between atoms: C18_22  and  C19_23 
REMARK    8  A    between atoms: C19_23  and  C20_24 
REMARK    9  A    between atoms: C20_24  and  O4_26 
ROOT
HETATM    1  C8  UNL     1      18.464  -0.520  52.498  1.00  0.00     0.008 C 
HETATM    2  C9  UNL     1      19.617  -0.471  53.140  1.00  0.00     0.038 C 
HETATM    3  N1  UNL     1      20.063  -1.395  54.157  1.00  0.00    -0.326 N 
HETATM    4  C10 UNL     1      21.344  -0.916  54.521  1.00  0.00     0.235 C 
HETATM    5  O2  UNL     1      22.059  -1.636  55.264  1.00  0.00    -0.272 OA
HETATM    6  C11 UNL     1      21.666   0.392  53.962  1.00  0.00     0.143 C 
HETATM    7  C12 UNL     1      20.616   0.556  52.887  1.00  0.00    -0.018 C 
HETATM    8  C13 UNL     1      20.897   1.542  52.060  1.00  0.00    -0.010 C 
HETATM    9  C14 UNL     1      22.149   2.346  52.269  1.00  0.00     0.085 C 
HETATM   10  C15 UNL     1      23.257   1.358  52.358  1.00  0.00     0.015 C 
HETATM   11  C21 UNL     1      22.975   0.392  53.219  1.00  0.00    -0.043 C 
HETATM   12  C22 UNL     1      23.902  -0.729  53.505  1.00  0.00     0.046 C 
HETATM   13  H9  UNL     1      19.525  -2.224  54.518  1.00  0.00     0.169 HD
ENDROOT
BRANCH  10  14
HETATM   14  N2  UNL     1      24.495   1.355  51.659  1.00  0.00    -0.369 N 
HETATM   15  H14 UNL     1      24.792   0.559  51.054  1.00  0.00     0.165 HD
BRANCH  14  16
HETATM   16  C16 UNL     1      25.531   2.327  51.609  1.00  0.00     0.084 C 
HETATM   17  C17 UNL     1      26.779   2.113  51.985  1.00  0.00    -0.009 C 
BRANCH  17  18
HETATM   18  C18 UNL     1      27.229   0.806  52.506  1.00  0.00     0.039 C 
BRANCH  18  19
HETATM   19  C19 UNL     1      27.514   0.952  53.994  1.00  0.00     0.113 C 
BRANCH  19  20
HETATM   20  C20 UNL     1      28.973   1.140  54.119  1.00  0.00     0.139 C 
HETATM   21  O3  UNL     1      29.807   0.310  53.651  1.00  0.00    -0.650 OA
BRANCH  20  22
HETATM   22  O4  UNL     1      29.395   2.284  54.783  1.00  0.00    -0.776 OA
HETATM   23  H21 UNL     1      29.240   3.211  54.387  1.00  0.00     0.167 HD
ENDBRANCH  20  22
ENDBRANCH  19  20
ENDBRANCH  18  19
ENDBRANCH  17  18
ENDBRANCH  14  16
ENDBRANCH  10  14
BRANCH   1  24
HETATM   24  C7  UNL     1      17.568   0.058  51.497  1.00  0.00     0.072 C 
BRANCH  24  25
HETATM   25  C6  UNL     1      16.236   0.404  52.066  1.00  0.00    -0.010 C 
HETATM   26  C2  UNL     1      15.611   1.713  51.814  1.00  0.00     0.075 C 
HETATM   27  C3  UNL     1      14.337   1.626  52.140  1.00  0.00     0.038 C 
HETATM   28  C4  UNL     1      14.108   0.247  52.613  1.00  0.00     0.016 C 
HETATM   29  C5  UNL     1      15.335  -0.195  52.826  1.00  0.00    -0.016 C 
BRANCH  26  30
HETATM   30  O1  UNL     1      16.247   2.840  51.322  1.00  0.00    -0.355 OA
HETATM   31  C1  UNL     1      16.259   4.071  52.009  1.00  0.00     0.210 C 
ENDBRANCH  26  30
ENDBRANCH  24  25
ENDBRANCH   1  24
TORSDOF 9
ENDMDL
MODEL 9
REMARK VINA RESULT:      -7.7      4.406      6.942
REMARK  9 active torsions:
REMARK  status: ('A' for Active; 'I' for Inactive)
REMARK    1  A    between atoms: O1_2  and  C2_3 
REMARK    2  A    between atoms: C6_7  and  C7_8 
REMARK    3  A    between atoms: C7_8  and  C8_9 
REMARK    4  A    between atoms: C15_18  and  N2_19 
REMARK    5  A    between atoms: N2_19  and  C16_20 
REMARK    6  A    between atoms: C17_21  and  C18_22 
REMARK    7  A    between atoms: C18_22  and  C19_23 
REMARK    8  A    between atoms: C19_23  and  C20_24 
REMARK    9  A    between atoms: C20_24  and  O4_26 
ROOT
HETATM    1  C8  UNL     1      25.381  -0.270  54.698  1.00  0.00     0.008 C 
HETATM    2  C9  UNL     1      24.148  -0.588  54.351  1.00  0.00     0.038 C 
HETATM    3  N1  UNL     1      23.275  -1.499  55.054  1.00  0.00    -0.326 N 
HETATM    4  C10 UNL     1      22.083  -1.494  54.290  1.00  0.00     0.235 C 
HETATM    5  O2  UNL     1      21.068  -2.061  54.768  1.00  0.00    -0.272 OA
HETATM    6  C11 UNL     1      22.206  -0.807  53.009  1.00  0.00     0.143 C 
HETATM    7  C12 UNL     1      23.494  -0.035  53.174  1.00  0.00    -0.018 C 
HETATM    8  C13 UNL     1      23.648   0.885  52.244  1.00  0.00    -0.010 C 
HETATM    9  C14 UNL     1      22.595   1.047  51.184  1.00  0.00     0.085 C 
HETATM   10  C15 UNL     1      21.307   1.200  51.913  1.00  0.00     0.015 C 
HETATM   11  C21 UNL     1      21.149   0.249  52.821  1.00  0.00    -0.043 C 
HETATM   12  C22 UNL     1      19.956   0.158  53.694  1.00  0.00     0.046 C 
HETATM   13  H9  UNL     1      23.510  -2.027  55.932  1.00  0.00     0.169 HD
ENDROOT
BRANCH  10  14
HETATM   14  N2  UNL     1      20.307   2.195  51.737  1.00  0.00    -0.369 N 
HETATM   15  H14 UNL     1      19.354   1.971  51.380  1.00  0.00     0.165 HD
BRANCH  14  16
HETATM   16  C16 UNL     1      20.344   3.595  51.977  1.00  0.00     0.084 C 
HETATM   17  C17 UNL     1      20.689   4.502  51.081  1.00  0.00    -0.009 C 
BRANCH  17  18
HETATM   18  C18 UNL     1      21.080   4.135  49.703  1.00  0.00     0.039 C 
BRANCH  18  19
HETATM   19  C19 UNL     1      19.847   4.215  48.814  1.00  0.00     0.113 C 
BRANCH  19  20
HETATM   20  C20 UNL     1      19.666   2.869  48.236  1.00  0.00     0.139 C 
HETATM   21  O3  UNL     1      20.348   1.871  48.613  1.00  0.00    -0.650 OA
BRANCH  20  22
HETATM   22  O4  UNL     1      18.701   2.745  47.246  1.00  0.00    -0.776 OA
HETATM   23  H21 UNL     1      18.962   2.633  46.267  1.00  0.00     0.167 HD
ENDBRANCH  20  22
ENDBRANCH  19  20
ENDBRANCH  18  19
ENDBRANCH  17  18
ENDBRANCH  14  16
ENDBRANCH  10  14
BRANCH   1  24
HETATM   24  C7  UNL     1      26.598   0.492  54.422  1.00  0.00     0.072 C 
BRANCH  24  25
HETATM   25  C6  UNL     1      27.642  -0.335  53.758  1.00  0.00    -0.010 C 
HETATM   26  C2  UNL     1      29.066   0.041  53.807  1.00  0.00     0.075 C 
HETATM   27  C3  UNL     1      29.777  -1.008  53.443  1.00  0.00     0.038 C 
HETATM   28  C4  UNL     1      28.822  -2.093  53.148  1.00  0.00     0.016 C 
HETATM   29  C5  UNL     1      27.672  -1.450  53.047  1.00  0.00    -0.016 C 
BRANCH  26  30
HETATM   30  O1  UNL     1      29.571   1.276  54.171  1.00  0.00    -0.355 OA
HETATM   31  C1  UNL     1      29.016   2.492  53.721  1.00  0.00     0.210 C 
ENDBRANCH  26  30
ENDBRANCH  24  25
ENDBRANCH   1  24
TORSDOF 9
ENDMDL
