MODEL 1
REMARK VINA RESULT:      -8.3      0.000      0.000
REMARK  6 active torsions:
REMARK  status: ('A' for Active; 'I' for Inactive)
REMARK    1  A    between atoms: O1_2  and  C2_3 
REMARK    2  A    between atoms: C2_3  and  C3_4 
REMARK    3  A    between atoms: C3_4  and  O2_5 
REMARK    4  A    between atoms: O2_5  and  C4_6 
REMARK    5  A    between atoms: C12_16  and  N1_17 
REMARK    6  A    between atoms: N1_17  and  C13_18 
ROOT
HETATM    1  C4  UNL     1      20.637   0.174  52.884  1.00  0.00     0.105 A 
HETATM    2  C5  UNL     1      21.085  -0.595  53.934  1.00  0.00     0.049 A 
HETATM    3  C6  UNL     1      22.387  -0.813  54.249  1.00  0.00    -0.027 A 
HETATM    4  C7  UNL     1      23.370  -0.229  53.474  1.00  0.00     0.036 A 
HETATM    5  C8  UNL     1      23.000   0.551  52.412  1.00  0.00     0.116 A 
HETATM    6  C9  UNL     1      21.657   0.756  52.113  1.00  0.00     0.136 A 
HETATM    7  O3  UNL     1      21.509   1.587  50.987  1.00  0.00    -0.344 OA
HETATM    8  C10 UNL     1      22.455   2.597  50.655  1.00  0.00     0.202 C 
HETATM    9  C11 UNL     1      23.867   2.118  50.725  1.00  0.00     0.202 C 
HETATM   10  O4  UNL     1      24.045   1.093  51.694  1.00  0.00    -0.345 OA
HETATM   11  C12 UNL     1      24.777  -0.478  53.831  1.00  0.00     0.281 C 
HETATM   12  O5  UNL     1      24.908  -1.388  54.843  1.00  0.00    -0.275 OA
HETATM   13  N2  UNL     1      24.028  -1.346  55.828  1.00  0.00    -0.199 NA
HETATM   14  C20 UNL     1      22.675  -1.685  55.433  1.00  0.00     0.157 C 
HETATM   15  H22 UNL     1      24.024  -0.530  56.444  1.00  0.00     0.154 HD
ENDROOT
BRANCH  11  16
HETATM   16  N1  UNL     1      25.535   0.740  54.000  1.00  0.00    -0.362 N 
HETATM   17  H14 UNL     1      25.114   1.669  54.270  1.00  0.00     0.162 HD
BRANCH  16  18
HETATM   18  C13 UNL     1      27.017   0.640  53.765  1.00  0.00     0.005 A 
HETATM   19  C14 UNL     1      27.414  -0.828  53.556  1.00  0.00     0.010 A 
HETATM   20  C15 UNL     1      29.225  -0.989  53.263  1.00  0.00     0.123 A 
HETATM   21  C16 UNL     1      29.111   0.308  53.410  1.00  0.00    -0.103 A 
HETATM   22  C17 UNL     1      29.007   1.221  53.516  1.00  0.00    -0.106 A 
HETATM   23  C18 UNL     1      28.824   2.552  53.676  1.00  0.00     0.100 A 
HETATM   24  C19 UNL     1      27.169   2.197  53.898  1.00  0.00     0.068 A 
ENDBRANCH  16  18
ENDBRANCH  11  16
BRANCH   1  25
HETATM   25  O2  UNL     1      19.420   0.514  52.404  1.00  0.00    -0.346 OA
BRANCH  25  26
HETATM   26  C3  UNL     1      18.477  -0.168  51.674  1.00  0.00     0.201 C 
BRANCH  26  27
HETATM   27  C2  UNL     1      17.222  -0.490  52.428  1.00  0.00     0.193 C 
BRANCH  27  28
HETATM   28  O1  UNL     1      17.572  -1.080  53.668  1.00  0.00    -0.394 OA
HETATM   29  C1  UNL     1      17.621  -2.445  53.453  1.00  0.00     0.201 C 
ENDBRANCH  27  28
ENDBRANCH  26  27
ENDBRANCH  25  26
ENDBRANCH   1  25
TORSDOF 6
ENDMDL
MODEL 2
REMARK VINA RESULT:      -8.2      2.313      7.668
REMARK  6 active torsions:
REMARK  status: ('A' for Active; 'I' for Inactive)
REMARK    1  A    between atoms: O1_2  and  C2_3 
REMARK    2  A    between atoms: C2_3  and  C3_4 
REMARK    3  A    between atoms: C3_4  and  O2_5 
REMARK    4  A    between atoms: O2_5  and  C4_6 
REMARK    5  A    between atoms: C12_16  and  N1_17 
REMARK    6  A    between atoms: N1_17  and  C13_18 
ROOT
HETATM    1  C4  UNL     1      26.562   0.301  53.903  1.00  0.00     0.105 A 
HETATM    2  C5  UNL     1      26.506   1.216  52.876  1.00  0.00     0.049 A 
HETATM    3  C6  UNL     1      25.387   1.555  52.185  1.00  0.00    -0.027 A 
HETATM    4  C7  UNL     1      24.189   0.952  52.515  1.00  0.00     0.036 A 
HETATM    5  C8  UNL     1      24.167   0.032  53.527  1.00  0.00     0.116 A 
HETATM    6  C9  UNL     1      25.329  -0.296  54.217  1.00  0.00     0.136 A 
HETATM    7  O3  UNL     1      25.074  -1.259  55.213  1.00  0.00    -0.344 OA
HETATM    8  C10 UNL     1      23.821  -1.350  55.882  1.00  0.00     0.202 C 
HETATM    9  C11 UNL     1      22.657  -1.293  54.949  1.00  0.00     0.202 C 
HETATM   10  O4  UNL     1      22.929  -0.518  53.788  1.00  0.00    -0.345 OA
HETATM   11  C12 UNL     1      22.987   1.333  51.754  1.00  0.00     0.281 C 
HETATM   12  O5  UNL     1      23.271   2.169  50.709  1.00  0.00    -0.275 OA
HETATM   13  N2  UNL     1      24.193   3.095  50.893  1.00  0.00    -0.199 NA
HETATM   14  C20 UNL     1      25.531   2.574  51.097  1.00  0.00     0.157 C 
HETATM   15  H22 UNL     1      24.002   3.848  51.558  1.00  0.00     0.154 HD
ENDROOT
BRANCH  11  16
HETATM   16  N1  UNL     1      21.899   1.761  52.603  1.00  0.00    -0.362 N 
HETATM   17  H14 UNL     1      22.019   2.108  53.591  1.00  0.00     0.162 HD
BRANCH  16  18
HETATM   18  C13 UNL     1      20.521   1.691  52.006  1.00  0.00     0.005 A 
HETATM   19  C14 UNL     1      20.171   0.234  51.670  1.00  0.00     0.010 A 
HETATM   20  C15 UNL     1      18.486   0.110  50.938  1.00  0.00     0.123 A 
HETATM   21  C16 UNL     1      18.574   1.401  51.142  1.00  0.00    -0.103 A 
HETATM   22  C17 UNL     1      18.657   2.309  51.295  1.00  0.00    -0.106 A 
HETATM   23  C18 UNL     1      18.808   3.633  51.531  1.00  0.00     0.100 A 
HETATM   24  C19 UNL     1      20.358   3.247  52.135  1.00  0.00     0.068 A 
ENDBRANCH  16  18
ENDBRANCH  11  16
BRANCH   1  25
HETATM   25  O2  UNL     1      27.541  -0.174  54.703  1.00  0.00    -0.346 OA
BRANCH  25  26
HETATM   26  C3  UNL     1      28.909  -0.226  54.582  1.00  0.00     0.201 C 
BRANCH  26  27
HETATM   27  C2  UNL     1      29.397  -0.977  53.379  1.00  0.00     0.193 C 
BRANCH  27  28
HETATM   28  O1  UNL     1      29.270  -2.367  53.625  1.00  0.00    -0.394 OA
HETATM   29  C1  UNL     1      28.230  -2.813  52.830  1.00  0.00     0.201 C 
ENDBRANCH  27  28
ENDBRANCH  26  27
ENDBRANCH  25  26
ENDBRANCH   1  25
TORSDOF 6
ENDMDL
MODEL 3
REMARK VINA RESULT:      -8.1      2.344      7.622
REMARK  6 active torsions:
REMARK  status: ('A' for Active; 'I' for Inactive)
REMARK    1  A    between atoms: O1_2  and  C2_3 
REMARK    2  A    between atoms: C2_3  and  C3_4 
REMARK    3  A    between atoms: C3_4  and  O2_5 
REMARK    4  A    between atoms: O2_5  and  C4_6 
REMARK    5  A    between atoms: C12_16  and  N1_17 
REMARK    6  A    between atoms: N1_17  and  C13_18 
ROOT
HETATM    1  C4  UNL     1      25.034  -0.092  53.858  1.00  0.00     0.105 A 
HETATM    2  C5  UNL     1      24.009  -0.832  54.402  1.00  0.00     0.049 A 
HETATM    3  C6  UNL     1      22.685  -0.604  54.208  1.00  0.00    -0.027 A 
HETATM    4  C7  UNL     1      22.299   0.449  53.403  1.00  0.00     0.036 A 
HETATM    5  C8  UNL     1      23.263   1.230  52.826  1.00  0.00     0.116 A 
HETATM    6  C9  UNL     1      24.612   0.972  53.043  1.00  0.00     0.136 A 
HETATM    7  O3  UNL     1      25.424   1.895  52.356  1.00  0.00    -0.344 OA
HETATM    8  C10 UNL     1      25.022   2.497  51.130  1.00  0.00     0.202 C 
HETATM    9  C11 UNL     1      23.620   3.011  51.166  1.00  0.00     0.202 C 
HETATM   10  O4  UNL     1      22.788   2.258  52.038  1.00  0.00    -0.345 OA
HETATM   11  C12 UNL     1      20.858   0.682  53.204  1.00  0.00     0.281 C 
HETATM   12  O5  UNL     1      20.083  -0.138  53.978  1.00  0.00    -0.275 OA
HETATM   13  N2  UNL     1      20.481  -1.386  54.145  1.00  0.00    -0.199 NA
HETATM   14  C20 UNL     1      21.718  -1.523  54.890  1.00  0.00     0.157 C 
HETATM   15  H22 UNL     1      20.485  -2.009  53.335  1.00  0.00     0.154 HD
ENDROOT
BRANCH  11  16
HETATM   16  N1  UNL     1      20.487   0.737  51.809  1.00  0.00    -0.362 N 
HETATM   17  H14 UNL     1      21.069   0.340  51.024  1.00  0.00     0.162 HD
BRANCH  16  18
HETATM   18  C13 UNL     1      19.182   1.414  51.493  1.00  0.00     0.005 A 
HETATM   19  C14 UNL     1      19.276   2.910  51.825  1.00  0.00     0.010 A 
HETATM   20  C15 UNL     1      17.694   3.772  51.448  1.00  0.00     0.123 A 
HETATM   21  C16 UNL     1      17.397   2.546  51.099  1.00  0.00    -0.103 A 
HETATM   22  C17 UNL     1      17.210   1.672  50.857  1.00  0.00    -0.106 A 
HETATM   23  C18 UNL     1      16.965   0.387  50.512  1.00  0.00     0.100 A 
HETATM   24  C19 UNL     1      18.565   0.054  51.007  1.00  0.00     0.068 A 
ENDBRANCH  16  18
ENDBRANCH  11  16
BRANCH   1  25
HETATM   25  O2  UNL     1      26.382  -0.143  53.920  1.00  0.00    -0.346 OA
BRANCH  25  26
HETATM   26  C3  UNL     1      27.287   0.142  54.915  1.00  0.00     0.201 C 
BRANCH  26  27
HETATM   27  C2  UNL     1      28.689   0.367  54.433  1.00  0.00     0.193 C 
BRANCH  27  28
HETATM   28  O1  UNL     1      29.070   1.697  54.737  1.00  0.00    -0.394 OA
HETATM   29  C1  UNL     1      28.699   2.470  53.652  1.00  0.00     0.201 C 
ENDBRANCH  27  28
ENDBRANCH  26  27
ENDBRANCH  25  26
ENDBRANCH   1  25
TORSDOF 6
ENDMDL
MODEL 4
REMARK VINA RESULT:      -7.9      2.286      7.923
REMARK  6 active torsions:
REMARK  status: ('A' for Active; 'I' for Inactive)
REMARK    1  A    between atoms: O1_2  and  C2_3 
REMARK    2  A    between atoms: C2_3  and  C3_4 
REMARK    3  A    between atoms: C3_4  and  O2_5 
REMARK    4  A    between atoms: O2_5  and  C4_6 
REMARK    5  A    between atoms: C12_16  and  N1_17 
REMARK    6  A    between atoms: N1_17  and  C13_18 
ROOT
HETATM    1  C4  UNL     1      25.635   0.363  53.321  1.00  0.00     0.105 A 
HETATM    2  C5  UNL     1      25.514   1.281  52.303  1.00  0.00     0.049 A 
HETATM    3  C6  UNL     1      24.355   1.614  51.678  1.00  0.00    -0.027 A 
HETATM    4  C7  UNL     1      23.183   0.999  52.071  1.00  0.00     0.036 A 
HETATM    5  C8  UNL     1      23.225   0.075  53.079  1.00  0.00     0.116 A 
HETATM    6  C9  UNL     1      24.427  -0.246  53.700  1.00  0.00     0.136 A 
HETATM    7  O3  UNL     1      24.237  -1.216  54.704  1.00  0.00    -0.344 OA
HETATM    8  C10 UNL     1      23.025  -1.321  55.442  1.00  0.00     0.202 C 
HETATM    9  C11 UNL     1      21.810  -1.270  54.576  1.00  0.00     0.202 C 
HETATM   10  O4  UNL     1      22.009  -0.488  53.406  1.00  0.00    -0.345 OA
HETATM   11  C12 UNL     1      21.936   1.372  51.381  1.00  0.00     0.281 C 
HETATM   12  O5  UNL     1      22.154   2.215  50.326  1.00  0.00    -0.275 OA
HETATM   13  N2  UNL     1      23.077   3.149  50.462  1.00  0.00    -0.199 NA
HETATM   14  C20 UNL     1      24.428   2.639  50.588  1.00  0.00     0.157 C 
HETATM   15  H22 UNL     1      22.917   3.898  51.140  1.00  0.00     0.154 HD
ENDROOT
BRANCH  11  16
HETATM   16  N1  UNL     1      20.895   1.787  52.291  1.00  0.00    -0.362 N 
HETATM   17  H14 UNL     1      21.070   2.188  53.251  1.00  0.00     0.162 HD
BRANCH  16  18
HETATM   18  C13 UNL     1      19.481   1.618  51.807  1.00  0.00     0.005 A 
HETATM   19  C14 UNL     1      19.196   0.135  51.534  1.00  0.00     0.010 A 
HETATM   20  C15 UNL     1      17.470  -0.109  50.941  1.00  0.00     0.123 A 
HETATM   21  C16 UNL     1      17.494   1.189  51.107  1.00  0.00    -0.103 A 
HETATM   22  C17 UNL     1      17.533   2.105  51.233  1.00  0.00    -0.106 A 
HETATM   23  C18 UNL     1      17.620   3.441  51.426  1.00  0.00     0.100 A 
HETATM   24  C19 UNL     1      19.233   3.165  51.914  1.00  0.00     0.068 A 
ENDBRANCH  16  18
ENDBRANCH  11  16
BRANCH   1  25
HETATM   25  O2  UNL     1      26.662  -0.107  54.062  1.00  0.00    -0.346 OA
BRANCH  25  26
HETATM   26  C3  UNL     1      27.940  -0.504  53.749  1.00  0.00     0.201 C 
BRANCH  26  27
HETATM   27  C2  UNL     1      29.018   0.370  54.317  1.00  0.00     0.193 C 
BRANCH  27  28
HETATM   28  O1  UNL     1      28.453   1.619  54.675  1.00  0.00    -0.394 OA
HETATM   29  C1  UNL     1      28.785   2.505  53.666  1.00  0.00     0.201 C 
ENDBRANCH  27  28
ENDBRANCH  26  27
ENDBRANCH  25  26
ENDBRANCH   1  25
TORSDOF 6
ENDMDL
MODEL 5
REMARK VINA RESULT:      -7.8      2.540      8.159
REMARK  6 active torsions:
REMARK  status: ('A' for Active; 'I' for Inactive)
REMARK    1  A    between atoms: O1_2  and  C2_3 
REMARK    2  A    between atoms: C2_3  and  C3_4 
REMARK    3  A    between atoms: C3_4  and  O2_5 
REMARK    4  A    between atoms: O2_5  and  C4_6 
REMARK    5  A    between atoms: C12_16  and  N1_17 
REMARK    6  A    between atoms: N1_17  and  C13_18 
ROOT
HETATM    1  C4  UNL     1      26.665   1.948  51.902  1.00  0.00     0.105 A 
HETATM    2  C5  UNL     1      26.080   2.821  51.013  1.00  0.00     0.049 A 
HETATM    3  C6  UNL     1      24.763   2.843  50.683  1.00  0.00    -0.027 A 
HETATM    4  C7  UNL     1      23.912   1.927  51.271  1.00  0.00     0.036 A 
HETATM    5  C8  UNL     1      24.422   1.028  52.167  1.00  0.00     0.116 A 
HETATM    6  C9  UNL     1      25.776   1.030  52.485  1.00  0.00     0.136 A 
HETATM    7  O3  UNL     1      26.079   0.025  53.423  1.00  0.00    -0.344 OA
HETATM    8  C10 UNL     1      25.138  -0.417  54.396  1.00  0.00     0.202 C 
HETATM    9  C11 UNL     1      23.785  -0.677  53.822  1.00  0.00     0.202 C 
HETATM   10  O4  UNL     1      23.501   0.153  52.704  1.00  0.00    -0.345 OA
HETATM   11  C12 UNL     1      22.487   1.966  50.901  1.00  0.00     0.281 C 
HETATM   12  O5  UNL     1      22.230   2.857  49.895  1.00  0.00    -0.275 OA
HETATM   13  N2  UNL     1      22.888   4.002  49.903  1.00  0.00    -0.199 NA
HETATM   14  C20 UNL     1      24.317   3.871  49.690  1.00  0.00     0.157 C 
HETATM   15  H22 UNL     1      22.703   4.666  50.658  1.00  0.00     0.154 HD
ENDROOT
BRANCH  11  16
HETATM   16  N1  UNL     1      21.613   2.067  52.046  1.00  0.00    -0.362 N 
HETATM   17  H14 UNL     1      21.948   2.171  53.041  1.00  0.00     0.162 HD
BRANCH  16  18
HETATM   18  C13 UNL     1      20.137   2.014  51.765  1.00  0.00     0.005 A 
HETATM   19  C14 UNL     1      19.548   3.432  51.800  1.00  0.00     0.010 A 
HETATM   20  C15 UNL     1      17.739   3.406  51.456  1.00  0.00     0.123 A 
HETATM   21  C16 UNL     1      18.025   2.130  51.378  1.00  0.00    -0.103 A 
HETATM   22  C17 UNL     1      18.250   1.234  51.326  1.00  0.00    -0.106 A 
HETATM   23  C18 UNL     1      18.609  -0.068  51.258  1.00  0.00     0.100 A 
HETATM   24  C19 UNL     1      20.195   0.452  51.615  1.00  0.00     0.068 A 
ENDBRANCH  16  18
ENDBRANCH  11  16
BRANCH   1  25
HETATM   25  O2  UNL     1      27.921   1.757  52.362  1.00  0.00    -0.346 OA
BRANCH  25  26
HETATM   26  C3  UNL     1      28.607   2.246  53.447  1.00  0.00     0.201 C 
BRANCH  26  27
HETATM   27  C2  UNL     1      29.196   1.192  54.336  1.00  0.00     0.193 C 
BRANCH  27  28
HETATM   28  O1  UNL     1      29.975   0.310  53.546  1.00  0.00    -0.394 OA
HETATM   29  C1  UNL     1      29.485  -0.962  53.779  1.00  0.00     0.201 C 
ENDBRANCH  27  28
ENDBRANCH  26  27
ENDBRANCH  25  26
ENDBRANCH   1  25
TORSDOF 6
ENDMDL
MODEL 6
REMARK VINA RESULT:      -7.8      2.178      7.955
REMARK  6 active torsions:
REMARK  status: ('A' for Active; 'I' for Inactive)
REMARK    1  A    between atoms: O1_2  and  C2_3 
REMARK    2  A    between atoms: C2_3  and  C3_4 
REMARK    3  A    between atoms: C3_4  and  O2_5 
REMARK    4  A    between atoms: O2_5  and  C4_6 
REMARK    5  A    between atoms: C12_16  and  N1_17 
REMARK    6  A    between atoms: N1_17  and  C13_18 
ROOT
HETATM    1  C4  UNL     1      25.541   0.819  53.394  1.00  0.00     0.105 A 
HETATM    2  C5  UNL     1      25.183   1.613  52.328  1.00  0.00     0.049 A 
HETATM    3  C6  UNL     1      23.978   1.595  51.703  1.00  0.00    -0.027 A 
HETATM    4  C7  UNL     1      23.007   0.720  52.149  1.00  0.00     0.036 A 
HETATM    5  C8  UNL     1      23.290  -0.101  53.206  1.00  0.00     0.116 A 
HETATM    6  C9  UNL     1      24.534  -0.060  53.826  1.00  0.00     0.136 A 
HETATM    7  O3  UNL     1      24.604  -0.985  54.885  1.00  0.00    -0.344 OA
HETATM    8  C10 UNL     1      23.462  -1.359  55.647  1.00  0.00     0.202 C 
HETATM    9  C11 UNL     1      22.275  -1.678  54.799  1.00  0.00     0.202 C 
HETATM   10  O4  UNL     1      22.263  -0.941  53.583  1.00  0.00    -0.345 OA
HETATM   11  C12 UNL     1      21.706   0.714  51.458  1.00  0.00     0.281 C 
HETATM   12  O5  UNL     1      21.695   1.521  50.354  1.00  0.00    -0.275 OA
HETATM   13  N2  UNL     1      22.343   2.670  50.423  1.00  0.00    -0.199 NA
HETATM   14  C20 UNL     1      23.781   2.538  50.556  1.00  0.00     0.157 C 
HETATM   15  H22 UNL     1      21.993   3.390  51.060  1.00  0.00     0.154 HD
ENDROOT
BRANCH  11  16
HETATM   16  N1  UNL     1      20.593   0.896  52.360  1.00  0.00    -0.362 N 
HETATM   17  H14 UNL     1      20.651   1.408  53.280  1.00  0.00     0.162 HD
BRANCH  16  18
HETATM   18  C13 UNL     1      19.281   0.301  51.927  1.00  0.00     0.005 A 
HETATM   19  C14 UNL     1      18.903   0.828  50.536  1.00  0.00     0.010 A 
HETATM   20  C15 UNL     1      17.300   0.117  49.972  1.00  0.00     0.123 A 
HETATM   21  C16 UNL     1      17.426  -0.453  51.145  1.00  0.00    -0.103 A 
HETATM   22  C17 UNL     1      17.535  -0.845  51.976  1.00  0.00    -0.106 A 
HETATM   23  C18 UNL     1      17.723  -1.402  53.194  1.00  0.00     0.100 A 
HETATM   24  C19 UNL     1      19.177  -0.509  53.269  1.00  0.00     0.068 A 
ENDBRANCH  16  18
ENDBRANCH  11  16
BRANCH   1  25
HETATM   25  O2  UNL     1      26.656   0.678  54.144  1.00  0.00    -0.346 OA
BRANCH  25  26
HETATM   26  C3  UNL     1      27.869   0.075  53.917  1.00  0.00     0.201 C 
BRANCH  26  27
HETATM   27  C2  UNL     1      27.794  -1.182  53.101  1.00  0.00     0.193 C 
BRANCH  27  28
HETATM   28  O1  UNL     1      28.923  -1.986  53.395  1.00  0.00    -0.394 OA
HETATM   29  C1  UNL     1      29.954  -1.117  53.706  1.00  0.00     0.201 C 
ENDBRANCH  27  28
ENDBRANCH  26  27
ENDBRANCH  25  26
ENDBRANCH   1  25
TORSDOF 6
ENDMDL
MODEL 7
REMARK VINA RESULT:      -7.6      3.687      5.737
REMARK  6 active torsions:
REMARK  status: ('A' for Active; 'I' for Inactive)
REMARK    1  A    between atoms: O1_2  and  C2_3 
REMARK    2  A    between atoms: C2_3  and  C3_4 
REMARK    3  A    between atoms: C3_4  and  O2_5 
REMARK    4  A    between atoms: O2_5  and  C4_6 
REMARK    5  A    between atoms: C12_16  and  N1_17 
REMARK    6  A    between atoms: N1_17  and  C13_18 
ROOT
HETATM    1  C4  UNL     1      23.001   1.107  52.157  1.00  0.00     0.105 A 
HETATM    2  C5  UNL     1      24.362   1.034  52.346  1.00  0.00     0.049 A 
HETATM    3  C6  UNL     1      25.284   1.828  51.743  1.00  0.00    -0.027 A 
HETATM    4  C7  UNL     1      24.855   2.799  50.860  1.00  0.00     0.036 A 
HETATM    5  C8  UNL     1      23.514   2.933  50.623  1.00  0.00     0.116 A 
HETATM    6  C9  UNL     1      22.593   2.105  51.255  1.00  0.00     0.136 A 
HETATM    7  O3  UNL     1      21.277   2.417  50.865  1.00  0.00    -0.344 OA
HETATM    8  C10 UNL     1      20.885   3.734  50.492  1.00  0.00     0.202 C 
HETATM    9  C11 UNL     1      21.841   4.381  49.546  1.00  0.00     0.202 C 
HETATM   10  O4  UNL     1      23.176   3.928  49.728  1.00  0.00    -0.345 OA
HETATM   11  C12 UNL     1      25.869   3.650  50.215  1.00  0.00     0.281 C 
HETATM   12  O5  UNL     1      27.146   3.253  50.503  1.00  0.00    -0.275 OA
HETATM   13  N2  UNL     1      27.399   2.826  51.726  1.00  0.00    -0.199 NA
HETATM   14  C20 UNL     1      26.724   1.591  52.079  1.00  0.00     0.157 C 
HETATM   15  H22 UNL     1      27.340   3.494  52.498  1.00  0.00     0.154 HD
ENDROOT
BRANCH  11  16
HETATM   16  N1  UNL     1      25.612   5.061  50.392  1.00  0.00    -0.362 N 
HETATM   17  H14 UNL     1      25.092   5.471  51.213  1.00  0.00     0.162 HD
BRANCH  16  18
HETATM   18  C13 UNL     1      26.134   5.973  49.317  1.00  0.00     0.005 A 
HETATM   19  C14 UNL     1      27.540   5.527  48.891  1.00  0.00     0.010 A 
HETATM   20  C15 UNL     1      28.210   6.622  47.571  1.00  0.00     0.123 A 
HETATM   21  C16 UNL     1      27.038   7.168  47.775  1.00  0.00    -0.103 A 
HETATM   22  C17 UNL     1      26.204   7.537  47.935  1.00  0.00    -0.106 A 
HETATM   23  C18 UNL     1      24.980   8.054  48.191  1.00  0.00     0.100 A 
HETATM   24  C19 UNL     1      24.810   6.816  49.354  1.00  0.00     0.068 A 
ENDBRANCH  16  18
ENDBRANCH  11  16
BRANCH   1  25
HETATM   25  O2  UNL     1      21.934   0.434  52.641  1.00  0.00    -0.346 OA
BRANCH  25  26
HETATM   26  C3  UNL     1      21.796  -0.788  53.253  1.00  0.00     0.201 C 
BRANCH  26  27
HETATM   27  C2  UNL     1      21.420  -0.717  54.703  1.00  0.00     0.193 C 
BRANCH  27  28
HETATM   28  O1  UNL     1      22.096  -1.748  55.402  1.00  0.00    -0.394 OA
HETATM   29  C1  UNL     1      23.428  -1.380  55.452  1.00  0.00     0.201 C 
ENDBRANCH  27  28
ENDBRANCH  26  27
ENDBRANCH  25  26
ENDBRANCH   1  25
TORSDOF 6
ENDMDL
MODEL 8
REMARK VINA RESULT:      -7.5      1.858      2.739
REMARK  6 active torsions:
REMARK  status: ('A' for Active; 'I' for Inactive)
REMARK    1  A    between atoms: O1_2  and  C2_3 
REMARK    2  A    between atoms: C2_3  and  C3_4 
REMARK    3  A    between atoms: C3_4  and  O2_5 
REMARK    4  A    between atoms: O2_5  and  C4_6 
REMARK    5  A    between atoms: C12_16  and  N1_17 
REMARK    6  A    between atoms: N1_17  and  C13_18 
ROOT
HETATM    1  C4  UNL     1      19.711   0.768  51.318  1.00  0.00     0.105 A 
HETATM    2  C5  UNL     1      19.780  -0.052  52.422  1.00  0.00     0.049 A 
HETATM    3  C6  UNL     1      20.918  -0.390  53.080  1.00  0.00    -0.027 A 
HETATM    4  C7  UNL     1      22.124   0.113  52.633  1.00  0.00     0.036 A 
HETATM    5  C8  UNL     1      22.134   0.937  51.541  1.00  0.00     0.116 A 
HETATM    6  C9  UNL     1      20.952   1.266  50.886  1.00  0.00     0.136 A 
HETATM    7  O3  UNL     1      21.196   2.122  49.795  1.00  0.00    -0.344 OA
HETATM    8  C10 UNL     1      22.278   3.047  49.780  1.00  0.00     0.202 C 
HETATM    9  C11 UNL     1      23.568   2.442  50.225  1.00  0.00     0.202 C 
HETATM   10  O4  UNL     1      23.381   1.393  51.165  1.00  0.00    -0.345 OA
HETATM   11  C12 UNL     1      23.348  -0.265  53.360  1.00  0.00     0.281 C 
HETATM   12  O5  UNL     1      23.113  -1.196  54.334  1.00  0.00    -0.275 OA
HETATM   13  N2  UNL     1      21.998  -1.089  55.034  1.00  0.00    -0.199 NA
HETATM   14  C20 UNL     1      20.787  -1.300  54.263  1.00  0.00     0.157 C 
HETATM   15  H22 UNL     1      21.887  -0.284  55.654  1.00  0.00     0.154 HD
ENDROOT
BRANCH  11  16
HETATM   16  N1  UNL     1      24.125   0.878  53.780  1.00  0.00    -0.362 N 
HETATM   17  H14 UNL     1      23.725   1.718  54.276  1.00  0.00     0.162 HD
BRANCH  16  18
HETATM   18  C13 UNL     1      25.596   0.832  53.473  1.00  0.00     0.005 A 
HETATM   19  C14 UNL     1      26.227   2.208  53.730  1.00  0.00     0.010 A 
HETATM   20  C15 UNL     1      28.032   2.188  53.366  1.00  0.00     0.123 A 
HETATM   21  C16 UNL     1      27.708   0.950  53.088  1.00  0.00    -0.103 A 
HETATM   22  C17 UNL     1      27.458   0.079  52.897  1.00  0.00    -0.106 A 
HETATM   23  C18 UNL     1      27.061  -1.185  52.627  1.00  0.00     0.100 A 
HETATM   24  C19 UNL     1      25.492  -0.683  53.073  1.00  0.00     0.068 A 
ENDBRANCH  16  18
ENDBRANCH  11  16
BRANCH   1  25
HETATM   25  O2  UNL     1      18.712   1.222  50.530  1.00  0.00    -0.346 OA
BRANCH  25  26
HETATM   26  C3  UNL     1      17.651   2.066  50.753  1.00  0.00     0.201 C 
BRANCH  26  27
HETATM   27  C2  UNL     1      18.039   3.486  51.042  1.00  0.00     0.193 C 
BRANCH  27  28
HETATM   28  O1  UNL     1      17.359   3.917  52.208  1.00  0.00    -0.394 OA
HETATM   29  C1  UNL     1      16.010   3.906  51.903  1.00  0.00     0.201 C 
ENDBRANCH  27  28
ENDBRANCH  26  27
ENDBRANCH  25  26
ENDBRANCH   1  25
TORSDOF 6
ENDMDL
MODEL 9
REMARK VINA RESULT:      -7.4      3.105      7.771
REMARK  6 active torsions:
REMARK  status: ('A' for Active; 'I' for Inactive)
REMARK    1  A    between atoms: O1_2  and  C2_3 
REMARK    2  A    between atoms: C2_3  and  C3_4 
REMARK    3  A    between atoms: C3_4  and  O2_5 
REMARK    4  A    between atoms: O2_5  and  C4_6 
REMARK    5  A    between atoms: C12_16  and  N1_17 
REMARK    6  A    between atoms: N1_17  and  C13_18 
ROOT
HETATM    1  C4  UNL     1      25.691   0.587  52.314  1.00  0.00     0.105 A 
HETATM    2  C5  UNL     1      26.365   1.562  51.614  1.00  0.00     0.049 A 
HETATM    3  C6  UNL     1      25.787   2.604  50.963  1.00  0.00    -0.027 A 
HETATM    4  C7  UNL     1      24.411   2.726  50.985  1.00  0.00     0.036 A 
HETATM    5  C8  UNL     1      23.674   1.794  51.663  1.00  0.00     0.116 A 
HETATM    6  C9  UNL     1      24.294   0.737  52.321  1.00  0.00     0.136 A 
HETATM    7  O3  UNL     1      23.349  -0.096  52.949  1.00  0.00    -0.344 OA
HETATM    8  C10 UNL     1      22.109   0.398  53.444  1.00  0.00     0.202 C 
HETATM    9  C11 UNL     1      21.407   1.288  52.474  1.00  0.00     0.202 C 
HETATM   10  O4  UNL     1      22.310   1.994  51.633  1.00  0.00    -0.345 OA
HETATM   11  C12 UNL     1      23.802   3.862  50.273  1.00  0.00     0.281 C 
HETATM   12  O5  UNL     1      24.719   4.587  49.561  1.00  0.00    -0.275 OA
HETATM   13  N2  UNL     1      25.910   4.774  50.100  1.00  0.00    -0.199 NA
HETATM   14  C20 UNL     1      26.693   3.563  50.253  1.00  0.00     0.157 C 
HETATM   15  H22 UNL     1      25.979   5.349  50.943  1.00  0.00     0.154 HD
ENDROOT
BRANCH  11  16
HETATM   16  N1  UNL     1      22.922   4.642  51.111  1.00  0.00    -0.362 N 
HETATM   17  H14 UNL     1      23.034   4.746  52.155  1.00  0.00     0.162 HD
BRANCH  16  18
HETATM   18  C13 UNL     1      21.783   5.337  50.418  1.00  0.00     0.005 A 
HETATM   19  C14 UNL     1      20.932   4.310  49.657  1.00  0.00     0.010 A 
HETATM   20  C15 UNL     1      19.524   5.126  48.795  1.00  0.00     0.123 A 
HETATM   21  C16 UNL     1      20.098   6.157  49.364  1.00  0.00    -0.103 A 
HETATM   22  C17 UNL     1      20.520   6.870  49.775  1.00  0.00    -0.106 A 
HETATM   23  C18 UNL     1      21.158   7.893  50.388  1.00  0.00     0.100 A 
HETATM   24  C19 UNL     1      22.259   6.727  50.972  1.00  0.00     0.068 A 
ENDBRANCH  16  18
ENDBRANCH  11  16
BRANCH   1  25
HETATM   25  O2  UNL     1      26.059  -0.508  53.015  1.00  0.00    -0.346 OA
BRANCH  25  26
HETATM   26  C3  UNL     1      27.039  -1.454  52.831  1.00  0.00     0.201 C 
BRANCH  26  27
HETATM   27  C2  UNL     1      28.401  -1.036  53.299  1.00  0.00     0.193 C 
BRANCH  27  28
HETATM   28  O1  UNL     1      28.294  -0.517  54.613  1.00  0.00    -0.394 OA
HETATM   29  C1  UNL     1      28.927   0.713  54.602  1.00  0.00     0.201 C 
ENDBRANCH  27  28
ENDBRANCH  26  27
ENDBRANCH  25  26
ENDBRANCH   1  25
TORSDOF 6
ENDMDL
