MODEL 1
REMARK VINA RESULT:      -8.1      0.000      0.000
REMARK  6 active torsions:
REMARK  status: ('A' for Active; 'I' for Inactive)
REMARK    1  A    between atoms: O1_2  and  C2_3 
REMARK    2  A    between atoms: C8_11  and  N3_12 
REMARK    3  A    between atoms: C11_15  and  N4_16 
REMARK       I    between atoms: N4_16  and  C12_17 
REMARK    4  A    between atoms: C12_17  and  C13_19 
REMARK    5  A    between atoms: C14_20  and  C15_21 
REMARK    6  A    between atoms: C15_21  and  N5_23 
ROOT
HETATM    1  C2  UNL     1      26.627   1.733  52.518  1.00  0.00     0.097 A 
HETATM    2  C3  UNL     1      26.156   0.722  53.310  1.00  0.00     0.071 A 
HETATM    3  C4  UNL     1      24.817   0.417  53.389  1.00  0.00     0.071 A 
HETATM    4  N1  UNL     1      24.323  -0.568  54.156  1.00  0.00    -0.259 NA
HETATM    5  C5  UNL     1      23.016  -0.856  54.223  1.00  0.00     0.142 A 
HETATM    6  C6  UNL     1      22.119  -0.112  53.472  1.00  0.00     0.089 A 
HETATM    7  C7  UNL     1      20.699  -0.352  53.483  1.00  0.00     0.103 C 
HETATM    8  N2  UNL     1      19.557  -0.562  53.481  1.00  0.00    -0.191 NA
HETATM    9  C8  UNL     1      22.604   0.905  52.675  1.00  0.00     0.061 A 
HETATM   10  C9  UNL     1      23.954   1.175  52.629  1.00  0.00     0.023 A 
HETATM   11  C10 UNL     1      24.468   2.177  51.849  1.00  0.00     0.048 A 
HETATM   12  C11 UNL     1      25.798   2.510  51.747  1.00  0.00     0.069 A 
ENDROOT
BRANCH   9  13
HETATM   13  N3  UNL     1      21.708   1.668  51.908  1.00  0.00    -0.397 N 
HETATM   14  H6  UNL     1      20.964   2.389  52.016  1.00  0.00     0.156 HD
HETATM   15  H7  UNL     1      21.727   1.525  50.872  1.00  0.00     0.156 HD
ENDBRANCH   9  13
BRANCH  12  16
HETATM   16  N4  UNL     1      26.356   3.537  50.953  1.00  0.00    -0.321 N 
HETATM   17  C12 UNL     1      25.985   3.991  49.668  1.00  0.00     0.245 C 
HETATM   18  O2  UNL     1      25.026   3.446  49.091  1.00  0.00    -0.268 OA
HETATM   19  H9  UNL     1      27.171   4.071  51.332  1.00  0.00     0.169 HD
BRANCH  17  20
HETATM   20  C13 UNL     1      26.671   5.072  48.983  1.00  0.00     0.072 C 
HETATM   21  C14 UNL     1      27.944   5.038  48.622  1.00  0.00     0.003 C 
BRANCH  21  22
HETATM   22  C15 UNL     1      28.671   6.126  47.922  1.00  0.00     0.097 C 
HETATM   23  C16 UNL     1      27.780   7.328  47.939  1.00  0.00     0.036 C 
BRANCH  22  24
HETATM   24  N5  UNL     1      29.983   6.366  48.437  1.00  0.00    -0.414 N 
HETATM   25  C17 UNL     1      30.356   7.727  48.613  1.00  0.00     0.143 C 
HETATM   26  C18 UNL     1      30.988   5.488  47.945  1.00  0.00     0.143 C 
ENDBRANCH  22  24
ENDBRANCH  21  22
ENDBRANCH  17  20
ENDBRANCH  12  16
BRANCH   1  27
HETATM   27  O1  UNL     1      27.998   1.980  52.492  1.00  0.00    -0.354 OA
HETATM   28  C1  UNL     1      28.677   2.399  53.641  1.00  0.00     0.210 C 
ENDBRANCH   1  27
TORSDOF 6
ENDMDL
MODEL 2
REMARK VINA RESULT:      -7.8      4.158      8.923
REMARK  6 active torsions:
REMARK  status: ('A' for Active; 'I' for Inactive)
REMARK    1  A    between atoms: O1_2  and  C2_3 
REMARK    2  A    between atoms: C8_11  and  N3_12 
REMARK    3  A    between atoms: C11_15  and  N4_16 
REMARK       I    between atoms: N4_16  and  C12_17 
REMARK    4  A    between atoms: C12_17  and  C13_19 
REMARK    5  A    between atoms: C14_20  and  C15_21 
REMARK    6  A    between atoms: C15_21  and  N5_23 
ROOT
HETATM    1  C2  UNL     1      23.574   2.047  52.825  1.00  0.00     0.097 A 
HETATM    2  C3  UNL     1      24.812   2.616  52.944  1.00  0.00     0.071 A 
HETATM    3  C4  UNL     1      25.949   1.862  53.122  1.00  0.00     0.071 A 
HETATM    4  N1  UNL     1      27.178   2.389  53.242  1.00  0.00    -0.259 NA
HETATM    5  C5  UNL     1      28.279   1.643  53.414  1.00  0.00     0.142 A 
HETATM    6  C6  UNL     1      28.160   0.263  53.473  1.00  0.00     0.089 A 
HETATM    7  C7  UNL     1      29.288  -0.614  53.655  1.00  0.00     0.103 C 
HETATM    8  N2  UNL     1      30.202  -1.318  53.783  1.00  0.00    -0.191 NA
HETATM    9  C8  UNL     1      26.906  -0.301  53.351  1.00  0.00     0.061 A 
HETATM   10  C9  UNL     1      25.795   0.495  53.175  1.00  0.00     0.023 A 
HETATM   11  C10 UNL     1      24.537  -0.032  53.051  1.00  0.00     0.048 A 
HETATM   12  C11 UNL     1      23.380   0.689  52.873  1.00  0.00     0.069 A 
ENDROOT
BRANCH   9  13
HETATM   13  N3  UNL     1      26.769  -1.697  53.408  1.00  0.00    -0.397 N 
HETATM   14  H6  UNL     1      27.344  -2.562  53.488  1.00  0.00     0.156 HD
HETATM   15  H7  UNL     1      25.797  -2.083  53.361  1.00  0.00     0.156 HD
ENDBRANCH   9  13
BRANCH  12  16
HETATM   16  N4  UNL     1      22.071   0.173  52.743  1.00  0.00    -0.321 N 
HETATM   17  C12 UNL     1      21.139  -0.192  53.737  1.00  0.00     0.245 C 
HETATM   18  O2  UNL     1      21.454  -0.063  54.935  1.00  0.00    -0.268 OA
HETATM   19  H9  UNL     1      21.692   0.020  51.780  1.00  0.00     0.169 HD
BRANCH  17  20
HETATM   20  C13 UNL     1      19.818  -0.713  53.430  1.00  0.00     0.072 C 
HETATM   21  C14 UNL     1      19.032  -0.240  52.476  1.00  0.00     0.003 C 
BRANCH  21  22
HETATM   22  C15 UNL     1      17.680  -0.751  52.141  1.00  0.00     0.097 C 
HETATM   23  C16 UNL     1      17.345  -1.799  53.155  1.00  0.00     0.036 C 
BRANCH  22  24
HETATM   24  N5  UNL     1      16.692   0.274  52.014  1.00  0.00    -0.414 N 
HETATM   25  C17 UNL     1      15.445   0.037  52.657  1.00  0.00     0.143 C 
HETATM   26  C18 UNL     1      16.643   0.902  50.739  1.00  0.00     0.143 C 
ENDBRANCH  22  24
ENDBRANCH  21  22
ENDBRANCH  17  20
ENDBRANCH  12  16
BRANCH   1  27
HETATM   27  O1  UNL     1      22.470   2.879  52.647  1.00  0.00    -0.354 OA
HETATM   28  C1  UNL     1      22.285   3.590  51.457  1.00  0.00     0.210 C 
ENDBRANCH   1  27
TORSDOF 6
ENDMDL
MODEL 3
REMARK VINA RESULT:      -7.6      1.412      2.113
REMARK  6 active torsions:
REMARK  status: ('A' for Active; 'I' for Inactive)
REMARK    1  A    between atoms: O1_2  and  C2_3 
REMARK    2  A    between atoms: C8_11  and  N3_12 
REMARK    3  A    between atoms: C11_15  and  N4_16 
REMARK       I    between atoms: N4_16  and  C12_17 
REMARK    4  A    between atoms: C12_17  and  C13_19 
REMARK    5  A    between atoms: C14_20  and  C15_21 
REMARK    6  A    between atoms: C15_21  and  N5_23 
ROOT
HETATM    1  C2  UNL     1      26.409   2.071  52.428  1.00  0.00     0.097 A 
HETATM    2  C3  UNL     1      26.037   1.004  53.199  1.00  0.00     0.071 A 
HETATM    3  C4  UNL     1      24.726   0.598  53.301  1.00  0.00     0.071 A 
HETATM    4  N1  UNL     1      24.328  -0.444  54.048  1.00  0.00    -0.259 NA
HETATM    5  C5  UNL     1      23.047  -0.830  54.138  1.00  0.00     0.142 A 
HETATM    6  C6  UNL     1      22.078  -0.133  53.434  1.00  0.00     0.089 A 
HETATM    7  C7  UNL     1      20.680  -0.478  53.473  1.00  0.00     0.103 C 
HETATM    8  N2  UNL     1      19.557  -0.773  53.493  1.00  0.00    -0.191 NA
HETATM    9  C8  UNL     1      22.465   0.941  52.659  1.00  0.00     0.061 A 
HETATM   10  C9  UNL     1      23.789   1.312  52.588  1.00  0.00     0.023 A 
HETATM   11  C10 UNL     1      24.207   2.373  51.828  1.00  0.00     0.048 A 
HETATM   12  C11 UNL     1      25.505   2.807  51.704  1.00  0.00     0.069 A 
ENDROOT
BRANCH   9  13
HETATM   13  N3  UNL     1      21.494   1.658  51.940  1.00  0.00    -0.397 N 
HETATM   14  H6  UNL     1      21.376   2.543  51.405  1.00  0.00     0.156 HD
HETATM   15  H7  UNL     1      20.542   1.229  51.869  1.00  0.00     0.156 HD
ENDBRANCH   9  13
BRANCH  12  16
HETATM   16  N4  UNL     1      25.964   3.897  50.929  1.00  0.00    -0.321 N 
HETATM   17  C12 UNL     1      26.548   3.912  49.645  1.00  0.00     0.245 C 
HETATM   18  O2  UNL     1      26.712   2.833  49.045  1.00  0.00    -0.268 OA
HETATM   19  H9  UNL     1      25.879   4.860  51.328  1.00  0.00     0.169 HD
BRANCH  17  20
HETATM   20  C13 UNL     1      26.969   5.133  48.981  1.00  0.00     0.072 C 
HETATM   21  C14 UNL     1      26.426   6.322  49.192  1.00  0.00     0.003 C 
BRANCH  21  22
HETATM   22  C15 UNL     1      26.835   7.586  48.529  1.00  0.00     0.097 C 
HETATM   23  C16 UNL     1      27.933   7.242  47.572  1.00  0.00     0.036 C 
BRANCH  22  24
HETATM   24  N5  UNL     1      25.749   8.302  47.936  1.00  0.00    -0.414 N 
HETATM   25  C17 UNL     1      25.574   8.142  46.534  1.00  0.00     0.143 C 
HETATM   26  C18 UNL     1      25.537   9.607  48.461  1.00  0.00     0.143 C 
ENDBRANCH  22  24
ENDBRANCH  21  22
ENDBRANCH  17  20
ENDBRANCH  12  16
BRANCH   1  27
HETATM   27  O1  UNL     1      27.757   2.421  52.377  1.00  0.00    -0.354 OA
HETATM   28  C1  UNL     1      28.559   2.378  53.522  1.00  0.00     0.210 C 
ENDBRANCH   1  27
TORSDOF 6
ENDMDL
MODEL 4
REMARK VINA RESULT:      -7.4      1.811      3.386
REMARK  6 active torsions:
REMARK  status: ('A' for Active; 'I' for Inactive)
REMARK    1  A    between atoms: O1_2  and  C2_3 
REMARK    2  A    between atoms: C8_11  and  N3_12 
REMARK    3  A    between atoms: C11_15  and  N4_16 
REMARK       I    between atoms: N4_16  and  C12_17 
REMARK    4  A    between atoms: C12_17  and  C13_19 
REMARK    5  A    between atoms: C14_20  and  C15_21 
REMARK    6  A    between atoms: C15_21  and  N5_23 
ROOT
HETATM    1  C2  UNL     1      23.501   3.097  49.951  1.00  0.00     0.097 A 
HETATM    2  C3  UNL     1      22.753   2.086  50.489  1.00  0.00     0.071 A 
HETATM    3  C4  UNL     1      23.193   1.341  51.559  1.00  0.00     0.071 A 
HETATM    4  N1  UNL     1      22.485   0.343  52.110  1.00  0.00    -0.259 NA
HETATM    5  C5  UNL     1      22.925  -0.375  53.153  1.00  0.00     0.142 A 
HETATM    6  C6  UNL     1      24.166  -0.087  53.699  1.00  0.00     0.089 A 
HETATM    7  C7  UNL     1      24.717  -0.807  54.819  1.00  0.00     0.103 C 
HETATM    8  N2  UNL     1      25.148  -1.377  55.734  1.00  0.00    -0.191 NA
HETATM    9  C8  UNL     1      24.912   0.936  53.149  1.00  0.00     0.061 A 
HETATM   10  C9  UNL     1      24.430   1.654  52.077  1.00  0.00     0.023 A 
HETATM   11  C10 UNL     1      25.144   2.675  51.507  1.00  0.00     0.048 A 
HETATM   12  C11 UNL     1      24.737   3.439  50.439  1.00  0.00     0.069 A 
ENDROOT
BRANCH   9  13
HETATM   13  N3  UNL     1      26.171   1.240  53.691  1.00  0.00    -0.397 N 
HETATM   14  H6  UNL     1      26.724   2.049  54.043  1.00  0.00     0.156 HD
HETATM   15  H7  UNL     1      26.840   0.445  53.817  1.00  0.00     0.156 HD
ENDBRANCH   9  13
BRANCH  12  16
HETATM   16  N4  UNL     1      25.452   4.496  49.831  1.00  0.00    -0.321 N 
HETATM   17  C12 UNL     1      26.698   4.483  49.169  1.00  0.00     0.245 C 
HETATM   18  O2  UNL     1      27.315   3.406  49.069  1.00  0.00    -0.268 OA
HETATM   19  H9  UNL     1      25.033   5.454  49.851  1.00  0.00     0.169 HD
BRANCH  17  20
HETATM   20  C13 UNL     1      27.301   5.672  48.593  1.00  0.00     0.072 C 
HETATM   21  C14 UNL     1      28.575   5.772  48.251  1.00  0.00     0.003 C 
BRANCH  21  22
HETATM   22  C15 UNL     1      29.218   6.974  47.662  1.00  0.00     0.097 C 
HETATM   23  C16 UNL     1      28.119   7.842  47.134  1.00  0.00     0.036 C 
BRANCH  22  24
HETATM   24  N5  UNL     1      30.112   7.644  48.553  1.00  0.00    -0.414 N 
HETATM   25  C17 UNL     1      30.401   9.005  48.258  1.00  0.00     0.143 C 
HETATM   26  C18 UNL     1      31.194   6.849  49.023  1.00  0.00     0.143 C 
ENDBRANCH  22  24
ENDBRANCH  21  22
ENDBRANCH  17  20
ENDBRANCH  12  16
BRANCH   1  27
HETATM   27  O1  UNL     1      22.985   3.806  48.867  1.00  0.00    -0.354 OA
HETATM   28  C1  UNL     1      22.209   3.171  47.892  1.00  0.00     0.210 C 
ENDBRANCH   1  27
TORSDOF 6
ENDMDL
MODEL 5
REMARK VINA RESULT:      -7.2      4.219      8.442
REMARK  6 active torsions:
REMARK  status: ('A' for Active; 'I' for Inactive)
REMARK    1  A    between atoms: O1_2  and  C2_3 
REMARK    2  A    between atoms: C8_11  and  N3_12 
REMARK    3  A    between atoms: C11_15  and  N4_16 
REMARK       I    between atoms: N4_16  and  C12_17 
REMARK    4  A    between atoms: C12_17  and  C13_19 
REMARK    5  A    between atoms: C14_20  and  C15_21 
REMARK    6  A    between atoms: C15_21  and  N5_23 
ROOT
HETATM    1  C2  UNL     1      22.049  -0.034  53.003  1.00  0.00     0.097 A 
HETATM    2  C3  UNL     1      23.121  -0.512  53.706  1.00  0.00     0.071 A 
HETATM    3  C4  UNL     1      24.353   0.100  53.667  1.00  0.00     0.071 A 
HETATM    4  N1  UNL     1      25.424  -0.343  54.344  1.00  0.00    -0.259 NA
HETATM    5  C5  UNL     1      26.619   0.262  54.297  1.00  0.00     0.142 A 
HETATM    6  C6  UNL     1      26.773   1.399  53.519  1.00  0.00     0.089 A 
HETATM    7  C7  UNL     1      28.019   2.112  53.411  1.00  0.00     0.103 C 
HETATM    8  N2  UNL     1      29.021   2.694  53.342  1.00  0.00    -0.191 NA
HETATM    9  C8  UNL     1      25.684   1.873  52.814  1.00  0.00     0.061 A 
HETATM   10  C9  UNL     1      24.470   1.227  52.885  1.00  0.00     0.023 A 
HETATM   11  C10 UNL     1      23.371   1.671  52.198  1.00  0.00     0.048 A 
HETATM   12  C11 UNL     1      22.127   1.086  52.213  1.00  0.00     0.069 A 
ENDROOT
BRANCH   9  13
HETATM   13  N3  UNL     1      25.825   3.024  52.022  1.00  0.00    -0.397 N 
HETATM   14  H6  UNL     1      25.978   3.308  51.032  1.00  0.00     0.156 HD
HETATM   15  H7  UNL     1      25.771   3.948  52.510  1.00  0.00     0.156 HD
ENDBRANCH   9  13
BRANCH  12  16
HETATM   16  N4  UNL     1      20.977   1.521  51.516  1.00  0.00    -0.321 N 
HETATM   17  C12 UNL     1      20.025   2.503  51.864  1.00  0.00     0.245 C 
HETATM   18  O2  UNL     1      20.161   3.119  52.937  1.00  0.00    -0.268 OA
HETATM   19  H9  UNL     1      20.756   1.075  50.596  1.00  0.00     0.169 HD
BRANCH  17  20
HETATM   20  C13 UNL     1      18.887   2.834  51.024  1.00  0.00     0.072 C 
HETATM   21  C14 UNL     1      17.850   3.554  51.423  1.00  0.00     0.003 C 
BRANCH  21  22
HETATM   22  C15 UNL     1      16.674   3.907  50.588  1.00  0.00     0.097 C 
HETATM   23  C16 UNL     1      16.751   3.071  49.349  1.00  0.00     0.036 C 
BRANCH  22  24
HETATM   24  N5  UNL     1      15.427   3.809  51.280  1.00  0.00    -0.414 N 
HETATM   25  C17 UNL     1      14.279   4.289  50.591  1.00  0.00     0.143 C 
HETATM   26  C18 UNL     1      15.495   4.084  52.675  1.00  0.00     0.143 C 
ENDBRANCH  22  24
ENDBRANCH  21  22
ENDBRANCH  17  20
ENDBRANCH  12  16
BRANCH   1  27
HETATM   27  O1  UNL     1      20.834  -0.709  53.096  1.00  0.00    -0.354 OA
HETATM   28  C1  UNL     1      20.556  -1.553  54.176  1.00  0.00     0.210 C 
ENDBRANCH   1  27
TORSDOF 6
ENDMDL
MODEL 6
REMARK VINA RESULT:      -7.2      3.392      8.047
REMARK  6 active torsions:
REMARK  status: ('A' for Active; 'I' for Inactive)
REMARK    1  A    between atoms: O1_2  and  C2_3 
REMARK    2  A    between atoms: C8_11  and  N3_12 
REMARK    3  A    between atoms: C11_15  and  N4_16 
REMARK       I    between atoms: N4_16  and  C12_17 
REMARK    4  A    between atoms: C12_17  and  C13_19 
REMARK    5  A    between atoms: C14_20  and  C15_21 
REMARK    6  A    between atoms: C15_21  and  N5_23 
ROOT
HETATM    1  C2  UNL     1      23.782   3.761  49.192  1.00  0.00     0.097 A 
HETATM    2  C3  UNL     1      23.345   4.787  48.399  1.00  0.00     0.071 A 
HETATM    3  C4  UNL     1      23.888   6.048  48.469  1.00  0.00     0.071 A 
HETATM    4  N1  UNL     1      23.482   7.075  47.705  1.00  0.00    -0.259 NA
HETATM    5  C5  UNL     1      24.020   8.301  47.783  1.00  0.00     0.142 A 
HETATM    6  C6  UNL     1      25.043   8.535  48.688  1.00  0.00     0.089 A 
HETATM    7  C7  UNL     1      25.678   9.819  48.838  1.00  0.00     0.103 C 
HETATM    8  N2  UNL     1      26.200  10.851  48.942  1.00  0.00    -0.191 NA
HETATM    9  C8  UNL     1      25.478   7.493  49.484  1.00  0.00     0.061 A 
HETATM   10  C9  UNL     1      24.903   6.246  49.378  1.00  0.00     0.023 A 
HETATM   11  C10 UNL     1      25.309   5.191  50.152  1.00  0.00     0.048 A 
HETATM   12  C11 UNL     1      24.790   3.920  50.110  1.00  0.00     0.069 A 
ENDROOT
BRANCH   9  13
HETATM   13  N3  UNL     1      26.514   7.716  50.406  1.00  0.00    -0.397 N 
HETATM   14  H6  UNL     1      26.902   8.462  51.018  1.00  0.00     0.156 HD
HETATM   15  H7  UNL     1      27.158   6.914  50.600  1.00  0.00     0.156 HD
ENDBRANCH   9  13
BRANCH  12  16
HETATM   16  N4  UNL     1      25.189   2.815  50.895  1.00  0.00    -0.321 N 
HETATM   17  C12 UNL     1      24.865   2.489  52.230  1.00  0.00     0.245 C 
HETATM   18  O2  UNL     1      24.116   3.249  52.871  1.00  0.00    -0.268 OA
HETATM   19  H9  UNL     1      25.823   2.103  50.465  1.00  0.00     0.169 HD
BRANCH  17  20
HETATM   20  C13 UNL     1      25.366   1.299  52.897  1.00  0.00     0.072 C 
HETATM   21  C14 UNL     1      26.516   0.711  52.611  1.00  0.00     0.003 C 
BRANCH  21  22
HETATM   22  C15 UNL     1      27.053  -0.503  53.275  1.00  0.00     0.097 C 
HETATM   23  C16 UNL     1      26.746  -1.662  52.379  1.00  0.00     0.036 C 
BRANCH  22  24
HETATM   24  N5  UNL     1      28.431  -0.398  53.640  1.00  0.00    -0.414 N 
HETATM   25  C17 UNL     1      29.247  -1.532  53.371  1.00  0.00     0.143 C 
HETATM   26  C18 UNL     1      28.675   0.288  54.862  1.00  0.00     0.143 C 
ENDBRANCH  22  24
ENDBRANCH  21  22
ENDBRANCH  17  20
ENDBRANCH  12  16
BRANCH   1  27
HETATM   27  O1  UNL     1      23.180   2.511  49.061  1.00  0.00    -0.354 OA
HETATM   28  C1  UNL     1      21.964   2.225  49.689  1.00  0.00     0.210 C 
ENDBRANCH   1  27
TORSDOF 6
ENDMDL
MODEL 7
REMARK VINA RESULT:      -7.1      4.030      5.949
REMARK  6 active torsions:
REMARK  status: ('A' for Active; 'I' for Inactive)
REMARK    1  A    between atoms: O1_2  and  C2_3 
REMARK    2  A    between atoms: C8_11  and  N3_12 
REMARK    3  A    between atoms: C11_15  and  N4_16 
REMARK       I    between atoms: N4_16  and  C12_17 
REMARK    4  A    between atoms: C12_17  and  C13_19 
REMARK    5  A    between atoms: C14_20  and  C15_21 
REMARK    6  A    between atoms: C15_21  and  N5_23 
ROOT
HETATM    1  C2  UNL     1      22.279   2.649  52.222  1.00  0.00     0.097 A 
HETATM    2  C3  UNL     1      22.557   1.355  52.569  1.00  0.00     0.071 A 
HETATM    3  C4  UNL     1      23.782   0.979  53.069  1.00  0.00     0.071 A 
HETATM    4  N1  UNL     1      24.087  -0.281  53.419  1.00  0.00    -0.259 NA
HETATM    5  C5  UNL     1      25.284  -0.634  53.906  1.00  0.00     0.142 A 
HETATM    6  C6  UNL     1      26.264   0.333  54.063  1.00  0.00     0.089 A 
HETATM    7  C7  UNL     1      27.577   0.043  54.578  1.00  0.00     0.103 C 
HETATM    8  N2  UNL     1      28.628  -0.193  55.012  1.00  0.00    -0.191 NA
HETATM    9  C8  UNL     1      25.973   1.636  53.711  1.00  0.00     0.061 A 
HETATM   10  C9  UNL     1      24.732   1.965  53.213  1.00  0.00     0.023 A 
HETATM   11  C10 UNL     1      24.411   3.248  52.854  1.00  0.00     0.048 A 
HETATM   12  C11 UNL     1      23.199   3.659  52.350  1.00  0.00     0.069 A 
ENDROOT
BRANCH   9  13
HETATM   13  N3  UNL     1      26.956   2.627  53.864  1.00  0.00    -0.397 N 
HETATM   14  H6  UNL     1      27.737   3.077  53.342  1.00  0.00     0.156 HD
HETATM   15  H7  UNL     1      26.983   3.134  54.779  1.00  0.00     0.156 HD
ENDBRANCH   9  13
BRANCH  12  16
HETATM   16  N4  UNL     1      22.841   4.972  51.972  1.00  0.00    -0.321 N 
HETATM   17  C12 UNL     1      23.466   5.856  51.065  1.00  0.00     0.245 C 
HETATM   18  O2  UNL     1      24.495   5.481  50.473  1.00  0.00    -0.268 OA
HETATM   19  H9  UNL     1      21.990   5.399  52.405  1.00  0.00     0.169 HD
BRANCH  17  20
HETATM   20  C13 UNL     1      22.962   7.189  50.786  1.00  0.00     0.072 C 
HETATM   21  C14 UNL     1      22.550   7.598  49.597  1.00  0.00     0.003 C 
BRANCH  21  22
HETATM   22  C15 UNL     1      22.032   8.952  49.282  1.00  0.00     0.097 C 
HETATM   23  C16 UNL     1      22.961   9.553  48.275  1.00  0.00     0.036 C 
BRANCH  22  24
HETATM   24  N5  UNL     1      20.658   8.965  48.887  1.00  0.00    -0.414 N 
HETATM   25  C17 UNL     1      19.696   9.003  49.935  1.00  0.00     0.143 C 
HETATM   26  C18 UNL     1      20.350   8.142  47.768  1.00  0.00     0.143 C 
ENDBRANCH  22  24
ENDBRANCH  21  22
ENDBRANCH  17  20
ENDBRANCH  12  16
BRANCH   1  27
HETATM   27  O1  UNL     1      21.014   2.950  51.722  1.00  0.00    -0.354 OA
HETATM   28  C1  UNL     1      19.867   2.346  52.247  1.00  0.00     0.210 C 
ENDBRANCH   1  27
TORSDOF 6
ENDMDL
MODEL 8
REMARK VINA RESULT:      -7.1      3.819      9.234
REMARK  6 active torsions:
REMARK  status: ('A' for Active; 'I' for Inactive)
REMARK    1  A    between atoms: O1_2  and  C2_3 
REMARK    2  A    between atoms: C8_11  and  N3_12 
REMARK    3  A    between atoms: C11_15  and  N4_16 
REMARK       I    between atoms: N4_16  and  C12_17 
REMARK    4  A    between atoms: C12_17  and  C13_19 
REMARK    5  A    between atoms: C14_20  and  C15_21 
REMARK    6  A    between atoms: C15_21  and  N5_23 
ROOT
HETATM    1  C2  UNL     1      22.847   2.000  50.655  1.00  0.00     0.097 A 
HETATM    2  C3  UNL     1      24.126   2.485  50.695  1.00  0.00     0.071 A 
HETATM    3  C4  UNL     1      25.069   1.989  51.565  1.00  0.00     0.071 A 
HETATM    4  N1  UNL     1      26.331   2.442  51.629  1.00  0.00    -0.259 NA
HETATM    5  C5  UNL     1      27.241   1.950  52.482  1.00  0.00     0.142 A 
HETATM    6  C6  UNL     1      26.879   0.926  53.343  1.00  0.00     0.089 A 
HETATM    7  C7  UNL     1      27.791   0.339  54.291  1.00  0.00     0.103 C 
HETATM    8  N2  UNL     1      28.535  -0.144  55.040  1.00  0.00    -0.191 NA
HETATM    9  C8  UNL     1      25.586   0.444  53.295  1.00  0.00     0.061 A 
HETATM   10  C9  UNL     1      24.676   0.973  52.406  1.00  0.00     0.023 A 
HETATM   11  C10 UNL     1      23.385   0.517  52.332  1.00  0.00     0.048 A 
HETATM   12  C11 UNL     1      22.418   0.989  51.477  1.00  0.00     0.069 A 
ENDROOT
BRANCH   9  13
HETATM   13  N3  UNL     1      25.204  -0.593  54.162  1.00  0.00    -0.397 N 
HETATM   14  H6  UNL     1      25.507  -1.540  54.469  1.00  0.00     0.156 HD
HETATM   15  H7  UNL     1      24.334  -0.445  54.725  1.00  0.00     0.156 HD
ENDBRANCH   9  13
BRANCH  12  16
HETATM   16  N4  UNL     1      21.082   0.539  51.380  1.00  0.00    -0.321 N 
HETATM   17  C12 UNL     1      19.954   0.876  52.159  1.00  0.00     0.245 C 
HETATM   18  O2  UNL     1      20.088   1.690  53.092  1.00  0.00    -0.268 OA
HETATM   19  H9  UNL     1      20.844  -0.151  50.631  1.00  0.00     0.169 HD
BRANCH  17  20
HETATM   20  C13 UNL     1      18.634   0.316  51.924  1.00  0.00     0.072 C 
HETATM   21  C14 UNL     1      18.065  -0.601  52.690  1.00  0.00     0.003 C 
BRANCH  21  22
HETATM   22  C15 UNL     1      16.720  -1.190  52.474  1.00  0.00     0.097 C 
HETATM   23  C16 UNL     1      16.263  -0.751  51.118  1.00  0.00     0.036 C 
BRANCH  22  24
HETATM   24  N5  UNL     1      16.672  -2.604  52.674  1.00  0.00    -0.414 N 
HETATM   25  C17 UNL     1      15.389  -3.213  52.603  1.00  0.00     0.143 C 
HETATM   26  C18 UNL     1      17.557  -3.096  53.675  1.00  0.00     0.143 C 
ENDBRANCH  22  24
ENDBRANCH  21  22
ENDBRANCH  17  20
ENDBRANCH  12  16
BRANCH   1  27
HETATM   27  O1  UNL     1      21.950   2.555  49.745  1.00  0.00    -0.354 OA
HETATM   28  C1  UNL     1      22.140   2.415  48.366  1.00  0.00     0.210 C 
ENDBRANCH   1  27
TORSDOF 6
ENDMDL
MODEL 9
REMARK VINA RESULT:      -7.0      1.442      1.751
REMARK  6 active torsions:
REMARK  status: ('A' for Active; 'I' for Inactive)
REMARK    1  A    between atoms: O1_2  and  C2_3 
REMARK    2  A    between atoms: C8_11  and  N3_12 
REMARK    3  A    between atoms: C11_15  and  N4_16 
REMARK       I    between atoms: N4_16  and  C12_17 
REMARK    4  A    between atoms: C12_17  and  C13_19 
REMARK    5  A    between atoms: C14_20  and  C15_21 
REMARK    6  A    between atoms: C15_21  and  N5_23 
ROOT
HETATM    1  C2  UNL     1      25.006   1.474  52.088  1.00  0.00     0.097 A 
HETATM    2  C3  UNL     1      24.589   0.590  53.045  1.00  0.00     0.071 A 
HETATM    3  C4  UNL     1      23.273   0.205  53.163  1.00  0.00     0.071 A 
HETATM    4  N1  UNL     1      22.832  -0.660  54.090  1.00  0.00    -0.259 NA
HETATM    5  C5  UNL     1      21.547  -1.027  54.194  1.00  0.00     0.142 A 
HETATM    6  C6  UNL     1      20.618  -0.498  53.312  1.00  0.00     0.089 A 
HETATM    7  C7  UNL     1      19.219  -0.836  53.351  1.00  0.00     0.103 C 
HETATM    8  N2  UNL     1      18.095  -1.126  53.375  1.00  0.00    -0.191 NA
HETATM    9  C8  UNL     1      21.049   0.393  52.349  1.00  0.00     0.061 A 
HETATM   10  C9  UNL     1      22.377   0.749  52.270  1.00  0.00     0.023 A 
HETATM   11  C10 UNL     1      22.838   1.631  51.328  1.00  0.00     0.048 A 
HETATM   12  C11 UNL     1      24.143   2.037  51.181  1.00  0.00     0.069 A 
ENDROOT
BRANCH   9  13
HETATM   13  N3  UNL     1      20.119   0.938  51.448  1.00  0.00    -0.397 N 
HETATM   14  H6  UNL     1      19.997   1.748  50.806  1.00  0.00     0.156 HD
HETATM   15  H7  UNL     1      19.220   0.417  51.319  1.00  0.00     0.156 HD
ENDBRANCH   9  13
BRANCH  12  16
HETATM   16  N4  UNL     1      24.645   2.943  50.220  1.00  0.00    -0.321 N 
HETATM   17  C12 UNL     1      24.601   4.354  50.196  1.00  0.00     0.245 C 
HETATM   18  O2  UNL     1      24.049   4.955  51.137  1.00  0.00    -0.268 OA
HETATM   19  H9  UNL     1      25.132   2.556  49.380  1.00  0.00     0.169 HD
BRANCH  17  20
HETATM   20  C13 UNL     1      25.172   5.145  49.120  1.00  0.00     0.072 C 
HETATM   21  C14 UNL     1      26.333   5.777  49.194  1.00  0.00     0.003 C 
BRANCH  21  22
HETATM   22  C15 UNL     1      26.941   6.591  48.112  1.00  0.00     0.097 C 
HETATM   23  C16 UNL     1      26.210   7.897  48.085  1.00  0.00     0.036 C 
BRANCH  22  24
HETATM   24  N5  UNL     1      28.361   6.721  48.219  1.00  0.00    -0.414 N 
HETATM   25  C17 UNL     1      28.958   7.781  47.481  1.00  0.00     0.143 C 
HETATM   26  C18 UNL     1      29.072   5.490  48.257  1.00  0.00     0.143 C 
ENDBRANCH  22  24
ENDBRANCH  21  22
ENDBRANCH  17  20
ENDBRANCH  12  16
BRANCH   1  27
HETATM   27  O1  UNL     1      26.356   1.813  52.033  1.00  0.00    -0.354 OA
HETATM   28  C1  UNL     1      27.257   1.351  52.998  1.00  0.00     0.210 C 
ENDBRANCH   1  27
TORSDOF 6
ENDMDL
