MODEL 1
REMARK VINA RESULT:      -9.4      0.000      0.000
REMARK  3 active torsions:
REMARK  status: ('A' for Active; 'I' for Inactive)
REMARK    1  A    between atoms: O1_2  and  C2_3 
REMARK    2  A    between atoms: C7_10  and  N3_11 
REMARK    3  A    between atoms: C11_15  and  N4_16 
REMARK       I    between atoms: N4_16  and  C12_17 
REMARK       I    between atoms: C12_17  and  N5_19 
ROOT
HETATM    1  N3  UNL     1      27.108   6.880  48.135  1.00  0.00    -0.354 N 
HETATM    2  C8  UNL     1      27.089   5.514  48.568  1.00  0.00     0.093 C 
HETATM    3  C9  UNL     1      26.123   4.738  49.095  1.00  0.00    -0.042 C 
HETATM    4  C10 UNL     1      26.549   3.336  49.407  1.00  0.00     0.047 C 
HETATM    5  C11 UNL     1      24.747   5.145  49.387  1.00  0.00     0.139 C 
HETATM    6  C19 UNL     1      24.120   6.065  48.423  1.00  0.00     0.000 C 
HETATM    7  C20 UNL     1      24.769   7.033  47.802  1.00  0.00    -0.009 C 
HETATM    8  C21 UNL     1      26.101   7.668  47.665  1.00  0.00     0.152 C 
ENDROOT
BRANCH   1   9
HETATM    9  C7  UNL     1      28.442   7.568  48.199  1.00  0.00     0.171 C 
HETATM   10  N2  UNL     1      28.123   8.276  49.366  1.00  0.00    -0.247 NA
HETATM   11  C6  UNL     1      28.449   9.476  49.624  1.00  0.00     0.101 C 
HETATM   12  C5  UNL     1      29.730   9.645  49.444  1.00  0.00     0.149 C 
HETATM   13  N1  UNL     1      30.504   8.540  49.036  1.00  0.00    -0.271 NA
HETATM   14  C4  UNL     1      31.676   8.268  49.476  1.00  0.00     0.119 C 
HETATM   15  C3  UNL     1      32.345   7.088  48.951  1.00  0.00     0.059 C 
HETATM   16  C2  UNL     1      31.677   6.380  48.055  1.00  0.00     0.102 C 
HETATM   17  C23 UNL     1      30.337   6.765  47.619  1.00  0.00     0.102 C 
HETATM   18  C22 UNL     1      29.207   6.310  48.198  1.00  0.00     0.070 C 
HETATM   19  O3  UNL     1      29.985   7.630  46.579  1.00  0.00    -0.344 OA
HETATM   20  C24 UNL     1      28.742   8.278  46.941  1.00  0.00     0.236 C 
BRANCH  16  21
HETATM   21  O1  UNL     1      31.933   5.230  47.326  1.00  0.00    -0.353 OA
HETATM   22  C1  UNL     1      32.525   4.063  47.844  1.00  0.00     0.210 C 
ENDBRANCH  16  21
ENDBRANCH   1   9
BRANCH   5  23
HETATM   23  N4  UNL     1      23.918   3.997  49.678  1.00  0.00    -0.331 N 
HETATM   24  C12 UNL     1      23.665   3.514  50.963  1.00  0.00     0.323 C 
HETATM   25  O2  UNL     1      24.232   4.174  51.887  1.00  0.00    -0.247 OA
HETATM   26  N5  UNL     1      22.833   2.375  51.146  1.00  0.00    -0.302 N 
HETATM   27  C13 UNL     1      22.221   1.667  50.075  1.00  0.00     0.096 A 
HETATM   28  C17 UNL     1      22.664   1.997  52.538  1.00  0.00     0.112 A 
HETATM   29  C14 UNL     1      21.460   0.615  50.319  1.00  0.00     0.017 A 
HETATM   30  C15 UNL     1      21.188   0.103  51.657  1.00  0.00    -0.001 A 
HETATM   31  C16 UNL     1      21.790   0.812  52.597  1.00  0.00    -0.002 A 
HETATM   32  C18 UNL     1      23.972   1.789  53.262  1.00  0.00     0.037 C 
HETATM   33  H12 UNL     1      23.553   3.607  48.786  1.00  0.00     0.165 HD
ENDBRANCH   5  23
TORSDOF 3
ENDMDL
MODEL 2
REMARK VINA RESULT:      -9.1      2.749      8.769
REMARK  3 active torsions:
REMARK  status: ('A' for Active; 'I' for Inactive)
REMARK    1  A    between atoms: O1_2  and  C2_3 
REMARK    2  A    between atoms: C7_10  and  N3_11 
REMARK    3  A    between atoms: C11_15  and  N4_16 
REMARK       I    between atoms: N4_16  and  C12_17 
REMARK       I    between atoms: C12_17  and  N5_19 
ROOT
HETATM    1  N3  UNL     1      25.227   3.417  50.548  1.00  0.00    -0.354 N 
HETATM    2  C8  UNL     1      24.413   4.507  50.094  1.00  0.00     0.093 C 
HETATM    3  C9  UNL     1      24.709   5.686  49.517  1.00  0.00    -0.042 C 
HETATM    4  C10 UNL     1      23.520   6.541  49.200  1.00  0.00     0.047 C 
HETATM    5  C11 UNL     1      26.049   6.184  49.199  1.00  0.00     0.139 C 
HETATM    6  C19 UNL     1      27.020   5.186  48.723  1.00  0.00     0.000 C 
HETATM    7  C20 UNL     1      27.080   3.946  49.172  1.00  0.00    -0.009 C 
HETATM    8  C21 UNL     1      26.453   3.000  50.125  1.00  0.00     0.152 C 
ENDROOT
BRANCH   1   9
HETATM    9  C7  UNL     1      24.652   2.591  51.663  1.00  0.00     0.171 C 
HETATM   10  N2  UNL     1      23.807   1.866  50.811  1.00  0.00    -0.247 NA
HETATM   11  C6  UNL     1      22.619   1.499  51.071  1.00  0.00     0.101 C 
HETATM   12  C5  UNL     1      22.578   0.885  52.221  1.00  0.00     0.149 C 
HETATM   13  N1  UNL     1      23.779   0.719  52.940  1.00  0.00    -0.271 NA
HETATM   14  C4  UNL     1      24.103  -0.341  53.582  1.00  0.00     0.119 C 
HETATM   15  C3  UNL     1      25.382  -0.353  54.275  1.00  0.00     0.059 C 
HETATM   16  C2  UNL     1      26.117   0.743  54.180  1.00  0.00     0.102 C 
HETATM   17  C23 UNL     1      25.665   1.903  53.415  1.00  0.00     0.102 C 
HETATM   18  C22 UNL     1      25.964   2.099  52.114  1.00  0.00     0.070 C 
HETATM   19  O3  UNL     1      24.880   2.972  53.856  1.00  0.00    -0.344 OA
HETATM   20  C24 UNL     1      24.097   3.442  52.733  1.00  0.00     0.236 C 
BRANCH  16  21
HETATM   21  O1  UNL     1      27.350   1.141  54.667  1.00  0.00    -0.353 OA
HETATM   22  C1  UNL     1      28.507   0.338  54.688  1.00  0.00     0.210 C 
ENDBRANCH  16  21
ENDBRANCH   1   9
BRANCH   5  23
HETATM   23  N4  UNL     1      25.979   7.345  48.339  1.00  0.00    -0.331 N 
HETATM   24  C12 UNL     1      26.928   8.370  48.323  1.00  0.00     0.323 C 
HETATM   25  O2  UNL     1      27.884   8.206  49.140  1.00  0.00    -0.247 OA
HETATM   26  N5  UNL     1      26.769   9.472  47.438  1.00  0.00    -0.302 N 
HETATM   27  C13 UNL     1      25.676   9.611  46.540  1.00  0.00     0.096 A 
HETATM   28  C17 UNL     1      27.838  10.453  47.536  1.00  0.00     0.112 A 
HETATM   29  C14 UNL     1      25.594  10.664  45.746  1.00  0.00     0.017 A 
HETATM   30  C15 UNL     1      26.578  11.739  45.719  1.00  0.00    -0.001 A 
HETATM   31  C16 UNL     1      27.562  11.539  46.579  1.00  0.00    -0.002 A 
HETATM   32  C18 UNL     1      28.053  10.960  48.942  1.00  0.00     0.037 C 
HETATM   33  H12 UNL     1      25.124   7.282  47.753  1.00  0.00     0.165 HD
ENDBRANCH   5  23
TORSDOF 3
ENDMDL
MODEL 3
REMARK VINA RESULT:      -8.9      2.026      9.288
REMARK  3 active torsions:
REMARK  status: ('A' for Active; 'I' for Inactive)
REMARK    1  A    between atoms: O1_2  and  C2_3 
REMARK    2  A    between atoms: C7_10  and  N3_11 
REMARK    3  A    between atoms: C11_15  and  N4_16 
REMARK       I    between atoms: N4_16  and  C12_17 
REMARK       I    between atoms: C12_17  and  N5_19 
ROOT
HETATM    1  N3  UNL     1      23.626   4.996  50.639  1.00  0.00    -0.354 N 
HETATM    2  C8  UNL     1      24.863   4.478  50.132  1.00  0.00     0.093 C 
HETATM    3  C9  UNL     1      25.945   5.068  49.594  1.00  0.00    -0.042 C 
HETATM    4  C10 UNL     1      27.036   4.124  49.192  1.00  0.00     0.047 C 
HETATM    5  C11 UNL     1      26.128   6.504  49.367  1.00  0.00     0.139 C 
HETATM    6  C19 UNL     1      25.583   7.402  50.399  1.00  0.00     0.000 C 
HETATM    7  C20 UNL     1      24.458   7.174  51.053  1.00  0.00    -0.009 C 
HETATM    8  C21 UNL     1      23.339   6.212  51.183  1.00  0.00     0.152 C 
ENDROOT
BRANCH   1   9
HETATM    9  C7  UNL     1      22.450   4.064  50.572  1.00  0.00     0.171 C 
HETATM   10  N2  UNL     1      22.395   4.089  49.172  1.00  0.00    -0.247 NA
HETATM   11  C6  UNL     1      21.339   4.102  48.465  1.00  0.00     0.101 C 
HETATM   12  C5  UNL     1      20.535   3.144  48.837  1.00  0.00     0.149 C 
HETATM   13  N1  UNL     1      20.943   2.289  49.881  1.00  0.00    -0.271 NA
HETATM   14  C4  UNL     1      20.751   1.023  49.904  1.00  0.00     0.119 C 
HETATM   15  C3  UNL     1      21.233   0.281  51.059  1.00  0.00     0.059 C 
HETATM   16  C2  UNL     1      21.843   0.983  52.000  1.00  0.00     0.102 C 
HETATM   17  C23 UNL     1      22.023   2.428  51.881  1.00  0.00     0.102 C 
HETATM   18  C22 UNL     1      23.118   2.999  51.338  1.00  0.00     0.070 C 
HETATM   19  O3  UNL     1      21.147   3.440  52.282  1.00  0.00    -0.344 OA
HETATM   20  C24 UNL     1      21.322   4.562  51.383  1.00  0.00     0.236 C 
BRANCH  16  21
HETATM   21  O1  UNL     1      22.431   0.686  53.218  1.00  0.00    -0.353 OA
HETATM   22  C1  UNL     1      23.533  -0.172  53.394  1.00  0.00     0.210 C 
ENDBRANCH  16  21
ENDBRANCH   1   9
BRANCH   5  23
HETATM   23  N4  UNL     1      27.504   6.806  49.039  1.00  0.00    -0.331 N 
HETATM   24  C12 UNL     1      27.898   7.612  47.970  1.00  0.00     0.323 C 
HETATM   25  O2  UNL     1      26.937   8.075  47.285  1.00  0.00    -0.247 OA
HETATM   26  N5  UNL     1      29.280   7.850  47.730  1.00  0.00    -0.302 N 
HETATM   27  C13 UNL     1      30.324   7.304  48.528  1.00  0.00     0.096 A 
HETATM   28  C17 UNL     1      29.531   8.709  46.586  1.00  0.00     0.112 A 
HETATM   29  C14 UNL     1      31.587   7.568  48.245  1.00  0.00     0.017 A 
HETATM   30  C15 UNL     1      32.012   8.409  47.133  1.00  0.00    -0.001 A 
HETATM   31  C16 UNL     1      30.988   8.878  46.440  1.00  0.00    -0.002 A 
HETATM   32  C18 UNL     1      28.875   8.218  45.317  1.00  0.00     0.037 C 
HETATM   33  H12 UNL     1      28.127   6.331  49.722  1.00  0.00     0.165 HD
ENDBRANCH   5  23
TORSDOF 3
ENDMDL
MODEL 4
REMARK VINA RESULT:      -8.6      2.182      9.257
REMARK  3 active torsions:
REMARK  status: ('A' for Active; 'I' for Inactive)
REMARK    1  A    between atoms: O1_2  and  C2_3 
REMARK    2  A    between atoms: C7_10  and  N3_11 
REMARK    3  A    between atoms: C11_15  and  N4_16 
REMARK       I    between atoms: N4_16  and  C12_17 
REMARK       I    between atoms: C12_17  and  N5_19 
ROOT
HETATM    1  N3  UNL     1      25.587   5.493  48.990  1.00  0.00    -0.354 N 
HETATM    2  C8  UNL     1      25.671   6.733  48.276  1.00  0.00     0.093 C 
HETATM    3  C9  UNL     1      26.707   7.525  47.944  1.00  0.00    -0.042 C 
HETATM    4  C10 UNL     1      26.332   8.755  47.176  1.00  0.00     0.047 C 
HETATM    5  C11 UNL     1      28.115   7.294  48.273  1.00  0.00     0.139 C 
HETATM    6  C19 UNL     1      28.575   5.896  48.227  1.00  0.00     0.000 C 
HETATM    7  C20 UNL     1      27.837   4.866  48.598  1.00  0.00    -0.009 C 
HETATM    8  C21 UNL     1      26.505   4.496  49.132  1.00  0.00     0.152 C 
ENDROOT
BRANCH   1   9
HETATM    9  C7  UNL     1      24.287   5.232  49.697  1.00  0.00     0.171 C 
HETATM   10  N2  UNL     1      23.615   4.873  48.520  1.00  0.00    -0.247 NA
HETATM   11  C6  UNL     1      22.414   5.165  48.227  1.00  0.00     0.101 C 
HETATM   12  C5  UNL     1      21.618   4.837  49.206  1.00  0.00     0.149 C 
HETATM   13  N1  UNL     1      22.172   4.235  50.354  1.00  0.00    -0.271 NA
HETATM   14  C4  UNL     1      21.638   3.267  51.000  1.00  0.00     0.119 C 
HETATM   15  C3  UNL     1      22.339   2.756  52.168  1.00  0.00     0.059 C 
HETATM   16  C2  UNL     1      23.489   3.337  52.467  1.00  0.00     0.102 C 
HETATM   17  C23 UNL     1      24.025   4.433  51.662  1.00  0.00     0.102 C 
HETATM   18  C22 UNL     1      24.871   4.252  50.628  1.00  0.00     0.070 C 
HETATM   19  O3  UNL     1      23.779   5.802  51.801  1.00  0.00    -0.344 OA
HETATM   20  C24 UNL     1      23.859   6.403  50.486  1.00  0.00     0.236 C 
BRANCH  16  21
HETATM   21  O1  UNL     1      24.443   3.170  53.456  1.00  0.00    -0.353 OA
HETATM   22  C1  UNL     1      25.356   2.100  53.524  1.00  0.00     0.210 C 
ENDBRANCH  16  21
ENDBRANCH   1   9
BRANCH   5  23
HETATM   23  N4  UNL     1      28.975   8.186  47.526  1.00  0.00    -0.331 N 
HETATM   24  C12 UNL     1      29.865   9.090  48.108  1.00  0.00     0.323 C 
HETATM   25  O2  UNL     1      29.867   9.075  49.376  1.00  0.00    -0.247 OA
HETATM   26  N5  UNL     1      30.669   9.926  47.285  1.00  0.00    -0.302 N 
HETATM   27  C13 UNL     1      30.629   9.907  45.863  1.00  0.00     0.096 A 
HETATM   28  C17 UNL     1      31.546  10.809  48.036  1.00  0.00     0.112 A 
HETATM   29  C14 UNL     1      31.406  10.713  45.162  1.00  0.00     0.017 A 
HETATM   30  C15 UNL     1      32.340  11.661  45.758  1.00  0.00    -0.001 A 
HETATM   31  C16 UNL     1      32.321  11.620  47.079  1.00  0.00    -0.002 A 
HETATM   32  C18 UNL     1      30.812  11.654  49.050  1.00  0.00     0.037 C 
HETATM   33  H12 UNL     1      28.817   8.037  46.510  1.00  0.00     0.165 HD
ENDBRANCH   5  23
TORSDOF 3
ENDMDL
MODEL 5
REMARK VINA RESULT:      -8.5      2.564      4.004
REMARK  3 active torsions:
REMARK  status: ('A' for Active; 'I' for Inactive)
REMARK    1  A    between atoms: O1_2  and  C2_3 
REMARK    2  A    between atoms: C7_10  and  N3_11 
REMARK    3  A    between atoms: C11_15  and  N4_16 
REMARK       I    between atoms: N4_16  and  C12_17 
REMARK       I    between atoms: C12_17  and  N5_19 
ROOT
HETATM    1  N3  UNL     1      27.077   7.279  48.860  1.00  0.00    -0.354 N 
HETATM    2  C8  UNL     1      26.012   7.068  49.797  1.00  0.00     0.093 C 
HETATM    3  C9  UNL     1      25.272   5.988  50.107  1.00  0.00    -0.042 C 
HETATM    4  C10 UNL     1      24.244   6.219  51.171  1.00  0.00     0.047 C 
HETATM    5  C11 UNL     1      25.380   4.659  49.499  1.00  0.00     0.139 C 
HETATM    6  C19 UNL     1      26.739   4.202  49.167  1.00  0.00     0.000 C 
HETATM    7  C20 UNL     1      27.693   4.996  48.718  1.00  0.00    -0.009 C 
HETATM    8  C21 UNL     1      27.989   6.402  48.354  1.00  0.00     0.152 C 
ENDROOT
BRANCH   1   9
HETATM    9  C7  UNL     1      27.229   8.682  48.348  1.00  0.00     0.171 C 
HETATM   10  N2  UNL     1      28.576   8.771  48.726  1.00  0.00    -0.247 NA
HETATM   11  C6  UNL     1      29.150   9.796  49.211  1.00  0.00     0.101 C 
HETATM   12  C5  UNL     1      28.921  10.838  48.462  1.00  0.00     0.149 C 
HETATM   13  N1  UNL     1      28.140  10.675  47.300  1.00  0.00    -0.271 NA
HETATM   14  C4  UNL     1      28.379  11.239  46.175  1.00  0.00     0.119 C 
HETATM   15  C3  UNL     1      27.473  10.967  45.069  1.00  0.00     0.059 C 
HETATM   16  C2  UNL     1      26.467  10.145  45.318  1.00  0.00     0.102 C 
HETATM   17  C23 UNL     1      26.280   9.541  46.636  1.00  0.00     0.102 C 
HETATM   18  C22 UNL     1      26.791   8.342  46.984  1.00  0.00     0.070 C 
HETATM   19  O3  UNL     1      25.577  10.058  47.727  1.00  0.00    -0.344 OA
HETATM   20  C24 UNL     1      26.217   9.582  48.935  1.00  0.00     0.236 C 
BRANCH  16  21
HETATM   21  O1  UNL     1      25.412   9.636  44.580  1.00  0.00    -0.353 OA
HETATM   22  C1  UNL     1      25.544   8.893  43.391  1.00  0.00     0.210 C 
ENDBRANCH  16  21
ENDBRANCH   1   9
BRANCH   5  23
HETATM   23  N4  UNL     1      24.635   3.680  50.260  1.00  0.00    -0.331 N 
HETATM   24  C12 UNL     1      23.591   2.910  49.743  1.00  0.00     0.323 C 
HETATM   25  O2  UNL     1      23.333   3.137  48.522  1.00  0.00    -0.247 OA
HETATM   26  N5  UNL     1      22.920   1.971  50.574  1.00  0.00    -0.302 N 
HETATM   27  C13 UNL     1      23.246   1.755  51.941  1.00  0.00     0.096 A 
HETATM   28  C17 UNL     1      21.861   1.246  49.892  1.00  0.00     0.112 A 
HETATM   29  C14 UNL     1      22.578   0.864  52.654  1.00  0.00     0.017 A 
HETATM   30  C15 UNL     1      21.488   0.054  52.125  1.00  0.00    -0.001 A 
HETATM   31  C16 UNL     1      21.244   0.312  50.851  1.00  0.00    -0.002 A 
HETATM   32  C18 UNL     1      20.849   2.152  49.233  1.00  0.00     0.037 C 
HETATM   33  H12 UNL     1      25.005   3.651  51.230  1.00  0.00     0.165 HD
ENDBRANCH   5  23
TORSDOF 3
ENDMDL
MODEL 6
REMARK VINA RESULT:      -8.5      2.694      4.166
REMARK  3 active torsions:
REMARK  status: ('A' for Active; 'I' for Inactive)
REMARK    1  A    between atoms: O1_2  and  C2_3 
REMARK    2  A    between atoms: C7_10  and  N3_11 
REMARK    3  A    between atoms: C11_15  and  N4_16 
REMARK       I    between atoms: N4_16  and  C12_17 
REMARK       I    between atoms: C12_17  and  N5_19 
ROOT
HETATM    1  N3  UNL     1      26.669   6.929  49.077  1.00  0.00    -0.354 N 
HETATM    2  C8  UNL     1      25.626   6.628  50.013  1.00  0.00     0.093 C 
HETATM    3  C9  UNL     1      24.940   5.501  50.281  1.00  0.00    -0.042 C 
HETATM    4  C10 UNL     1      23.914   5.638  51.365  1.00  0.00     0.047 C 
HETATM    5  C11 UNL     1      25.101   4.208  49.614  1.00  0.00     0.139 C 
HETATM    6  C19 UNL     1      26.476   3.829  49.248  1.00  0.00     0.000 C 
HETATM    7  C20 UNL     1      27.387   4.687  48.826  1.00  0.00    -0.009 C 
HETATM    8  C21 UNL     1      27.614   6.120  48.524  1.00  0.00     0.152 C 
ENDROOT
BRANCH   1   9
HETATM    9  C7  UNL     1      26.750   8.360  48.627  1.00  0.00     0.171 C 
HETATM   10  N2  UNL     1      28.097   8.493  48.993  1.00  0.00    -0.247 NA
HETATM   11  C6  UNL     1      28.631   9.520  49.517  1.00  0.00     0.101 C 
HETATM   12  C5  UNL     1      28.344  10.584  48.818  1.00  0.00     0.149 C 
HETATM   13  N1  UNL     1      27.555  10.437  47.660  1.00  0.00    -0.271 NA
HETATM   14  C4  UNL     1      27.753  11.061  46.558  1.00  0.00     0.119 C 
HETATM   15  C3  UNL     1      26.846  10.797  45.452  1.00  0.00     0.059 C 
HETATM   16  C2  UNL     1      25.881   9.920  45.675  1.00  0.00     0.102 C 
HETATM   17  C23 UNL     1      25.740   9.250  46.967  1.00  0.00     0.102 C 
HETATM   18  C22 UNL     1      26.309   8.061  47.254  1.00  0.00     0.070 C 
HETATM   19  O3  UNL     1      25.029   9.685  48.088  1.00  0.00    -0.344 OA
HETATM   20  C24 UNL     1      25.707   9.185  49.266  1.00  0.00     0.236 C 
BRANCH  16  21
HETATM   21  O1  UNL     1      24.840   9.396  44.928  1.00  0.00    -0.353 OA
HETATM   22  C1  UNL     1      23.517   9.878  44.939  1.00  0.00     0.210 C 
ENDBRANCH  16  21
ENDBRANCH   1   9
BRANCH   5  23
HETATM   23  N4  UNL     1      24.411   3.162  50.337  1.00  0.00    -0.331 N 
HETATM   24  C12 UNL     1      25.005   2.354  51.308  1.00  0.00     0.323 C 
HETATM   25  O2  UNL     1      26.230   2.608  51.518  1.00  0.00    -0.247 OA
HETATM   26  N5  UNL     1      24.240   1.350  51.964  1.00  0.00    -0.302 N 
HETATM   27  C13 UNL     1      22.866   1.102  51.690  1.00  0.00     0.096 A 
HETATM   28  C17 UNL     1      24.995   0.595  52.949  1.00  0.00     0.112 A 
HETATM   29  C14 UNL     1      22.218   0.151  52.340  1.00  0.00     0.017 A 
HETATM   30  C15 UNL     1      22.826  -0.698  53.356  1.00  0.00    -0.001 A 
HETATM   31  C16 UNL     1      24.101  -0.407  53.555  1.00  0.00    -0.002 A 
HETATM   32  C18 UNL     1      26.257  -0.017  52.390  1.00  0.00     0.037 C 
HETATM   33  H12 UNL     1      23.424   3.122  50.015  1.00  0.00     0.165 HD
ENDBRANCH   5  23
TORSDOF 3
ENDMDL
MODEL 7
REMARK VINA RESULT:      -8.4      3.331      4.742
REMARK  3 active torsions:
REMARK  status: ('A' for Active; 'I' for Inactive)
REMARK    1  A    between atoms: O1_2  and  C2_3 
REMARK    2  A    between atoms: C7_10  and  N3_11 
REMARK    3  A    between atoms: C11_15  and  N4_16 
REMARK       I    between atoms: N4_16  and  C12_17 
REMARK       I    between atoms: C12_17  and  N5_19 
ROOT
HETATM    1  N3  UNL     1      25.654   6.081  49.656  1.00  0.00    -0.354 N 
HETATM    2  C8  UNL     1      24.834   5.766  50.788  1.00  0.00     0.093 C 
HETATM    3  C9  UNL     1      24.321   4.610  51.249  1.00  0.00    -0.042 C 
HETATM    4  C10 UNL     1      23.503   4.743  52.496  1.00  0.00     0.047 C 
HETATM    5  C11 UNL     1      24.484   3.287  50.642  1.00  0.00     0.139 C 
HETATM    6  C19 UNL     1      25.799   2.999  50.047  1.00  0.00     0.000 C 
HETATM    7  C20 UNL     1      26.530   3.895  49.410  1.00  0.00    -0.009 C 
HETATM    8  C21 UNL     1      26.557   5.314  48.983  1.00  0.00     0.152 C 
ENDROOT
BRANCH   1   9
HETATM    9  C7  UNL     1      25.512   7.474  49.113  1.00  0.00     0.171 C 
HETATM   10  N2  UNL     1      26.834   7.826  49.420  1.00  0.00    -0.247 NA
HETATM   11  C6  UNL     1      27.225   8.953  49.857  1.00  0.00     0.101 C 
HETATM   12  C5  UNL     1      26.767   9.913  49.103  1.00  0.00     0.149 C 
HETATM   13  N1  UNL     1      25.976   9.575  47.986  1.00  0.00    -0.271 NA
HETATM   14  C4  UNL     1      26.051  10.144  46.841  1.00  0.00     0.119 C 
HETATM   15  C3  UNL     1      25.162   9.677  45.788  1.00  0.00     0.059 C 
HETATM   16  C2  UNL     1      24.343   8.686  46.102  1.00  0.00     0.102 C 
HETATM   17  C23 UNL     1      24.337   8.093  47.437  1.00  0.00     0.102 C 
HETATM   18  C22 UNL     1      25.083   7.022  47.779  1.00  0.00     0.070 C 
HETATM   19  O3  UNL     1      23.601   8.496  48.554  1.00  0.00    -0.344 OA
HETATM   20  C24 UNL     1      24.377   8.181  49.736  1.00  0.00     0.236 C 
BRANCH  16  21
HETATM   21  O1  UNL     1      23.371   7.968  45.428  1.00  0.00    -0.353 OA
HETATM   22  C1  UNL     1      23.540   7.370  44.164  1.00  0.00     0.210 C 
ENDBRANCH  16  21
ENDBRANCH   1   9
BRANCH   5  23
HETATM   23  N4  UNL     1      24.043   2.245  51.544  1.00  0.00    -0.331 N 
HETATM   24  C12 UNL     1      22.767   1.679  51.528  1.00  0.00     0.323 C 
HETATM   25  O2  UNL     1      21.997   2.157  50.640  1.00  0.00    -0.247 OA
HETATM   26  N5  UNL     1      22.429   0.658  52.459  1.00  0.00    -0.302 N 
HETATM   27  C13 UNL     1      23.329   0.157  53.439  1.00  0.00     0.096 A 
HETATM   28  C17 UNL     1      21.069   0.168  52.315  1.00  0.00     0.112 A 
HETATM   29  C14 UNL     1      22.946  -0.794  54.273  1.00  0.00     0.017 A 
HETATM   30  C15 UNL     1      21.617  -1.394  54.265  1.00  0.00    -0.001 A 
HETATM   31  C16 UNL     1      20.840  -0.877  53.328  1.00  0.00    -0.002 A 
HETATM   32  C18 UNL     1      20.032   1.265  52.370  1.00  0.00     0.037 C 
HETATM   33  H12 UNL     1      24.822   2.000  52.186  1.00  0.00     0.165 HD
ENDBRANCH   5  23
TORSDOF 3
ENDMDL
MODEL 8
REMARK VINA RESULT:      -8.2      2.875      9.546
REMARK  3 active torsions:
REMARK  status: ('A' for Active; 'I' for Inactive)
REMARK    1  A    between atoms: O1_2  and  C2_3 
REMARK    2  A    between atoms: C7_10  and  N3_11 
REMARK    3  A    between atoms: C11_15  and  N4_16 
REMARK       I    between atoms: N4_16  and  C12_17 
REMARK       I    between atoms: C12_17  and  N5_19 
ROOT
HETATM    1  N3  UNL     1      24.211   3.985  51.451  1.00  0.00    -0.354 N 
HETATM    2  C8  UNL     1      25.350   3.909  50.584  1.00  0.00     0.093 C 
HETATM    3  C9  UNL     1      25.885   4.776  49.704  1.00  0.00    -0.042 C 
HETATM    4  C10 UNL     1      27.105   4.273  48.996  1.00  0.00     0.047 C 
HETATM    5  C11 UNL     1      25.379   6.113  49.388  1.00  0.00     0.139 C 
HETATM    6  C19 UNL     1      24.829   6.886  50.514  1.00  0.00     0.000 C 
HETATM    7  C20 UNL     1      24.140   6.351  51.505  1.00  0.00    -0.009 C 
HETATM    8  C21 UNL     1      23.612   5.067  52.023  1.00  0.00     0.152 C 
ENDROOT
BRANCH   1   9
HETATM    9  C7  UNL     1      23.566   2.674  51.800  1.00  0.00     0.171 C 
HETATM   10  N2  UNL     1      24.576   2.313  52.701  1.00  0.00    -0.247 NA
HETATM   11  C6  UNL     1      25.053   1.146  52.861  1.00  0.00     0.101 C 
HETATM   12  C5  UNL     1      24.090   0.286  53.042  1.00  0.00     0.149 C 
HETATM   13  N1  UNL     1      22.761   0.753  53.049  1.00  0.00    -0.271 NA
HETATM   14  C4  UNL     1      21.848   0.344  53.849  1.00  0.00     0.119 C 
HETATM   15  C3  UNL     1      20.521   0.929  53.727  1.00  0.00     0.059 C 
HETATM   16  C2  UNL     1      20.366   1.851  52.791  1.00  0.00     0.102 C 
HETATM   17  C23 UNL     1      21.473   2.260  51.928  1.00  0.00     0.102 C 
HETATM   18  C22 UNL     1      22.294   3.291  52.212  1.00  0.00     0.070 C 
HETATM   19  O3  UNL     1      21.871   1.696  50.714  1.00  0.00    -0.344 OA
HETATM   20  C24 UNL     1      23.304   1.866  50.593  1.00  0.00     0.236 C 
BRANCH  16  21
HETATM   21  O1  UNL     1      19.311   2.632  52.350  1.00  0.00    -0.353 OA
HETATM   22  C1  UNL     1      18.419   2.277  51.321  1.00  0.00     0.210 C 
ENDBRANCH  16  21
ENDBRANCH   1   9
BRANCH   5  23
HETATM   23  N4  UNL     1      26.347   6.865  48.620  1.00  0.00    -0.331 N 
HETATM   24  C12 UNL     1      26.029   7.663  47.519  1.00  0.00     0.323 C 
HETATM   25  O2  UNL     1      24.794   7.683  47.231  1.00  0.00    -0.247 OA
HETATM   26  N5  UNL     1      27.056   8.364  46.828  1.00  0.00    -0.302 N 
HETATM   27  C13 UNL     1      28.430   8.308  47.190  1.00  0.00     0.096 A 
HETATM   28  C17 UNL     1      26.568   9.152  45.709  1.00  0.00     0.112 A 
HETATM   29  C14 UNL     1      29.330   8.987  46.501  1.00  0.00     0.017 A 
HETATM   30  C15 UNL     1      29.010   9.824  45.352  1.00  0.00    -0.001 A 
HETATM   31  C16 UNL     1      27.717   9.826  45.077  1.00  0.00    -0.002 A 
HETATM   32  C18 UNL     1      25.755   8.347  44.724  1.00  0.00     0.037 C 
HETATM   33  H12 UNL     1      27.293   6.711  49.022  1.00  0.00     0.165 HD
ENDBRANCH   5  23
TORSDOF 3
ENDMDL
MODEL 9
REMARK VINA RESULT:      -8.2      4.221      9.047
REMARK  3 active torsions:
REMARK  status: ('A' for Active; 'I' for Inactive)
REMARK    1  A    between atoms: O1_2  and  C2_3 
REMARK    2  A    between atoms: C7_10  and  N3_11 
REMARK    3  A    between atoms: C11_15  and  N4_16 
REMARK       I    between atoms: N4_16  and  C12_17 
REMARK       I    between atoms: C12_17  and  N5_19 
ROOT
HETATM    1  N3  UNL     1      24.896   2.888  52.513  1.00  0.00    -0.354 N 
HETATM    2  C8  UNL     1      25.683   3.196  51.355  1.00  0.00     0.093 C 
HETATM    3  C9  UNL     1      25.485   4.025  50.314  1.00  0.00    -0.042 C 
HETATM    4  C10 UNL     1      26.594   4.036  49.306  1.00  0.00     0.047 C 
HETATM    5  C11 UNL     1      24.313   4.873  50.091  1.00  0.00     0.139 C 
HETATM    6  C19 UNL     1      23.718   5.492  51.287  1.00  0.00     0.000 C 
HETATM    7  C20 UNL     1      23.644   4.897  52.463  1.00  0.00    -0.009 C 
HETATM    8  C21 UNL     1      23.977   3.643  53.178  1.00  0.00     0.152 C 
ENDROOT
BRANCH   1   9
HETATM    9  C7  UNL     1      25.107   1.522  53.103  1.00  0.00     0.171 C 
HETATM   10  N2  UNL     1      26.006   1.982  54.075  1.00  0.00    -0.247 NA
HETATM   11  C6  UNL     1      27.052   1.379  54.470  1.00  0.00     0.101 C 
HETATM   12  C5  UNL     1      26.767   0.150  54.801  1.00  0.00     0.149 C 
HETATM   13  N1  UNL     1      25.430  -0.284  54.694  1.00  0.00    -0.271 NA
HETATM   14  C4  UNL     1      24.838  -1.037  55.544  1.00  0.00     0.119 C 
HETATM   15  C3  UNL     1      23.452  -1.397  55.287  1.00  0.00     0.059 C 
HETATM   16  C2  UNL     1      22.908  -0.906  54.185  1.00  0.00     0.102 C 
HETATM   17  C23 UNL     1      23.664  -0.045  53.277  1.00  0.00     0.102 C 
HETATM   18  C22 UNL     1      23.675   1.301  53.365  1.00  0.00     0.070 C 
HETATM   19  O3  UNL     1      24.474  -0.427  52.205  1.00  0.00    -0.344 OA
HETATM   20  C24 UNL     1      25.533   0.552  52.076  1.00  0.00     0.236 C 
BRANCH  16  21
HETATM   21  O1  UNL     1      21.665  -0.995  53.582  1.00  0.00    -0.353 OA
HETATM   22  C1  UNL     1      20.506  -0.326  54.021  1.00  0.00     0.210 C 
ENDBRANCH  16  21
ENDBRANCH   1   9
BRANCH   5  23
HETATM   23  N4  UNL     1      24.559   5.830  49.035  1.00  0.00    -0.331 N 
HETATM   24  C12 UNL     1      23.628   6.175  48.053  1.00  0.00     0.323 C 
HETATM   25  O2  UNL     1      22.517   5.572  48.155  1.00  0.00    -0.247 OA
HETATM   26  N5  UNL     1      23.967   7.130  47.055  1.00  0.00    -0.302 N 
HETATM   27  C13 UNL     1      25.230   7.779  46.982  1.00  0.00     0.096 A 
HETATM   28  C17 UNL     1      22.894   7.385  46.108  1.00  0.00     0.112 A 
HETATM   29  C14 UNL     1      25.475   8.657  46.025  1.00  0.00     0.017 A 
HETATM   30  C15 UNL     1      24.511   9.026  44.996  1.00  0.00    -0.001 A 
HETATM   31  C16 UNL     1      23.364   8.383  45.130  1.00  0.00    -0.002 A 
HETATM   32  C18 UNL     1      22.370   6.131  45.451  1.00  0.00     0.037 C 
HETATM   33  H12 UNL     1      25.523   6.205  49.135  1.00  0.00     0.165 HD
ENDBRANCH   5  23
TORSDOF 3
ENDMDL
