MODEL 1
REMARK VINA RESULT:      -7.7      0.000      0.000
REMARK  7 active torsions:
REMARK  status: ('A' for Active; 'I' for Inactive)
REMARK    1  A    between atoms: C1_2  and  N1_3 
REMARK    2  A    between atoms: C1_2  and  N3_12 
REMARK    3  A    between atoms: N1_3  and  C2_4 
REMARK    4  A    between atoms: C2_4  and  C3_5 
REMARK    5  A    between atoms: C3_5  and  N2_6 
REMARK    6  A    between atoms: N3_12  and  C8_13 
REMARK    7  A    between atoms: N4_19  and  C14_20 
ROOT
HETATM    1  C8  UNL     1      22.503   1.233  51.084  1.00  0.00     0.036 A 
HETATM    2  C9  UNL     1      21.268   0.660  51.390  1.00  0.00     0.032 A 
HETATM    3  C10 UNL     1      21.058  -0.148  52.490  1.00  0.00     0.036 A 
HETATM    4  C11 UNL     1      22.118  -0.404  53.332  1.00  0.00     0.087 A 
HETATM    5  C12 UNL     1      23.335   0.162  53.030  1.00  0.00     0.087 A 
HETATM    6  C13 UNL     1      23.556   0.969  51.935  1.00  0.00     0.063 A 
HETATM    7  N4  UNL     1      24.498  -0.037  53.816  1.00  0.00    -0.253 N 
HETATM    8  N5  UNL     1      24.354  -0.870  54.959  1.00  0.00    -0.287 N 
HETATM    9  C20 UNL     1      23.066  -1.453  55.251  1.00  0.00     0.224 A 
HETATM   10  N6  UNL     1      22.045  -1.230  54.495  1.00  0.00    -0.240 NA
HETATM   11  H22 UNL     1      25.060  -1.165  55.684  1.00  0.00     0.188 HD
ENDROOT
BRANCH   1  12
HETATM   12  N3  UNL     1      22.613   2.051  49.918  1.00  0.00    -0.333 N 
HETATM   13  H14 UNL     1      23.663   1.953  49.852  1.00  0.00     0.168 HD
BRANCH  12  14
HETATM   14  C1  UNL     1      21.549   2.691  49.226  1.00  0.00     0.172 C 
HETATM   15  S1  UNL     1      21.822   2.803  47.609  1.00  0.00    -0.041 SA
BRANCH  14  16
HETATM   16  N1  UNL     1      20.350   3.209  49.774  1.00  0.00    -0.365 N 
HETATM   17  H1  UNL     1      19.446   2.858  49.400  1.00  0.00     0.161 HD
BRANCH  16  18
HETATM   18  C2  UNL     1      20.290   4.198  50.828  1.00  0.00     0.152 C 
BRANCH  18  19
HETATM   19  C3  UNL     1      20.971   5.467  50.385  1.00  0.00     0.292 C 
BRANCH  19  20
HETATM   20  N2  UNL     1      21.954   5.966  51.314  1.00  0.00     0.094 N 
HETATM   21  C4  UNL     1      23.065   6.528  50.637  1.00  0.00     0.298 C 
HETATM   22  C5  UNL     1      24.332   5.741  50.683  1.00  0.00     0.198 C 
HETATM   23  O1  UNL     1      24.160   4.438  51.125  1.00  0.00    -0.388 OA
HETATM   24  C6  UNL     1      23.646   4.543  52.419  1.00  0.00     0.198 C 
HETATM   25  C7  UNL     1      22.218   4.980  52.304  1.00  0.00     0.298 C 
ENDBRANCH  19  20
ENDBRANCH  18  19
ENDBRANCH  16  18
ENDBRANCH  14  16
ENDBRANCH  12  14
ENDBRANCH   1  12
BRANCH   7  26
HETATM   26  C14 UNL     1      25.798   0.477  53.725  1.00  0.00     0.058 A 
HETATM   27  C15 UNL     1      26.157   1.809  53.672  1.00  0.00     0.031 A 
HETATM   28  C16 UNL     1      27.450   2.281  53.564  1.00  0.00     0.004 A 
HETATM   29  C17 UNL     1      28.483   1.359  53.506  1.00  0.00     0.019 A 
HETATM   30  C18 UNL     1      28.166   0.033  53.557  1.00  0.00     0.013 A 
HETATM   31 BR1  UNL     1      29.681  -1.143  53.468  1.00  0.00    -0.051 Br
HETATM   32  C19 UNL     1      26.865  -0.414  53.663  1.00  0.00     0.050 A 
ENDBRANCH   7  26
TORSDOF 7
ENDMDL
MODEL 2
REMARK VINA RESULT:      -7.7      1.708      2.386
REMARK  7 active torsions:
REMARK  status: ('A' for Active; 'I' for Inactive)
REMARK    1  A    between atoms: C1_2  and  N1_3 
REMARK    2  A    between atoms: C1_2  and  N3_12 
REMARK    3  A    between atoms: N1_3  and  C2_4 
REMARK    4  A    between atoms: C2_4  and  C3_5 
REMARK    5  A    between atoms: C3_5  and  N2_6 
REMARK    6  A    between atoms: N3_12  and  C8_13 
REMARK    7  A    between atoms: N4_19  and  C14_20 
ROOT
HETATM    1  C8  UNL     1      22.387   1.042  51.568  1.00  0.00     0.036 A 
HETATM    2  C9  UNL     1      21.202   0.428  51.972  1.00  0.00     0.032 A 
HETATM    3  C10 UNL     1      21.110  -0.386  53.084  1.00  0.00     0.036 A 
HETATM    4  C11 UNL     1      22.244  -0.604  53.836  1.00  0.00     0.087 A 
HETATM    5  C12 UNL     1      23.411   0.004  53.438  1.00  0.00     0.087 A 
HETATM    6  C13 UNL     1      23.514   0.816  52.329  1.00  0.00     0.063 A 
HETATM    7  N4  UNL     1      24.641  -0.154  54.126  1.00  0.00    -0.253 N 
HETATM    8  N5  UNL     1      24.620  -0.991  55.275  1.00  0.00    -0.287 N 
HETATM    9  C20 UNL     1      23.380  -1.617  55.670  1.00  0.00     0.224 A 
HETATM   10  N6  UNL     1      22.295  -1.430  55.000  1.00  0.00    -0.240 NA
HETATM   11  H22 UNL     1      25.392  -1.260  55.940  1.00  0.00     0.188 HD
ENDROOT
BRANCH   1  12
HETATM   12  N3  UNL     1      22.373   1.863  50.398  1.00  0.00    -0.333 N 
HETATM   13  H14 UNL     1      22.472   1.050  49.730  1.00  0.00     0.168 HD
BRANCH  12  14
HETATM   14  C1  UNL     1      22.255   3.279  50.354  1.00  0.00     0.172 C 
HETATM   15  S1  UNL     1      21.449   3.807  49.024  1.00  0.00    -0.041 SA
BRANCH  14  16
HETATM   16  N1  UNL     1      22.743   4.215  51.298  1.00  0.00    -0.365 N 
HETATM   17  H1  UNL     1      22.301   4.241  52.239  1.00  0.00     0.161 HD
BRANCH  16  18
HETATM   18  C2  UNL     1      23.823   5.145  51.049  1.00  0.00     0.152 C 
BRANCH  18  19
HETATM   19  C3  UNL     1      25.046   4.402  50.578  1.00  0.00     0.292 C 
BRANCH  19  20
HETATM   20  N2  UNL     1      25.384   4.635  49.197  1.00  0.00     0.094 N 
HETATM   21  C4  UNL     1      26.783   4.559  48.987  1.00  0.00     0.298 C 
HETATM   22  C5  UNL     1      27.483   5.852  48.727  1.00  0.00     0.198 C 
HETATM   23  O1  UNL     1      26.713   6.968  49.022  1.00  0.00    -0.388 OA
HETATM   24  C6  UNL     1      25.593   6.884  48.194  1.00  0.00     0.198 C 
HETATM   25  C7  UNL     1      24.712   5.798  48.730  1.00  0.00     0.298 C 
ENDBRANCH  19  20
ENDBRANCH  18  19
ENDBRANCH  16  18
ENDBRANCH  14  16
ENDBRANCH  12  14
ENDBRANCH   1  12
BRANCH   7  26
HETATM   26  C14 UNL     1      25.911   0.405  53.930  1.00  0.00     0.058 A 
HETATM   27  C15 UNL     1      26.210   1.745  53.791  1.00  0.00     0.031 A 
HETATM   28  C16 UNL     1      27.473   2.262  53.581  1.00  0.00     0.004 A 
HETATM   29  C17 UNL     1      28.538   1.378  53.503  1.00  0.00     0.019 A 
HETATM   30  C18 UNL     1      28.281   0.045  53.638  1.00  0.00     0.013 A 
HETATM   31 BR1  UNL     1      29.835  -1.074  53.513  1.00  0.00    -0.051 Br
HETATM   32  C19 UNL     1      27.009  -0.446  53.846  1.00  0.00     0.050 A 
ENDBRANCH   7  26
TORSDOF 7
ENDMDL
MODEL 3
REMARK VINA RESULT:      -7.7      2.019      2.921
REMARK  7 active torsions:
REMARK  status: ('A' for Active; 'I' for Inactive)
REMARK    1  A    between atoms: C1_2  and  N1_3 
REMARK    2  A    between atoms: C1_2  and  N3_12 
REMARK    3  A    between atoms: N1_3  and  C2_4 
REMARK    4  A    between atoms: C2_4  and  C3_5 
REMARK    5  A    between atoms: C3_5  and  N2_6 
REMARK    6  A    between atoms: N3_12  and  C8_13 
REMARK    7  A    between atoms: N4_19  and  C14_20 
ROOT
HETATM    1  C8  UNL     1      23.975   2.727  50.369  1.00  0.00     0.036 A 
HETATM    2  C9  UNL     1      22.623   2.397  50.299  1.00  0.00     0.032 A 
HETATM    3  C10 UNL     1      22.025   1.463  51.123  1.00  0.00     0.036 A 
HETATM    4  C11 UNL     1      22.802   0.823  52.064  1.00  0.00     0.087 A 
HETATM    5  C12 UNL     1      24.136   1.150  52.133  1.00  0.00     0.087 A 
HETATM    6  C13 UNL     1      24.742   2.079  51.316  1.00  0.00     0.063 A 
HETATM    7  N4  UNL     1      25.034   0.552  53.054  1.00  0.00    -0.253 N 
HETATM    8  N5  UNL     1      24.486  -0.429  53.924  1.00  0.00    -0.287 N 
HETATM    9  C20 UNL     1      23.082  -0.754  53.829  1.00  0.00     0.224 A 
HETATM   10  N6  UNL     1      22.319  -0.171  52.970  1.00  0.00    -0.240 NA
HETATM   11  H22 UNL     1      24.943  -1.006  54.680  1.00  0.00     0.188 HD
ENDROOT
BRANCH   1  12
HETATM   12  N3  UNL     1      24.493   3.706  49.466  1.00  0.00    -0.333 N 
HETATM   13  H14 UNL     1      23.973   3.324  48.629  1.00  0.00     0.168 HD
BRANCH  12  14
HETATM   14  C1  UNL     1      25.393   4.760  49.781  1.00  0.00     0.172 C 
HETATM   15  S1  UNL     1      26.863   4.573  49.069  1.00  0.00    -0.041 SA
BRANCH  14  16
HETATM   16  N1  UNL     1      25.149   5.887  50.603  1.00  0.00    -0.365 N 
HETATM   17  H1  UNL     1      25.016   5.733  51.622  1.00  0.00     0.161 HD
BRANCH  16  18
HETATM   18  C2  UNL     1      25.073   7.251  50.124  1.00  0.00     0.152 C 
BRANCH  18  19
HETATM   19  C3  UNL     1      23.957   7.983  50.823  1.00  0.00     0.292 C 
BRANCH  19  20
HETATM   20  N2  UNL     1      22.733   8.055  50.066  1.00  0.00     0.094 N 
HETATM   21  C4  UNL     1      21.692   7.331  50.699  1.00  0.00     0.298 C 
HETATM   22  C5  UNL     1      21.287   6.051  50.048  1.00  0.00     0.198 C 
HETATM   23  O1  UNL     1      22.187   5.608  49.089  1.00  0.00    -0.388 OA
HETATM   24  C6  UNL     1      22.233   6.613  48.122  1.00  0.00     0.198 C 
HETATM   25  C7  UNL     1      22.998   7.764  48.700  1.00  0.00     0.298 C 
ENDBRANCH  19  20
ENDBRANCH  18  19
ENDBRANCH  16  18
ENDBRANCH  14  16
ENDBRANCH  12  14
ENDBRANCH   1  12
BRANCH   7  26
HETATM   26  C14 UNL     1      26.390   0.771  53.327  1.00  0.00     0.058 A 
HETATM   27  C15 UNL     1      26.988   1.980  53.621  1.00  0.00     0.031 A 
HETATM   28  C16 UNL     1      28.333   2.164  53.868  1.00  0.00     0.004 A 
HETATM   29  C17 UNL     1      29.165   1.056  53.825  1.00  0.00     0.019 A 
HETATM   30  C18 UNL     1      28.610  -0.157  53.539  1.00  0.00     0.013 A 
HETATM   31 BR1  UNL     1      29.862  -1.611  53.509  1.00  0.00    -0.051 Br
HETATM   32  C19 UNL     1      27.261  -0.314  53.294  1.00  0.00     0.050 A 
ENDBRANCH   7  26
TORSDOF 7
ENDMDL
MODEL 4
REMARK VINA RESULT:      -7.7      3.913      4.807
REMARK  7 active torsions:
REMARK  status: ('A' for Active; 'I' for Inactive)
REMARK    1  A    between atoms: C1_2  and  N1_3 
REMARK    2  A    between atoms: C1_2  and  N3_12 
REMARK    3  A    between atoms: N1_3  and  C2_4 
REMARK    4  A    between atoms: C2_4  and  C3_5 
REMARK    5  A    between atoms: C3_5  and  N2_6 
REMARK    6  A    between atoms: N3_12  and  C8_13 
REMARK    7  A    between atoms: N4_19  and  C14_20 
ROOT
HETATM    1  C8  UNL     1      23.984   2.850  50.275  1.00  0.00     0.036 A 
HETATM    2  C9  UNL     1      22.629   2.533  50.188  1.00  0.00     0.032 A 
HETATM    3  C10 UNL     1      22.013   1.603  51.002  1.00  0.00     0.036 A 
HETATM    4  C11 UNL     1      22.771   0.953  51.951  1.00  0.00     0.087 A 
HETATM    5  C12 UNL     1      24.107   1.267  52.037  1.00  0.00     0.087 A 
HETATM    6  C13 UNL     1      24.732   2.192  51.230  1.00  0.00     0.063 A 
HETATM    7  N4  UNL     1      24.988   0.657  52.967  1.00  0.00    -0.253 N 
HETATM    8  N5  UNL     1      24.420  -0.321  53.828  1.00  0.00    -0.287 N 
HETATM    9  C20 UNL     1      23.014  -0.632  53.715  1.00  0.00     0.224 A 
HETATM   10  N6  UNL     1      22.267  -0.038  52.848  1.00  0.00    -0.240 NA
HETATM   11  H22 UNL     1      24.861  -0.904  54.588  1.00  0.00     0.188 HD
ENDROOT
BRANCH   1  12
HETATM   12  N3  UNL     1      24.523   3.826  49.381  1.00  0.00    -0.333 N 
HETATM   13  H14 UNL     1      24.088   3.393  48.521  1.00  0.00     0.168 HD
BRANCH  12  14
HETATM   14  C1  UNL     1      25.345   4.932  49.727  1.00  0.00     0.172 C 
HETATM   15  S1  UNL     1      24.475   6.269  50.124  1.00  0.00    -0.041 SA
BRANCH  14  16
HETATM   16  N1  UNL     1      26.760   4.981  49.756  1.00  0.00    -0.365 N 
HETATM   17  H1  UNL     1      27.235   4.945  50.679  1.00  0.00     0.161 HD
BRANCH  16  18
HETATM   18  C2  UNL     1      27.602   5.075  48.582  1.00  0.00     0.152 C 
BRANCH  18  19
HETATM   19  C3  UNL     1      28.083   6.492  48.403  1.00  0.00     0.292 C 
BRANCH  19  20
HETATM   20  N2  UNL     1      29.304   6.611  47.648  1.00  0.00     0.094 N 
HETATM   21  C4  UNL     1      30.222   5.585  47.987  1.00  0.00     0.298 C 
HETATM   22  C5  UNL     1      31.410   6.000  48.788  1.00  0.00     0.198 C 
HETATM   23  O1  UNL     1      31.292   7.269  49.337  1.00  0.00    -0.388 OA
HETATM   24  C6  UNL     1      31.151   8.138  48.254  1.00  0.00     0.198 C 
HETATM   25  C7  UNL     1      29.770   7.953  47.702  1.00  0.00     0.298 C 
ENDBRANCH  19  20
ENDBRANCH  18  19
ENDBRANCH  16  18
ENDBRANCH  14  16
ENDBRANCH  12  14
ENDBRANCH   1  12
BRANCH   7  26
HETATM   26  C14 UNL     1      26.343   0.862  53.258  1.00  0.00     0.058 A 
HETATM   27  C15 UNL     1      26.948   2.063  53.568  1.00  0.00     0.031 A 
HETATM   28  C16 UNL     1      28.292   2.233  53.833  1.00  0.00     0.004 A 
HETATM   29  C17 UNL     1      29.115   1.118  53.789  1.00  0.00     0.019 A 
HETATM   30  C18 UNL     1      28.552  -0.087  53.486  1.00  0.00     0.013 A 
HETATM   31 BR1  UNL     1      29.792  -1.552  53.458  1.00  0.00    -0.051 Br
HETATM   32  C19 UNL     1      27.205  -0.230  53.225  1.00  0.00     0.050 A 
ENDBRANCH   7  26
TORSDOF 7
ENDMDL
MODEL 5
REMARK VINA RESULT:      -7.5      3.073      3.911
REMARK  7 active torsions:
REMARK  status: ('A' for Active; 'I' for Inactive)
REMARK    1  A    between atoms: C1_2  and  N1_3 
REMARK    2  A    between atoms: C1_2  and  N3_12 
REMARK    3  A    between atoms: N1_3  and  C2_4 
REMARK    4  A    between atoms: C2_4  and  C3_5 
REMARK    5  A    between atoms: C3_5  and  N2_6 
REMARK    6  A    between atoms: N3_12  and  C8_13 
REMARK    7  A    between atoms: N4_19  and  C14_20 
ROOT
HETATM    1  C8  UNL     1      23.815   2.722  50.458  1.00  0.00     0.036 A 
HETATM    2  C9  UNL     1      22.465   2.376  50.420  1.00  0.00     0.032 A 
HETATM    3  C10 UNL     1      21.901   1.428  51.251  1.00  0.00     0.036 A 
HETATM    4  C11 UNL     1      22.710   0.789  52.167  1.00  0.00     0.087 A 
HETATM    5  C12 UNL     1      24.041   1.132  52.203  1.00  0.00     0.087 A 
HETATM    6  C13 UNL     1      24.614   2.076  51.378  1.00  0.00     0.063 A 
HETATM    7  N4  UNL     1      24.970   0.537  53.094  1.00  0.00    -0.253 N 
HETATM    8  N5  UNL     1      24.457  -0.458  53.971  1.00  0.00    -0.287 N 
HETATM    9  C20 UNL     1      23.056  -0.799  53.909  1.00  0.00     0.224 A 
HETATM   10  N6  UNL     1      22.263  -0.218  53.076  1.00  0.00    -0.240 NA
HETATM   11  H22 UNL     1      24.941  -1.035  54.709  1.00  0.00     0.188 HD
ENDROOT
BRANCH   1  12
HETATM   12  N3  UNL     1      24.297   3.715  49.550  1.00  0.00    -0.333 N 
HETATM   13  H14 UNL     1      23.650   3.425  48.765  1.00  0.00     0.168 HD
BRANCH  12  14
HETATM   14  C1  UNL     1      25.310   4.678  49.804  1.00  0.00     0.172 C 
HETATM   15  S1  UNL     1      26.779   4.222  49.224  1.00  0.00    -0.041 SA
BRANCH  14  16
HETATM   16  N1  UNL     1      25.173   5.919  50.473  1.00  0.00    -0.365 N 
HETATM   17  H1  UNL     1      25.107   5.914  51.510  1.00  0.00     0.161 HD
BRANCH  16  18
HETATM   18  C2  UNL     1      25.121   7.206  49.813  1.00  0.00     0.152 C 
BRANCH  18  19
HETATM   19  C3  UNL     1      26.324   8.031  50.192  1.00  0.00     0.292 C 
BRANCH  19  20
HETATM   20  N2  UNL     1      26.958   8.696  49.083  1.00  0.00     0.094 N 
HETATM   21  C4  UNL     1      26.954   7.882  47.922  1.00  0.00     0.298 C 
HETATM   22  C5  UNL     1      28.268   7.302  47.518  1.00  0.00     0.198 C 
HETATM   23  O1  UNL     1      29.242   7.399  48.502  1.00  0.00    -0.388 OA
HETATM   24  C6  UNL     1      29.404   8.765  48.739  1.00  0.00     0.198 C 
HETATM   25  C7  UNL     1      28.205   9.238  49.500  1.00  0.00     0.298 C 
ENDBRANCH  19  20
ENDBRANCH  18  19
ENDBRANCH  16  18
ENDBRANCH  14  16
ENDBRANCH  12  14
ENDBRANCH   1  12
BRANCH   7  26
HETATM   26  C14 UNL     1      26.330   0.771  53.334  1.00  0.00     0.058 A 
HETATM   27  C15 UNL     1      26.927   1.991  53.580  1.00  0.00     0.031 A 
HETATM   28  C16 UNL     1      28.276   2.189  53.795  1.00  0.00     0.004 A 
HETATM   29  C17 UNL     1      29.113   1.084  53.768  1.00  0.00     0.019 A 
HETATM   30  C18 UNL     1      28.559  -0.139  53.528  1.00  0.00     0.013 A 
HETATM   31 BR1  UNL     1      29.819  -1.587  53.516  1.00  0.00    -0.051 Br
HETATM   32  C19 UNL     1      27.206  -0.310  53.315  1.00  0.00     0.050 A 
ENDBRANCH   7  26
TORSDOF 7
ENDMDL
MODEL 6
REMARK VINA RESULT:      -7.5      6.449      9.391
REMARK  7 active torsions:
REMARK  status: ('A' for Active; 'I' for Inactive)
REMARK    1  A    between atoms: C1_2  and  N1_3 
REMARK    2  A    between atoms: C1_2  and  N3_12 
REMARK    3  A    between atoms: N1_3  and  C2_4 
REMARK    4  A    between atoms: C2_4  and  C3_5 
REMARK    5  A    between atoms: C3_5  and  N2_6 
REMARK    6  A    between atoms: N3_12  and  C8_13 
REMARK    7  A    between atoms: N4_19  and  C14_20 
ROOT
HETATM    1  C8  UNL     1      27.705   5.192  48.628  1.00  0.00     0.036 A 
HETATM    2  C9  UNL     1      26.958   6.347  48.855  1.00  0.00     0.032 A 
HETATM    3  C10 UNL     1      27.457   7.622  48.675  1.00  0.00     0.036 A 
HETATM    4  C11 UNL     1      28.760   7.765  48.247  1.00  0.00     0.087 A 
HETATM    5  C12 UNL     1      29.495   6.625  48.022  1.00  0.00     0.087 A 
HETATM    6  C13 UNL     1      29.007   5.349  48.200  1.00  0.00     0.063 A 
HETATM    7  N4  UNL     1      30.846   6.648  47.591  1.00  0.00    -0.253 N 
HETATM    8  N5  UNL     1      31.426   7.931  47.397  1.00  0.00    -0.287 N 
HETATM    9  C20 UNL     1      30.632   9.110  47.643  1.00  0.00     0.224 A 
HETATM   10  N6  UNL     1      29.406   9.021  48.033  1.00  0.00    -0.240 NA
HETATM   11  H22 UNL     1      32.397   8.203  47.087  1.00  0.00     0.188 HD
ENDROOT
BRANCH   1  12
HETATM   12  N3  UNL     1      27.092   3.920  48.849  1.00  0.00    -0.333 N 
HETATM   13  H14 UNL     1      27.438   3.507  47.940  1.00  0.00     0.168 HD
BRANCH  12  14
HETATM   14  C1  UNL     1      26.318   3.535  49.977  1.00  0.00     0.172 C 
HETATM   15  S1  UNL     1      24.705   3.522  49.665  1.00  0.00    -0.041 SA
BRANCH  14  16
HETATM   16  N1  UNL     1      26.788   3.184  51.266  1.00  0.00    -0.365 N 
HETATM   17  H1  UNL     1      27.659   3.632  51.612  1.00  0.00     0.161 HD
BRANCH  16  18
HETATM   18  C2  UNL     1      26.135   2.238  52.148  1.00  0.00     0.152 C 
BRANCH  18  19
HETATM   19  C3  UNL     1      26.727   0.865  51.962  1.00  0.00     0.292 C 
BRANCH  19  20
HETATM   20  N2  UNL     1      27.051   0.191  53.193  1.00  0.00     0.094 N 
HETATM   21  C4  UNL     1      27.601   1.087  54.144  1.00  0.00     0.298 C 
HETATM   22  C5  UNL     1      29.063   0.950  54.412  1.00  0.00     0.198 C 
HETATM   23  O1  UNL     1      29.726   0.168  53.477  1.00  0.00    -0.388 OA
HETATM   24  C6  UNL     1      29.133  -1.093  53.550  1.00  0.00     0.198 C 
HETATM   25  C7  UNL     1      27.782  -0.996  52.910  1.00  0.00     0.298 C 
ENDBRANCH  19  20
ENDBRANCH  18  19
ENDBRANCH  16  18
ENDBRANCH  14  16
ENDBRANCH  12  14
ENDBRANCH   1  12
BRANCH   7  26
HETATM   26  C14 UNL     1      31.746   5.628  47.254  1.00  0.00     0.058 A 
HETATM   27  C15 UNL     1      32.087   4.539  48.030  1.00  0.00     0.031 A 
HETATM   28  C16 UNL     1      32.994   3.561  47.674  1.00  0.00     0.004 A 
HETATM   29  C17 UNL     1      33.619   3.663  46.442  1.00  0.00     0.019 A 
HETATM   30  C18 UNL     1      33.306   4.726  45.646  1.00  0.00     0.013 A 
HETATM   31 BR1  UNL     1      34.236   4.756  43.967  1.00  0.00    -0.051 Br
HETATM   32  C19 UNL     1      32.397   5.692  46.026  1.00  0.00     0.050 A 
ENDBRANCH   7  26
TORSDOF 7
ENDMDL
MODEL 7
REMARK VINA RESULT:      -7.4      4.560      5.728
REMARK  7 active torsions:
REMARK  status: ('A' for Active; 'I' for Inactive)
REMARK    1  A    between atoms: C1_2  and  N1_3 
REMARK    2  A    between atoms: C1_2  and  N3_12 
REMARK    3  A    between atoms: N1_3  and  C2_4 
REMARK    4  A    between atoms: C2_4  and  C3_5 
REMARK    5  A    between atoms: C3_5  and  N2_6 
REMARK    6  A    between atoms: N3_12  and  C8_13 
REMARK    7  A    between atoms: N4_19  and  C14_20 
ROOT
HETATM    1  C8  UNL     1      25.305   3.747  49.642  1.00  0.00     0.036 A 
HETATM    2  C9  UNL     1      23.953   3.692  49.305  1.00  0.00     0.032 A 
HETATM    3  C10 UNL     1      23.044   2.874  49.946  1.00  0.00     0.036 A 
HETATM    4  C11 UNL     1      23.491   2.069  50.972  1.00  0.00     0.087 A 
HETATM    5  C12 UNL     1      24.824   2.125  51.304  1.00  0.00     0.087 A 
HETATM    6  C13 UNL     1      25.740   2.936  50.670  1.00  0.00     0.063 A 
HETATM    7  N4  UNL     1      25.400   1.337  52.333  1.00  0.00    -0.253 N 
HETATM    8  N5  UNL     1      24.520   0.462  53.026  1.00  0.00    -0.287 N 
HETATM    9  C20 UNL     1      23.125   0.423  52.656  1.00  0.00     0.224 A 
HETATM   10  N6  UNL     1      22.664   1.167  51.710  1.00  0.00    -0.240 NA
HETATM   11  H22 UNL     1      24.707  -0.213  53.815  1.00  0.00     0.188 HD
ENDROOT
BRANCH   1  12
HETATM   12  N3  UNL     1      26.162   4.627  48.911  1.00  0.00    -0.333 N 
HETATM   13  H14 UNL     1      26.326   3.941  48.123  1.00  0.00     0.168 HD
BRANCH  12  14
HETATM   14  C1  UNL     1      26.545   5.944  49.284  1.00  0.00     0.172 C 
HETATM   15  S1  UNL     1      25.370   6.732  50.120  1.00  0.00    -0.041 SA
BRANCH  14  16
HETATM   16  N1  UNL     1      27.773   6.595  49.015  1.00  0.00    -0.365 N 
HETATM   17  H1  UNL     1      28.057   7.384  49.628  1.00  0.00     0.161 HD
BRANCH  16  18
HETATM   18  C2  UNL     1      28.672   6.237  47.938  1.00  0.00     0.152 C 
BRANCH  18  19
HETATM   19  C3  UNL     1      30.033   5.903  48.491  1.00  0.00     0.292 C 
BRANCH  19  20
HETATM   20  N2  UNL     1      31.059   6.856  48.153  1.00  0.00     0.094 N 
HETATM   21  C4  UNL     1      31.501   7.566  49.298  1.00  0.00     0.298 C 
HETATM   22  C5  UNL     1      31.078   8.994  49.393  1.00  0.00     0.198 C 
HETATM   23  O1  UNL     1      30.071   9.334  48.501  1.00  0.00    -0.388 OA
HETATM   24  C6  UNL     1      30.597   9.102  47.230  1.00  0.00     0.198 C 
HETATM   25  C7  UNL     1      30.650   7.619  47.025  1.00  0.00     0.298 C 
ENDBRANCH  19  20
ENDBRANCH  18  19
ENDBRANCH  16  18
ENDBRANCH  14  16
ENDBRANCH  12  14
ENDBRANCH   1  12
BRANCH   7  26
HETATM   26  C14 UNL     1      26.695   1.277  52.863  1.00  0.00     0.058 A 
HETATM   27  C15 UNL     1      27.427   2.330  53.376  1.00  0.00     0.031 A 
HETATM   28  C16 UNL     1      28.711   2.239  53.874  1.00  0.00     0.004 A 
HETATM   29  C17 UNL     1      29.330   0.998  53.870  1.00  0.00     0.019 A 
HETATM   30  C18 UNL     1      28.637  -0.066  53.372  1.00  0.00     0.013 A 
HETATM   31 BR1  UNL     1      29.599  -1.726  53.421  1.00  0.00    -0.051 Br
HETATM   32  C19 UNL     1      27.354   0.051  52.878  1.00  0.00     0.050 A 
ENDBRANCH   7  26
TORSDOF 7
ENDMDL
MODEL 8
REMARK VINA RESULT:      -7.3      1.796      2.695
REMARK  7 active torsions:
REMARK  status: ('A' for Active; 'I' for Inactive)
REMARK    1  A    between atoms: C1_2  and  N1_3 
REMARK    2  A    between atoms: C1_2  and  N3_12 
REMARK    3  A    between atoms: N1_3  and  C2_4 
REMARK    4  A    between atoms: C2_4  and  C3_5 
REMARK    5  A    between atoms: C3_5  and  N2_6 
REMARK    6  A    between atoms: N3_12  and  C8_13 
REMARK    7  A    between atoms: N4_19  and  C14_20 
ROOT
HETATM    1  C8  UNL     1      23.687   1.594  51.610  1.00  0.00     0.036 A 
HETATM    2  C9  UNL     1      22.354   1.469  52.001  1.00  0.00     0.032 A 
HETATM    3  C10 UNL     1      21.943   0.677  53.055  1.00  0.00     0.036 A 
HETATM    4  C11 UNL     1      22.895  -0.026  53.761  1.00  0.00     0.087 A 
HETATM    5  C12 UNL     1      24.209   0.099  53.376  1.00  0.00     0.087 A 
HETATM    6  C13 UNL     1      24.630   0.885  52.325  1.00  0.00     0.063 A 
HETATM    7  N4  UNL     1      25.274  -0.583  54.019  1.00  0.00    -0.253 N 
HETATM    8  N5  UNL     1      24.918  -1.426  55.107  1.00  0.00    -0.287 N 
HETATM    9  C20 UNL     1      23.531  -1.540  55.489  1.00  0.00     0.224 A 
HETATM   10  N6  UNL     1      22.610  -0.890  54.862  1.00  0.00    -0.240 NA
HETATM   11  H22 UNL     1      25.518  -2.027  55.732  1.00  0.00     0.188 HD
ENDROOT
BRANCH   1  12
HETATM   12  N3  UNL     1      24.003   2.438  50.501  1.00  0.00    -0.333 N 
HETATM   13  H14 UNL     1      23.402   1.900  49.818  1.00  0.00     0.168 HD
BRANCH  12  14
HETATM   14  C1  UNL     1      24.860   3.572  50.514  1.00  0.00     0.172 C 
HETATM   15  S1  UNL     1      26.294   3.292  49.761  1.00  0.00    -0.041 SA
BRANCH  14  16
HETATM   16  N1  UNL     1      24.602   4.842  51.084  1.00  0.00    -0.365 N 
HETATM   17  H1  UNL     1      25.342   5.569  51.022  1.00  0.00     0.161 HD
BRANCH  16  18
HETATM   18  C2  UNL     1      23.370   5.207  51.751  1.00  0.00     0.152 C 
BRANCH  18  19
HETATM   19  C3  UNL     1      22.813   6.472  51.150  1.00  0.00     0.292 C 
BRANCH  19  20
HETATM   20  N2  UNL     1      21.595   6.284  50.404  1.00  0.00     0.094 N 
HETATM   21  C4  UNL     1      20.907   5.118  50.823  1.00  0.00     0.298 C 
HETATM   22  C5  UNL     1      20.928   3.963  49.879  1.00  0.00     0.198 C 
HETATM   23  O1  UNL     1      21.865   4.094  48.864  1.00  0.00    -0.388 OA
HETATM   24  C6  UNL     1      21.504   5.245  48.163  1.00  0.00     0.198 C 
HETATM   25  C7  UNL     1      21.860   6.425  49.014  1.00  0.00     0.298 C 
ENDBRANCH  19  20
ENDBRANCH  18  19
ENDBRANCH  16  18
ENDBRANCH  14  16
ENDBRANCH  12  14
ENDBRANCH   1  12
BRANCH   7  26
HETATM   26  C14 UNL     1      26.662  -0.558  53.830  1.00  0.00     0.058 A 
HETATM   27  C15 UNL     1      27.432  -1.538  53.237  1.00  0.00     0.031 A 
HETATM   28  C16 UNL     1      28.803  -1.489  53.083  1.00  0.00     0.004 A 
HETATM   29  C17 UNL     1      29.476  -0.373  53.554  1.00  0.00     0.019 A 
HETATM   30  C18 UNL     1      28.747   0.618  54.146  1.00  0.00     0.013 A 
HETATM   31 BR1  UNL     1      29.792   2.108  54.755  1.00  0.00    -0.051 Br
HETATM   32  C19 UNL     1      27.377   0.544  54.289  1.00  0.00     0.050 A 
ENDBRANCH   7  26
TORSDOF 7
ENDMDL
MODEL 9
REMARK VINA RESULT:      -7.3      4.339      8.311
REMARK  7 active torsions:
REMARK  status: ('A' for Active; 'I' for Inactive)
REMARK    1  A    between atoms: C1_2  and  N1_3 
REMARK    2  A    between atoms: C1_2  and  N3_12 
REMARK    3  A    between atoms: N1_3  and  C2_4 
REMARK    4  A    between atoms: C2_4  and  C3_5 
REMARK    5  A    between atoms: C3_5  and  N2_6 
REMARK    6  A    between atoms: N3_12  and  C8_13 
REMARK    7  A    between atoms: N4_19  and  C14_20 
ROOT
HETATM    1  C8  UNL     1      24.125   6.876  50.984  1.00  0.00     0.036 A 
HETATM    2  C9  UNL     1      22.978   7.619  50.712  1.00  0.00     0.032 A 
HETATM    3  C10 UNL     1      22.871   8.489  49.645  1.00  0.00     0.036 A 
HETATM    4  C11 UNL     1      23.952   8.632  48.801  1.00  0.00     0.087 A 
HETATM    5  C12 UNL     1      25.083   7.897  49.069  1.00  0.00     0.087 A 
HETATM    6  C13 UNL     1      25.200   7.028  50.132  1.00  0.00     0.063 A 
HETATM    7  N4  UNL     1      26.258   7.969  48.279  1.00  0.00    -0.253 N 
HETATM    8  N5  UNL     1      26.221   8.856  47.169  1.00  0.00    -0.287 N 
HETATM    9  C20 UNL     1      25.020   9.616  46.913  1.00  0.00     0.224 A 
HETATM   10  N6  UNL     1      23.984   9.504  47.670  1.00  0.00    -0.240 NA
HETATM   11  H22 UNL     1      26.956   9.081  46.447  1.00  0.00     0.188 HD
ENDROOT
BRANCH   1  12
HETATM   12  N3  UNL     1      24.131   6.007  52.118  1.00  0.00    -0.333 N 
HETATM   13  H14 UNL     1      24.354   6.777  52.807  1.00  0.00     0.168 HD
BRANCH  12  14
HETATM   14  C1  UNL     1      23.893   4.605  52.116  1.00  0.00     0.172 C 
HETATM   15  S1  UNL     1      22.292   4.234  52.123  1.00  0.00    -0.041 SA
BRANCH  14  16
HETATM   16  N1  UNL     1      24.855   3.566  52.110  1.00  0.00    -0.365 N 
HETATM   17  H1  UNL     1      25.691   3.672  51.501  1.00  0.00     0.161 HD
BRANCH  16  18
HETATM   18  C2  UNL     1      24.761   2.356  52.898  1.00  0.00     0.152 C 
BRANCH  18  19
HETATM   19  C3  UNL     1      26.029   2.153  53.687  1.00  0.00     0.292 C 
BRANCH  19  20
HETATM   20  N2  UNL     1      27.115   1.590  52.925  1.00  0.00     0.094 N 
HETATM   21  C4  UNL     1      26.782   0.308  52.421  1.00  0.00     0.298 C 
HETATM   22  C5  UNL     1      27.460  -0.852  53.069  1.00  0.00     0.198 C 
HETATM   23  O1  UNL     1      28.090  -0.530  54.263  1.00  0.00    -0.388 OA
HETATM   24  C6  UNL     1      29.048   0.431  53.938  1.00  0.00     0.198 C 
HETATM   25  C7  UNL     1      28.327   1.713  53.658  1.00  0.00     0.298 C 
ENDBRANCH  19  20
ENDBRANCH  18  19
ENDBRANCH  16  18
ENDBRANCH  14  16
ENDBRANCH  12  14
ENDBRANCH   1  12
BRANCH   7  26
HETATM   26  C14 UNL     1      27.478   7.282  48.337  1.00  0.00     0.058 A 
HETATM   27  C15 UNL     1      27.663   5.918  48.234  1.00  0.00     0.031 A 
HETATM   28  C16 UNL     1      28.880   5.272  48.314  1.00  0.00     0.004 A 
HETATM   29  C17 UNL     1      30.018   6.038  48.512  1.00  0.00     0.019 A 
HETATM   30  C18 UNL     1      29.874   7.390  48.618  1.00  0.00     0.013 A 
HETATM   31 BR1  UNL     1      31.521   8.340  48.888  1.00  0.00    -0.051 Br
HETATM   32  C19 UNL     1      28.646   8.013  48.535  1.00  0.00     0.050 A 
ENDBRANCH   7  26
TORSDOF 7
ENDMDL
