MODEL 1
REMARK VINA RESULT:      -8.6      0.000      0.000
REMARK  3 active torsions:
REMARK  status: ('A' for Active; 'I' for Inactive)
REMARK    1  A    between atoms: N1_2  and  N2_3 
REMARK    2  A    between atoms: N2_3  and  C2_4 
REMARK    3  A    between atoms: C10_12  and  C11_13 
ROOT
HETATM    1  C2  UNL     1      25.707   6.124  49.288  1.00  0.00     0.104 C 
HETATM    2  C3  UNL     1      24.429   5.825  49.617  1.00  0.00    -0.060 C 
HETATM    3  C4  UNL     1      23.987   6.706  50.680  1.00  0.00     0.036 C 
HETATM    4  C5  UNL     1      23.838   6.296  52.085  1.00  0.00     0.005 C 
HETATM    5  C6  UNL     1      23.000   5.102  52.340  1.00  0.00     0.008 C 
HETATM    6  C7  UNL     1      23.743   3.822  52.412  1.00  0.00     0.021 C 
HETATM    7  C8  UNL     1      24.346   2.622  52.317  1.00  0.00     0.056 A 
HETATM    8  C9  UNL     1      25.196   1.452  52.687  1.00  0.00    -0.041 A 
HETATM    9  C10 UNL     1      26.422   1.517  53.168  1.00  0.00     0.015 C 
HETATM   10  C17 UNL     1      23.847   1.111  52.167  1.00  0.00     0.139 A 
HETATM   11  N3  UNL     1      24.260   1.912  51.035  1.00  0.00    -0.296 N 
HETATM   12  C18 UNL     1      24.722   2.905  50.128  1.00  0.00     0.092 C 
HETATM   13  C19 UNL     1      23.536   3.491  49.388  1.00  0.00     0.023 C 
HETATM   14  C20 UNL     1      23.932   4.756  48.690  1.00  0.00     0.013 C 
HETATM   15  C21 UNL     1      22.714   5.345  47.982  1.00  0.00     0.015 C 
ENDROOT
BRANCH   9  16
HETATM   16  C11 UNL     1      27.190   0.333  53.506  1.00  0.00    -0.036 C 
HETATM   17  C12 UNL     1      26.721  -0.827  53.084  1.00  0.00     0.141 C 
HETATM   18  O1  UNL     1      27.244  -2.100  53.260  1.00  0.00    -0.362 OA
HETATM   19  C13 UNL     1      28.558  -2.569  53.033  1.00  0.00     0.174 C 
HETATM   20  C14 UNL     1      29.491  -1.390  53.155  1.00  0.00     0.027 C 
HETATM   21  C15 UNL     1      29.301  -0.625  54.426  1.00  0.00     0.007 C 
HETATM   22  C16 UNL     1      28.439   0.573  54.312  1.00  0.00     0.040 C 
ENDBRANCH   9  16
BRANCH   1  23
HETATM   23  N2  UNL     1      26.458   7.138  49.904  1.00  0.00    -0.333 N 
HETATM   24  H5  UNL     1      26.616   7.839  50.665  1.00  0.00     0.179 HD
BRANCH  23  25
HETATM   25  N1  UNL     1      27.666   7.742  49.553  1.00  0.00    -0.245 NA
HETATM   26  C1  UNL     1      27.713   9.153  49.900  1.00  0.00     0.132 C 
HETATM   27  H4  UNL     1      28.491   7.218  49.968  1.00  0.00     0.145 HD
ENDBRANCH  23  25
ENDBRANCH   1  23
TORSDOF 3
ENDMDL
MODEL 2
REMARK VINA RESULT:      -8.3      2.275      4.505
REMARK  3 active torsions:
REMARK  status: ('A' for Active; 'I' for Inactive)
REMARK    1  A    between atoms: N1_2  and  N2_3 
REMARK    2  A    between atoms: N2_3  and  C2_4 
REMARK    3  A    between atoms: C10_12  and  C11_13 
ROOT
HETATM    1  C2  UNL     1      20.534   3.595  52.075  1.00  0.00     0.104 C 
HETATM    2  C3  UNL     1      21.201   4.198  51.063  1.00  0.00    -0.060 C 
HETATM    3  C4  UNL     1      20.814   3.593  49.804  1.00  0.00     0.036 C 
HETATM    4  C5  UNL     1      21.659   2.661  49.040  1.00  0.00     0.005 C 
HETATM    5  C6  UNL     1      23.030   3.120  48.724  1.00  0.00     0.008 C 
HETATM    6  C7  UNL     1      24.067   2.709  49.699  1.00  0.00     0.021 C 
HETATM    7  C8  UNL     1      25.011   2.506  50.638  1.00  0.00     0.056 A 
HETATM    8  C9  UNL     1      26.013   1.789  51.478  1.00  0.00    -0.041 A 
HETATM    9  C10 UNL     1      25.823   0.627  52.075  1.00  0.00     0.015 C 
HETATM   10  C17 UNL     1      26.474   3.085  50.918  1.00  0.00     0.139 A 
HETATM   11  N3  UNL     1      25.292   3.602  51.573  1.00  0.00    -0.296 N 
HETATM   12  C18 UNL     1      23.990   3.898  52.064  1.00  0.00     0.092 C 
HETATM   13  C19 UNL     1      23.489   5.168  51.406  1.00  0.00     0.023 C 
HETATM   14  C20 UNL     1      22.016   5.323  51.627  1.00  0.00     0.013 C 
HETATM   15  C21 UNL     1      21.529   6.589  50.926  1.00  0.00     0.015 C 
ENDROOT
BRANCH   9  16
HETATM   16  C11 UNL     1      26.848  -0.012  52.879  1.00  0.00    -0.036 C 
HETATM   17  C12 UNL     1      27.104  -1.283  52.628  1.00  0.00     0.141 C 
HETATM   18  O1  UNL     1      28.021  -2.129  53.235  1.00  0.00    -0.362 OA
HETATM   19  C13 UNL     1      29.394  -1.923  53.496  1.00  0.00     0.174 C 
HETATM   20  C14 UNL     1      29.623  -0.436  53.591  1.00  0.00     0.027 C 
HETATM   21  C15 UNL     1      28.689   0.239  54.544  1.00  0.00     0.007 C 
HETATM   22  C16 UNL     1      27.500   0.861  53.920  1.00  0.00     0.040 C 
ENDBRANCH   9  16
BRANCH   1  23
HETATM   23  N2  UNL     1      19.616   2.548  51.894  1.00  0.00    -0.333 N 
HETATM   24  H5  UNL     1      18.714   2.161  51.532  1.00  0.00     0.179 HD
BRANCH  23  25
HETATM   25  N1  UNL     1      19.643   1.211  52.297  1.00  0.00    -0.245 NA
HETATM   26  C1  UNL     1      20.942   0.589  52.098  1.00  0.00     0.132 C 
HETATM   27  H4  UNL     1      19.319   1.108  53.303  1.00  0.00     0.145 HD
ENDBRANCH  23  25
ENDBRANCH   1  23
TORSDOF 3
ENDMDL
MODEL 3
REMARK VINA RESULT:      -8.0      3.804      4.716
REMARK  3 active torsions:
REMARK  status: ('A' for Active; 'I' for Inactive)
REMARK    1  A    between atoms: N1_2  and  N2_3 
REMARK    2  A    between atoms: N2_3  and  C2_4 
REMARK    3  A    between atoms: C10_12  and  C11_13 
ROOT
HETATM    1  C2  UNL     1      20.397   2.203  48.275  1.00  0.00     0.104 C 
HETATM    2  C3  UNL     1      19.781   2.228  49.479  1.00  0.00    -0.060 C 
HETATM    3  C4  UNL     1      19.544   3.604  49.869  1.00  0.00     0.036 C 
HETATM    4  C5  UNL     1      20.321   4.319  50.895  1.00  0.00     0.005 C 
HETATM    5  C6  UNL     1      20.429   3.664  52.218  1.00  0.00     0.008 C 
HETATM    6  C7  UNL     1      21.631   2.817  52.400  1.00  0.00     0.021 C 
HETATM    7  C8  UNL     1      22.612   1.908  52.553  1.00  0.00     0.056 A 
HETATM    8  C9  UNL     1      23.982   1.352  52.754  1.00  0.00    -0.041 A 
HETATM    9  C10 UNL     1      25.069   1.739  52.115  1.00  0.00     0.015 C 
HETATM   10  C17 UNL     1      22.924   0.742  53.600  1.00  0.00     0.139 A 
HETATM   11  N3  UNL     1      22.278   0.497  52.330  1.00  0.00    -0.296 N 
HETATM   12  C18 UNL     1      21.681   0.546  51.039  1.00  0.00     0.092 C 
HETATM   13  C19 UNL     1      20.177   0.429  51.184  1.00  0.00     0.023 C 
HETATM   14  C20 UNL     1      19.500   0.818  49.906  1.00  0.00     0.013 C 
HETATM   15  C21 UNL     1      17.986   0.727  50.087  1.00  0.00     0.015 C 
ENDROOT
BRANCH   9  16
HETATM   16  C11 UNL     1      26.371   1.150  52.365  1.00  0.00    -0.036 C 
HETATM   17  C12 UNL     1      27.380   1.981  52.555  1.00  0.00     0.141 C 
HETATM   18  O1  UNL     1      28.714   1.696  52.810  1.00  0.00    -0.362 OA
HETATM   19  C13 UNL     1      29.276   0.823  53.769  1.00  0.00     0.174 C 
HETATM   20  C14 UNL     1      28.247  -0.233  54.085  1.00  0.00     0.027 C 
HETATM   21  C15 UNL     1      27.702  -0.900  52.863  1.00  0.00     0.007 C 
HETATM   22  C16 UNL     1      26.415  -0.356  52.373  1.00  0.00     0.040 C 
ENDBRANCH   9  16
BRANCH   1  23
HETATM   23  N2  UNL     1      20.738   3.353  47.545  1.00  0.00    -0.333 N 
HETATM   24  H5  UNL     1      21.147   4.313  47.469  1.00  0.00     0.179 HD
BRANCH  23  25
HETATM   25  N1  UNL     1      20.564   3.683  46.199  1.00  0.00    -0.245 NA
HETATM   26  C1  UNL     1      21.823   3.788  45.479  1.00  0.00     0.132 C 
HETATM   27  H4  UNL     1      19.904   3.003  45.720  1.00  0.00     0.145 HD
ENDBRANCH  23  25
ENDBRANCH   1  23
TORSDOF 3
ENDMDL
MODEL 4
REMARK VINA RESULT:      -7.9      3.238      5.805
REMARK  3 active torsions:
REMARK  status: ('A' for Active; 'I' for Inactive)
REMARK    1  A    between atoms: N1_2  and  N2_3 
REMARK    2  A    between atoms: N2_3  and  C2_4 
REMARK    3  A    between atoms: C10_12  and  C11_13 
ROOT
HETATM    1  C2  UNL     1      19.303   1.758  52.045  1.00  0.00     0.104 C 
HETATM    2  C3  UNL     1      19.700   2.472  50.966  1.00  0.00    -0.060 C 
HETATM    3  C4  UNL     1      19.637   1.633  49.785  1.00  0.00     0.036 C 
HETATM    4  C5  UNL     1      20.814   1.054  49.118  1.00  0.00     0.005 C 
HETATM    5  C6  UNL     1      21.889   1.998  48.737  1.00  0.00     0.008 C 
HETATM    6  C7  UNL     1      22.969   2.152  49.739  1.00  0.00     0.021 C 
HETATM    7  C8  UNL     1      23.881   2.452  50.684  1.00  0.00     0.056 A 
HETATM    8  C9  UNL     1      25.059   2.299  51.586  1.00  0.00    -0.041 A 
HETATM    9  C10 UNL     1      25.339   1.230  52.308  1.00  0.00     0.015 C 
HETATM   10  C17 UNL     1      24.970   3.604  50.882  1.00  0.00     0.139 A 
HETATM   11  N3  UNL     1      23.659   3.657  51.490  1.00  0.00    -0.296 N 
HETATM   12  C18 UNL     1      22.334   3.445  51.961  1.00  0.00     0.092 C 
HETATM   13  C19 UNL     1      21.381   4.323  51.174  1.00  0.00     0.023 C 
HETATM   14  C20 UNL     1      19.966   3.884  51.394  1.00  0.00     0.013 C 
HETATM   15  C21 UNL     1      19.030   4.760  50.564  1.00  0.00     0.015 C 
ENDROOT
BRANCH   9  16
HETATM   16  C11 UNL     1      26.508   1.155  53.166  1.00  0.00    -0.036 C 
HETATM   17  C12 UNL     1      26.597   0.108  53.967  1.00  0.00     0.141 C 
HETATM   18  O1  UNL     1      27.592  -0.215  54.878  1.00  0.00    -0.362 OA
HETATM   19  C13 UNL     1      28.994  -0.254  54.700  1.00  0.00     0.174 C 
HETATM   20  C14 UNL     1      29.336   0.685  53.571  1.00  0.00     0.027 C 
HETATM   21  C15 UNL     1      28.759   2.052  53.753  1.00  0.00     0.007 C 
HETATM   22  C16 UNL     1      27.484   2.294  53.041  1.00  0.00     0.040 C 
ENDBRANCH   9  16
BRANCH   1  23
HETATM   23  N2  UNL     1      18.899   0.415  51.990  1.00  0.00    -0.333 N 
HETATM   24  H5  UNL     1      19.084  -0.600  51.815  1.00  0.00     0.179 HD
BRANCH  23  25
HETATM   25  N1  UNL     1      17.669  -0.196  52.246  1.00  0.00    -0.245 NA
HETATM   26  C1  UNL     1      17.802  -1.444  52.978  1.00  0.00     0.132 C 
HETATM   27  H4  UNL     1      17.007   0.471  52.741  1.00  0.00     0.145 HD
ENDBRANCH  23  25
ENDBRANCH   1  23
TORSDOF 3
ENDMDL
MODEL 5
REMARK VINA RESULT:      -7.8      1.763      2.264
REMARK  3 active torsions:
REMARK  status: ('A' for Active; 'I' for Inactive)
REMARK    1  A    between atoms: N1_2  and  N2_3 
REMARK    2  A    between atoms: N2_3  and  C2_4 
REMARK    3  A    between atoms: C10_12  and  C11_13 
ROOT
HETATM    1  C2  UNL     1      23.224   5.049  48.383  1.00  0.00     0.104 C 
HETATM    2  C3  UNL     1      22.159   4.432  48.946  1.00  0.00    -0.060 C 
HETATM    3  C4  UNL     1      21.436   5.379  49.772  1.00  0.00     0.036 C 
HETATM    4  C5  UNL     1      21.477   5.392  51.243  1.00  0.00     0.005 C 
HETATM    5  C6  UNL     1      21.156   4.118  51.925  1.00  0.00     0.008 C 
HETATM    6  C7  UNL     1      22.328   3.271  52.250  1.00  0.00     0.021 C 
HETATM    7  C8  UNL     1      23.337   2.395  52.413  1.00  0.00     0.056 A 
HETATM    8  C9  UNL     1      24.571   1.775  52.978  1.00  0.00    -0.041 A 
HETATM    9  C10 UNL     1      25.691   2.413  53.257  1.00  0.00     0.015 C 
HETATM   10  C17 UNL     1      23.442   0.837  52.753  1.00  0.00     0.139 A 
HETATM   11  N3  UNL     1      23.502   1.346  51.400  1.00  0.00    -0.296 N 
HETATM   12  C18 UNL     1      23.540   2.111  50.202  1.00  0.00     0.092 C 
HETATM   13  C19 UNL     1      22.208   1.983  49.490  1.00  0.00     0.023 C 
HETATM   14  C20 UNL     1      22.085   3.028  48.424  1.00  0.00     0.013 C 
HETATM   15  C21 UNL     1      20.722   2.901  47.746  1.00  0.00     0.015 C 
ENDROOT
BRANCH   9  16
HETATM   16  C11 UNL     1      26.855   1.741  53.806  1.00  0.00    -0.036 C 
HETATM   17  C12 UNL     1      26.682   0.510  54.251  1.00  0.00     0.141 C 
HETATM   18  O1  UNL     1      27.608  -0.355  54.818  1.00  0.00    -0.362 OA
HETATM   19  C13 UNL     1      28.892  -0.721  54.356  1.00  0.00     0.174 C 
HETATM   20  C14 UNL     1      29.402   0.401  53.486  1.00  0.00     0.027 C 
HETATM   21  C15 UNL     1      29.325   1.737  54.152  1.00  0.00     0.007 C 
HETATM   22  C16 UNL     1      28.131   2.541  53.807  1.00  0.00     0.040 C 
ENDBRANCH   9  16
BRANCH   1  23
HETATM   23  N2  UNL     1      23.547   6.399  48.592  1.00  0.00    -0.333 N 
HETATM   24  H5  UNL     1      23.340   7.422  48.518  1.00  0.00     0.179 HD
BRANCH  23  25
HETATM   25  N1  UNL     1      24.660   7.007  49.177  1.00  0.00    -0.245 NA
HETATM   26  C1  UNL     1      25.903   6.318  48.872  1.00  0.00     0.132 C 
HETATM   27  H4  UNL     1      24.717   8.035  48.914  1.00  0.00     0.145 HD
ENDBRANCH  23  25
ENDBRANCH   1  23
TORSDOF 3
ENDMDL
MODEL 6
REMARK VINA RESULT:      -7.8      2.476      3.450
REMARK  3 active torsions:
REMARK  status: ('A' for Active; 'I' for Inactive)
REMARK    1  A    between atoms: N1_2  and  N2_3 
REMARK    2  A    between atoms: N2_3  and  C2_4 
REMARK    3  A    between atoms: C10_12  and  C11_13 
ROOT
HETATM    1  C2  UNL     1      26.031   6.755  48.680  1.00  0.00     0.104 C 
HETATM    2  C3  UNL     1      24.721   7.091  48.634  1.00  0.00    -0.060 C 
HETATM    3  C4  UNL     1      24.461   8.149  49.590  1.00  0.00     0.036 C 
HETATM    4  C5  UNL     1      23.773   7.950  50.876  1.00  0.00     0.005 C 
HETATM    5  C6  UNL     1      22.451   7.286  50.822  1.00  0.00     0.008 C 
HETATM    6  C7  UNL     1      22.482   5.817  51.012  1.00  0.00     0.021 C 
HETATM    7  C8  UNL     1      22.475   4.470  51.010  1.00  0.00     0.056 A 
HETATM    8  C9  UNL     1      22.567   3.072  51.523  1.00  0.00    -0.041 A 
HETATM    9  C10 UNL     1      23.511   2.608  52.319  1.00  0.00     0.015 C 
HETATM   10  C17 UNL     1      21.404   3.344  50.638  1.00  0.00     0.139 A 
HETATM   11  N3  UNL     1      22.421   3.789  49.711  1.00  0.00    -0.296 N 
HETATM   12  C18 UNL     1      23.507   4.399  49.025  1.00  0.00     0.092 C 
HETATM   13  C19 UNL     1      22.963   5.405  48.030  1.00  0.00     0.023 C 
HETATM   14  C20 UNL     1      24.060   6.301  47.544  1.00  0.00     0.013 C 
HETATM   15  C21 UNL     1      23.481   7.327  46.571  1.00  0.00     0.015 C 
ENDROOT
BRANCH   9  16
HETATM   16  C11 UNL     1      23.535   1.232  52.778  1.00  0.00    -0.036 C 
HETATM   17  C12 UNL     1      24.605   0.840  53.446  1.00  0.00     0.141 C 
HETATM   18  O1  UNL     1      24.890  -0.402  53.994  1.00  0.00    -0.362 OA
HETATM   19  C13 UNL     1      24.093  -1.218  54.829  1.00  0.00     0.174 C 
HETATM   20  C14 UNL     1      22.650  -0.866  54.567  1.00  0.00     0.027 C 
HETATM   21  C15 UNL     1      22.293  -0.905  53.116  1.00  0.00     0.007 C 
HETATM   22  C16 UNL     1      22.325   0.405  52.428  1.00  0.00     0.040 C 
ENDBRANCH   9  16
BRANCH   1  23
HETATM   23  N2  UNL     1      26.965   7.360  49.537  1.00  0.00    -0.333 N 
HETATM   24  H5  UNL     1      27.250   7.756  50.463  1.00  0.00     0.179 HD
BRANCH  23  25
HETATM   25  N1  UNL     1      28.284   7.769  49.331  1.00  0.00    -0.245 NA
HETATM   26  C1  UNL     1      28.454   9.207  49.461  1.00  0.00     0.132 C 
HETATM   27  H4  UNL     1      28.951   7.245  49.970  1.00  0.00     0.145 HD
ENDBRANCH  23  25
ENDBRANCH   1  23
TORSDOF 3
ENDMDL
MODEL 7
REMARK VINA RESULT:      -7.7      4.619      7.354
REMARK  3 active torsions:
REMARK  status: ('A' for Active; 'I' for Inactive)
REMARK    1  A    between atoms: N1_2  and  N2_3 
REMARK    2  A    between atoms: N2_3  and  C2_4 
REMARK    3  A    between atoms: C10_12  and  C11_13 
ROOT
HETATM    1  C2  UNL     1      20.603   2.081  53.004  1.00  0.00     0.104 C 
HETATM    2  C3  UNL     1      19.974   2.150  51.807  1.00  0.00    -0.060 C 
HETATM    3  C4  UNL     1      20.007   0.848  51.171  1.00  0.00     0.036 C 
HETATM    4  C5  UNL     1      20.885   0.501  50.042  1.00  0.00     0.005 C 
HETATM    5  C6  UNL     1      20.826   1.391  48.861  1.00  0.00     0.008 C 
HETATM    6  C7  UNL     1      21.830   2.481  48.850  1.00  0.00     0.021 C 
HETATM    7  C8  UNL     1      22.605   3.582  48.876  1.00  0.00     0.056 A 
HETATM    8  C9  UNL     1      23.831   4.429  48.795  1.00  0.00    -0.041 A 
HETATM    9  C10 UNL     1      24.989   4.159  49.366  1.00  0.00     0.015 C 
HETATM   10  C17 UNL     1      22.651   4.956  48.061  1.00  0.00     0.139 A 
HETATM   11  N3  UNL     1      22.002   4.833  49.348  1.00  0.00    -0.296 N 
HETATM   12  C18 UNL     1      21.460   4.433  50.601  1.00  0.00     0.092 C 
HETATM   13  C19 UNL     1      19.959   4.269  50.463  1.00  0.00     0.023 C 
HETATM   14  C20 UNL     1      19.406   3.528  51.641  1.00  0.00     0.013 C 
HETATM   15  C21 UNL     1      17.901   3.344  51.461  1.00  0.00     0.015 C 
ENDROOT
BRANCH   9  16
HETATM   16  C11 UNL     1      26.141   5.034  49.242  1.00  0.00    -0.036 C 
HETATM   17  C12 UNL     1      27.291   4.471  48.919  1.00  0.00     0.141 C 
HETATM   18  O1  UNL     1      28.534   5.059  48.735  1.00  0.00    -0.362 OA
HETATM   19  C13 UNL     1      28.887   6.184  47.956  1.00  0.00     0.174 C 
HETATM   20  C14 UNL     1      27.659   7.050  47.823  1.00  0.00     0.027 C 
HETATM   21  C15 UNL     1      27.022   7.365  49.138  1.00  0.00     0.007 C 
HETATM   22  C16 UNL     1      25.883   6.494  49.506  1.00  0.00     0.040 C 
ENDBRANCH   9  16
BRANCH   1  23
HETATM   23  N2  UNL     1      21.185   0.911  53.517  1.00  0.00    -0.333 N 
HETATM   24  H5  UNL     1      21.938   0.184  53.536  1.00  0.00     0.179 HD
BRANCH  23  25
HETATM   25  N1  UNL     1      20.781   0.041  54.531  1.00  0.00    -0.245 NA
HETATM   26  C1  UNL     1      21.818  -0.905  54.908  1.00  0.00     0.132 C 
HETATM   27  H4  UNL     1      20.425   0.577  55.376  1.00  0.00     0.145 HD
ENDBRANCH  23  25
ENDBRANCH   1  23
TORSDOF 3
ENDMDL
MODEL 8
REMARK VINA RESULT:      -7.4      6.130      9.168
REMARK  3 active torsions:
REMARK  status: ('A' for Active; 'I' for Inactive)
REMARK    1  A    between atoms: N1_2  and  N2_3 
REMARK    2  A    between atoms: N2_3  and  C2_4 
REMARK    3  A    between atoms: C10_12  and  C11_13 
ROOT
HETATM    1  C2  UNL     1      23.114   3.396  52.540  1.00  0.00     0.104 C 
HETATM    2  C3  UNL     1      23.125   2.178  51.950  1.00  0.00    -0.060 C 
HETATM    3  C4  UNL     1      23.409   2.330  50.537  1.00  0.00     0.036 C 
HETATM    4  C5  UNL     1      22.402   2.202  49.472  1.00  0.00     0.005 C 
HETATM    5  C6  UNL     1      21.601   0.957  49.466  1.00  0.00     0.008 C 
HETATM    6  C7  UNL     1      20.312   1.039  50.192  1.00  0.00     0.021 C 
HETATM    7  C8  UNL     1      19.218   1.014  50.977  1.00  0.00     0.056 A 
HETATM    8  C9  UNL     1      17.826   1.281  51.442  1.00  0.00    -0.041 A 
HETATM    9  C10 UNL     1      17.226   2.456  51.429  1.00  0.00     0.015 C 
HETATM   10  C17 UNL     1      18.269  -0.132  51.560  1.00  0.00     0.139 A 
HETATM   11  N3  UNL     1      19.355   0.444  52.322  1.00  0.00    -0.296 N 
HETATM   12  C18 UNL     1      20.460   1.180  52.832  1.00  0.00     0.092 C 
HETATM   13  C19 UNL     1      21.695   0.302  52.807  1.00  0.00     0.023 C 
HETATM   14  C20 UNL     1      22.927   1.130  53.005  1.00  0.00     0.013 C 
HETATM   15  C21 UNL     1      24.158   0.229  52.940  1.00  0.00     0.015 C 
ENDROOT
BRANCH   9  16
HETATM   16  C11 UNL     1      15.865   2.641  51.899  1.00  0.00    -0.036 C 
HETATM   17  C12 UNL     1      15.595   3.771  52.527  1.00  0.00     0.141 C 
HETATM   18  O1  UNL     1      14.395   4.205  53.073  1.00  0.00    -0.362 OA
HETATM   19  C13 UNL     1      13.107   4.240  52.493  1.00  0.00     0.174 C 
HETATM   20  C14 UNL     1      13.062   3.185  51.416  1.00  0.00     0.027 C 
HETATM   21  C15 UNL     1      13.503   1.840  51.899  1.00  0.00     0.007 C 
HETATM   22  C16 UNL     1      14.917   1.506  51.615  1.00  0.00     0.040 C 
ENDBRANCH   9  16
BRANCH   1  23
HETATM   23  N2  UNL     1      23.347   4.599  51.856  1.00  0.00    -0.333 N 
HETATM   24  H5  UNL     1      23.299   5.202  51.002  1.00  0.00     0.179 HD
BRANCH  23  25
HETATM   25  N1  UNL     1      23.937   5.798  52.262  1.00  0.00    -0.245 NA
HETATM   26  C1  UNL     1      24.161   6.718  51.158  1.00  0.00     0.132 C 
HETATM   27  H4  UNL     1      23.374   6.259  53.036  1.00  0.00     0.145 HD
ENDBRANCH  23  25
ENDBRANCH   1  23
TORSDOF 3
ENDMDL
MODEL 9
REMARK VINA RESULT:      -7.3      7.472     10.807
REMARK  3 active torsions:
REMARK  status: ('A' for Active; 'I' for Inactive)
REMARK    1  A    between atoms: N1_2  and  N2_3 
REMARK    2  A    between atoms: N2_3  and  C2_4 
REMARK    3  A    between atoms: C10_12  and  C11_13 
ROOT
HETATM    1  C2  UNL     1      20.680   0.398  52.235  1.00  0.00     0.104 C 
HETATM    2  C3  UNL     1      20.826   1.354  51.289  1.00  0.00    -0.060 C 
HETATM    3  C4  UNL     1      21.588   2.459  51.835  1.00  0.00     0.036 C 
HETATM    4  C5  UNL     1      21.004   3.751  52.231  1.00  0.00     0.005 C 
HETATM    5  C6  UNL     1      20.188   4.447  51.211  1.00  0.00     0.008 C 
HETATM    6  C7  UNL     1      18.734   4.168  51.278  1.00  0.00     0.021 C 
HETATM    7  C8  UNL     1      17.437   3.817  51.192  1.00  0.00     0.056 A 
HETATM    8  C9  UNL     1      15.987   3.733  51.532  1.00  0.00    -0.041 A 
HETATM    9  C10 UNL     1      15.493   3.503  52.734  1.00  0.00     0.015 C 
HETATM   10  C17 UNL     1      16.283   4.003  50.102  1.00  0.00     0.139 A 
HETATM   11  N3  UNL     1      17.070   2.794  50.206  1.00  0.00    -0.296 N 
HETATM   12  C18 UNL     1      17.970   1.743  50.537  1.00  0.00     0.092 C 
HETATM   13  C19 UNL     1      19.088   1.707  49.514  1.00  0.00     0.023 C 
HETATM   14  C20 UNL     1      20.219   0.861  50.009  1.00  0.00     0.013 C 
HETATM   15  C21 UNL     1      21.346   0.869  48.978  1.00  0.00     0.015 C 
ENDROOT
BRANCH   9  16
HETATM   16  C11 UNL     1      14.066   3.435  52.990  1.00  0.00    -0.036 C 
HETATM   17  C12 UNL     1      13.396   2.462  52.399  1.00  0.00     0.141 C 
HETATM   18  O1  UNL     1      12.042   2.164  52.466  1.00  0.00    -0.362 OA
HETATM   19  C13 UNL     1      11.210   2.024  53.600  1.00  0.00     0.174 C 
HETATM   20  C14 UNL     1      11.820   2.835  54.717  1.00  0.00     0.027 C 
HETATM   21  C15 UNL     1      12.117   4.245  54.319  1.00  0.00     0.007 C 
HETATM   22  C16 UNL     1      13.516   4.497  53.904  1.00  0.00     0.040 C 
ENDBRANCH   9  16
BRANCH   1  23
HETATM   23  N2  UNL     1      21.200   0.497  53.536  1.00  0.00    -0.333 N 
HETATM   24  H5  UNL     1      21.829   0.933  54.250  1.00  0.00     0.179 HD
BRANCH  23  25
HETATM   25  N1  UNL     1      20.939  -0.232  54.698  1.00  0.00    -0.245 NA
HETATM   26  C1  UNL     1      21.508  -1.569  54.664  1.00  0.00     0.132 C 
HETATM   27  H4  UNL     1      21.256   0.298  55.562  1.00  0.00     0.145 HD
ENDBRANCH  23  25
ENDBRANCH   1  23
TORSDOF 3
ENDMDL
