MODEL 1
REMARK VINA RESULT:      -8.2      0.000      0.000
REMARK  4 active torsions:
REMARK  status: ('A' for Active; 'I' for Inactive)
REMARK    1  A    between atoms: O1_2  and  C2_3 
REMARK    2  A    between atoms: C7_10  and  N3_11 
REMARK    3  A    between atoms: N3_11  and  C8_12 
REMARK    4  A    between atoms: C12_17  and  O3_18 
ROOT
HETATM    1  C8  UNL     1      25.986   1.877  51.314  1.00  0.00     0.038 A 
HETATM    2  C9  UNL     1      24.821   1.394  51.845  1.00  0.00     0.069 A 
HETATM    3  C10 UNL     1      24.581   0.495  52.834  1.00  0.00     0.106 A 
HETATM    4  O2  UNL     1      23.773  -0.140  53.553  1.00  0.00    -0.353 OA
HETATM    5  C11 UNL     1      22.942  -0.781  54.278  1.00  0.00     0.210 C 
HETATM    6  C12 UNL     1      25.865   0.049  53.315  1.00  0.00     0.133 A 
HETATM    7  C13 UNL     1      27.243   0.361  52.969  1.00  0.00     0.106 A 
HETATM    8  O4  UNL     1      28.252  -0.140  53.506  1.00  0.00    -0.353 OA
HETATM    9  C14 UNL     1      29.298  -0.655  54.059  1.00  0.00     0.210 C 
HETATM   10  C15 UNL     1      27.046   1.297  51.943  1.00  0.00     0.069 A 
ENDROOT
BRANCH   6  11
HETATM   11  O3  UNL     1      25.946  -0.931  54.388  1.00  0.00    -0.356 OA
HETATM   12  H12 UNL     1      25.958  -1.921  54.091  1.00  0.00     0.218 HD
ENDBRANCH   6  11
BRANCH   1  13
HETATM   13  N3  UNL     1      26.090   2.905  50.331  1.00  0.00    -0.343 N 
HETATM   14  H7  UNL     1      26.918   2.784  49.698  1.00  0.00     0.167 HD
BRANCH  13  15
HETATM   15  C7  UNL     1      25.261   4.019  50.118  1.00  0.00     0.126 A 
HETATM   16  N2  UNL     1      24.530   5.031  49.915  1.00  0.00    -0.301 N 
HETATM   17  C6  UNL     1      23.637   5.817  49.885  1.00  0.00     0.213 A 
HETATM   18  C16 UNL     1      26.088   4.901  49.343  1.00  0.00     0.163 A 
HETATM   19  N1  UNL     1      24.504   6.603  49.164  1.00  0.00    -0.245 NA
HETATM   20  C5  UNL     1      25.774   6.185  48.856  1.00  0.00     0.076 A 
HETATM   21  C4  UNL     1      26.565   7.133  48.157  1.00  0.00     0.033 A 
HETATM   22  C3  UNL     1      27.833   6.727  47.919  1.00  0.00     0.038 A 
HETATM   23  C2  UNL     1      28.398   5.534  48.274  1.00  0.00     0.067 A 
HETATM   24  C17 UNL     1      27.457   4.732  48.959  1.00  0.00     0.056 A 
BRANCH  23  25
HETATM   25  O1  UNL     1      29.622   4.984  48.123  1.00  0.00    -0.356 OA
HETATM   26  C1  UNL     1      30.833   5.636  47.961  1.00  0.00     0.210 C 
ENDBRANCH  23  25
ENDBRANCH  13  15
ENDBRANCH   1  13
TORSDOF 4
ENDMDL
MODEL 2
REMARK VINA RESULT:      -8.2      2.749      8.275
REMARK  4 active torsions:
REMARK  status: ('A' for Active; 'I' for Inactive)
REMARK    1  A    between atoms: O1_2  and  C2_3 
REMARK    2  A    between atoms: C7_10  and  N3_11 
REMARK    3  A    between atoms: N3_11  and  C8_12 
REMARK    4  A    between atoms: C12_17  and  O3_18 
ROOT
HETATM    1  C8  UNL     1      25.244   2.662  50.990  1.00  0.00     0.038 A 
HETATM    2  C9  UNL     1      26.377   2.917  50.266  1.00  0.00     0.069 A 
HETATM    3  C10 UNL     1      26.818   4.037  49.639  1.00  0.00     0.106 A 
HETATM    4  O2  UNL     1      27.691   4.632  48.962  1.00  0.00    -0.353 OA
HETATM    5  C11 UNL     1      28.585   5.227  48.274  1.00  0.00     0.210 C 
HETATM    6  C12 UNL     1      25.819   5.055  49.848  1.00  0.00     0.133 A 
HETATM    7  C13 UNL     1      24.544   5.097  50.548  1.00  0.00     0.106 A 
HETATM    8  O4  UNL     1      23.795   6.092  50.620  1.00  0.00    -0.353 OA
HETATM    9  C14 UNL     1      23.017   7.119  50.699  1.00  0.00     0.210 C 
HETATM   10  C15 UNL     1      24.473   3.784  51.035  1.00  0.00     0.069 A 
ENDROOT
BRANCH   6  11
HETATM   11  O3  UNL     1      26.000   6.387  49.290  1.00  0.00    -0.356 OA
HETATM   12  H12 UNL     1      25.827   7.172  49.939  1.00  0.00     0.218 HD
ENDBRANCH   6  11
BRANCH   1  13
HETATM   13  N3  UNL     1      24.954   1.450  51.683  1.00  0.00    -0.343 N 
HETATM   14  H7  UNL     1      24.150   0.921  51.265  1.00  0.00     0.167 HD
BRANCH  13  15
HETATM   15  C7  UNL     1      25.579   0.901  52.815  1.00  0.00     0.126 A 
HETATM   16  N2  UNL     1      26.124   0.397  53.839  1.00  0.00    -0.301 N 
HETATM   17  C6  UNL     1      26.885   0.074  54.695  1.00  0.00     0.213 A 
HETATM   18  C16 UNL     1      24.533   0.135  53.430  1.00  0.00     0.163 A 
HETATM   19  N1  UNL     1      25.820  -0.616  55.223  1.00  0.00    -0.245 NA
HETATM   20  C5  UNL     1      24.589  -0.622  54.618  1.00  0.00     0.076 A 
HETATM   21  C4  UNL     1      23.580  -1.333  55.316  1.00  0.00     0.033 A 
HETATM   22  C3  UNL     1      22.360  -1.273  54.736  1.00  0.00     0.038 A 
HETATM   23  C2  UNL     1      22.024  -0.617  53.584  1.00  0.00     0.067 A 
HETATM   24  C17 UNL     1      23.159   0.028  53.042  1.00  0.00     0.056 A 
BRANCH  23  25
HETATM   25  O1  UNL     1      20.880  -0.455  52.886  1.00  0.00    -0.356 OA
HETATM   26  C1  UNL     1      19.581  -0.474  53.366  1.00  0.00     0.210 C 
ENDBRANCH  23  25
ENDBRANCH  13  15
ENDBRANCH   1  13
TORSDOF 4
ENDMDL
MODEL 3
REMARK VINA RESULT:      -8.1      0.357      2.467
REMARK  4 active torsions:
REMARK  status: ('A' for Active; 'I' for Inactive)
REMARK    1  A    between atoms: O1_2  and  C2_3 
REMARK    2  A    between atoms: C7_10  and  N3_11 
REMARK    3  A    between atoms: N3_11  and  C8_12 
REMARK    4  A    between atoms: C12_17  and  O3_18 
ROOT
HETATM    1  C8  UNL     1      25.870   2.055  51.348  1.00  0.00     0.038 A 
HETATM    2  C9  UNL     1      27.026   1.747  52.010  1.00  0.00     0.069 A 
HETATM    3  C10 UNL     1      27.276   0.925  53.062  1.00  0.00     0.106 A 
HETATM    4  O2  UNL     1      28.085   0.406  53.868  1.00  0.00    -0.353 OA
HETATM    5  C11 UNL     1      28.918  -0.115  54.683  1.00  0.00     0.210 C 
HETATM    6  C12 UNL     1      26.014   0.348  53.451  1.00  0.00     0.133 A 
HETATM    7  C13 UNL     1      24.649   0.470  52.964  1.00  0.00     0.106 A 
HETATM    8  O4  UNL     1      23.658  -0.120  53.442  1.00  0.00    -0.353 OA
HETATM    9  C14 UNL     1      22.631  -0.729  53.931  1.00  0.00     0.210 C 
HETATM   10  C15 UNL     1      24.831   1.379  51.911  1.00  0.00     0.069 A 
ENDROOT
BRANCH   6  11
HETATM   11  O3  UNL     1      25.947  -0.587  54.565  1.00  0.00    -0.356 OA
HETATM   12  H12 UNL     1      26.077  -1.584  54.323  1.00  0.00     0.218 HD
ENDBRANCH   6  11
BRANCH   1  13
HETATM   13  N3  UNL     1      25.770   2.871  50.182  1.00  0.00    -0.343 N 
HETATM   14  H7  UNL     1      26.383   2.541  49.397  1.00  0.00     0.167 HD
BRANCH  13  15
HETATM   15  C7  UNL     1      24.989   4.018  49.965  1.00  0.00     0.126 A 
HETATM   16  N2  UNL     1      24.303   5.061  49.759  1.00  0.00    -0.301 N 
HETATM   17  C6  UNL     1      23.438   5.877  49.709  1.00  0.00     0.213 A 
HETATM   18  C16 UNL     1      25.885   4.898  49.269  1.00  0.00     0.163 A 
HETATM   19  N1  UNL     1      24.369   6.658  49.065  1.00  0.00    -0.245 NA
HETATM   20  C5  UNL     1      25.640   6.209  48.811  1.00  0.00     0.076 A 
HETATM   21  C4  UNL     1      26.498   7.153  48.191  1.00  0.00     0.033 A 
HETATM   22  C3  UNL     1      27.763   6.712  48.007  1.00  0.00     0.038 A 
HETATM   23  C2  UNL     1      28.270   5.489  48.350  1.00  0.00     0.067 A 
HETATM   24  C17 UNL     1      27.267   4.697  48.953  1.00  0.00     0.056 A 
BRANCH  23  25
HETATM   25  O1  UNL     1      29.482   4.904  48.245  1.00  0.00    -0.356 OA
HETATM   26  C1  UNL     1      30.681   5.492  47.878  1.00  0.00     0.210 C 
ENDBRANCH  23  25
ENDBRANCH  13  15
ENDBRANCH   1  13
TORSDOF 4
ENDMDL
MODEL 4
REMARK VINA RESULT:      -7.9      2.764      7.944
REMARK  4 active torsions:
REMARK  status: ('A' for Active; 'I' for Inactive)
REMARK    1  A    between atoms: O1_2  and  C2_3 
REMARK    2  A    between atoms: C7_10  and  N3_11 
REMARK    3  A    between atoms: N3_11  and  C8_12 
REMARK    4  A    between atoms: C12_17  and  O3_18 
ROOT
HETATM    1  C8  UNL     1      25.192   2.640  51.206  1.00  0.00     0.038 A 
HETATM    2  C9  UNL     1      24.192   3.567  51.314  1.00  0.00     0.069 A 
HETATM    3  C10 UNL     1      24.054   4.816  50.797  1.00  0.00     0.106 A 
HETATM    4  O2  UNL     1      23.381   5.864  50.652  1.00  0.00    -0.353 OA
HETATM    5  C11 UNL     1      22.687   6.926  50.511  1.00  0.00     0.210 C 
HETATM    6  C12 UNL     1      25.244   5.085  50.030  1.00  0.00     0.133 A 
HETATM    7  C13 UNL     1      26.452   4.330  49.731  1.00  0.00     0.106 A 
HETATM    8  O4  UNL     1      27.401   4.738  49.032  1.00  0.00    -0.353 OA
HETATM    9  C14 UNL     1      28.386   5.154  48.308  1.00  0.00     0.210 C 
HETATM   10  C15 UNL     1      26.193   3.142  50.431  1.00  0.00     0.069 A 
ENDROOT
BRANCH   6  11
HETATM   11  O3  UNL     1      25.403   6.359  49.344  1.00  0.00    -0.356 OA
HETATM   12  H12 UNL     1      26.229   6.437  48.728  1.00  0.00     0.218 HD
ENDBRANCH   6  11
BRANCH   1  13
HETATM   13  N3  UNL     1      25.159   1.314  51.729  1.00  0.00    -0.343 N 
HETATM   14  H7  UNL     1      24.576   0.660  51.151  1.00  0.00     0.167 HD
BRANCH  13  15
HETATM   15  C7  UNL     1      25.777   0.795  52.878  1.00  0.00     0.126 A 
HETATM   16  N2  UNL     1      26.317   0.319  53.919  1.00  0.00    -0.301 N 
HETATM   17  C6  UNL     1      27.074   0.013  54.784  1.00  0.00     0.213 A 
HETATM   18  C16 UNL     1      24.719   0.073  53.525  1.00  0.00     0.163 A 
HETATM   19  N1  UNL     1      25.998  -0.636  55.341  1.00  0.00    -0.245 NA
HETATM   20  C5  UNL     1      24.765  -0.639  54.740  1.00  0.00     0.076 A 
HETATM   21  C4  UNL     1      23.744  -1.304  55.468  1.00  0.00     0.033 A 
HETATM   22  C3  UNL     1      22.523  -1.242  54.889  1.00  0.00     0.038 A 
HETATM   23  C2  UNL     1      22.196  -0.622  53.714  1.00  0.00     0.067 A 
HETATM   24  C17 UNL     1      23.341  -0.020  53.145  1.00  0.00     0.056 A 
BRANCH  23  25
HETATM   25  O1  UNL     1      21.053  -0.464  53.014  1.00  0.00    -0.356 OA
HETATM   26  C1  UNL     1      19.754  -0.460  53.497  1.00  0.00     0.210 C 
ENDBRANCH  23  25
ENDBRANCH  13  15
ENDBRANCH   1  13
TORSDOF 4
ENDMDL
MODEL 5
REMARK VINA RESULT:      -7.8      1.919      4.126
REMARK  4 active torsions:
REMARK  status: ('A' for Active; 'I' for Inactive)
REMARK    1  A    between atoms: O1_2  and  C2_3 
REMARK    2  A    between atoms: C7_10  and  N3_11 
REMARK    3  A    between atoms: N3_11  and  C8_12 
REMARK    4  A    between atoms: C12_17  and  O3_18 
ROOT
HETATM    1  C8  UNL     1      25.582   1.930  51.426  1.00  0.00     0.038 A 
HETATM    2  C9  UNL     1      26.822   1.475  51.782  1.00  0.00     0.069 A 
HETATM    3  C10 UNL     1      27.220   0.519  52.661  1.00  0.00     0.106 A 
HETATM    4  O2  UNL     1      28.134  -0.140  53.210  1.00  0.00    -0.353 OA
HETATM    5  C11 UNL     1      29.074  -0.804  53.762  1.00  0.00     0.210 C 
HETATM    6  C12 UNL     1      26.025  -0.025  53.256  1.00  0.00     0.133 A 
HETATM    7  C13 UNL     1      24.602   0.237  53.097  1.00  0.00     0.106 A 
HETATM    8  O4  UNL     1      23.690  -0.346  53.717  1.00  0.00    -0.353 OA
HETATM    9  C14 UNL     1      22.742  -0.947  54.354  1.00  0.00     0.210 C 
HETATM   10  C15 UNL     1      24.633   1.254  52.131  1.00  0.00     0.069 A 
ENDROOT
BRANCH   6  11
HETATM   11  O3  UNL     1      26.117  -1.081  54.253  1.00  0.00    -0.356 OA
HETATM   12  H12 UNL     1      26.244  -0.766  55.229  1.00  0.00     0.218 HD
ENDBRANCH   6  11
BRANCH   1  13
HETATM   13  N3  UNL     1      25.306   2.884  50.403  1.00  0.00    -0.343 N 
HETATM   14  H7  UNL     1      24.292   2.913  50.134  1.00  0.00     0.167 HD
BRANCH  13  15
HETATM   15  C7  UNL     1      26.186   3.749  49.733  1.00  0.00     0.126 A 
HETATM   16  N2  UNL     1      26.966   4.545  49.134  1.00  0.00    -0.301 N 
HETATM   17  C6  UNL     1      27.865   5.035  48.527  1.00  0.00     0.213 A 
HETATM   18  C16 UNL     1      25.552   5.030  49.865  1.00  0.00     0.163 A 
HETATM   19  N1  UNL     1      27.177   6.215  48.686  1.00  0.00    -0.245 NA
HETATM   20  C5  UNL     1      25.986   6.274  49.363  1.00  0.00     0.076 A 
HETATM   21  C4  UNL     1      25.373   7.553  49.391  1.00  0.00     0.033 A 
HETATM   22  C3  UNL     1      24.170   7.576  50.008  1.00  0.00     0.038 A 
HETATM   23  C2  UNL     1      23.517   6.522  50.585  1.00  0.00     0.067 A 
HETATM   24  C17 UNL     1      24.284   5.342  50.453  1.00  0.00     0.056 A 
BRANCH  23  25
HETATM   25  O1  UNL     1      22.336   6.374  51.223  1.00  0.00    -0.356 OA
HETATM   26  C1  UNL     1      21.618   5.207  51.422  1.00  0.00     0.210 C 
ENDBRANCH  23  25
ENDBRANCH  13  15
ENDBRANCH   1  13
TORSDOF 4
ENDMDL
MODEL 6
REMARK VINA RESULT:      -7.7      2.980      7.892
REMARK  4 active torsions:
REMARK  status: ('A' for Active; 'I' for Inactive)
REMARK    1  A    between atoms: O1_2  and  C2_3 
REMARK    2  A    between atoms: C7_10  and  N3_11 
REMARK    3  A    between atoms: N3_11  and  C8_12 
REMARK    4  A    between atoms: C12_17  and  O3_18 
ROOT
HETATM    1  C8  UNL     1      24.302   2.718  50.760  1.00  0.00     0.038 A 
HETATM    2  C9  UNL     1      25.512   2.909  50.151  1.00  0.00     0.069 A 
HETATM    3  C10 UNL     1      26.102   4.020  49.638  1.00  0.00     0.106 A 
HETATM    4  O2  UNL     1      27.080   4.570  49.077  1.00  0.00    -0.353 OA
HETATM    5  C11 UNL     1      28.080   5.119  48.505  1.00  0.00     0.210 C 
HETATM    6  C12 UNL     1      25.180   5.111  49.830  1.00  0.00     0.133 A 
HETATM    7  C13 UNL     1      23.857   5.229  50.423  1.00  0.00     0.106 A 
HETATM    8  O4  UNL     1      23.194   6.284  50.499  1.00  0.00    -0.353 OA
HETATM    9  C14 UNL     1      22.504   7.371  50.581  1.00  0.00     0.210 C 
HETATM   10  C15 UNL     1      23.630   3.902  50.816  1.00  0.00     0.069 A 
ENDROOT
BRANCH   6  11
HETATM   11  O3  UNL     1      25.526   6.451  49.378  1.00  0.00    -0.356 OA
HETATM   12  H12 UNL     1      25.690   6.553  48.363  1.00  0.00     0.218 HD
ENDBRANCH   6  11
BRANCH   1  13
HETATM   13  N3  UNL     1      23.847   1.500  51.346  1.00  0.00    -0.343 N 
HETATM   14  H7  UNL     1      24.631   0.851  51.602  1.00  0.00     0.167 HD
BRANCH  13  15
HETATM   15  C7  UNL     1      22.535   1.074  51.606  1.00  0.00     0.126 A 
HETATM   16  N2  UNL     1      21.359   0.681  51.858  1.00  0.00    -0.301 N 
HETATM   17  C6  UNL     1      20.188   0.470  51.837  1.00  0.00     0.213 A 
HETATM   18  C16 UNL     1      22.669   0.314  52.817  1.00  0.00     0.163 A 
HETATM   19  N1  UNL     1      20.413  -0.254  52.984  1.00  0.00    -0.245 NA
HETATM   20  C5  UNL     1      21.665  -0.369  53.533  1.00  0.00     0.076 A 
HETATM   21  C4  UNL     1      21.743  -1.196  54.683  1.00  0.00     0.033 A 
HETATM   22  C3  UNL     1      22.995  -1.347  55.171  1.00  0.00     0.038 A 
HETATM   23  C2  UNL     1      24.146  -0.797  54.678  1.00  0.00     0.067 A 
HETATM   24  C17 UNL     1      23.862  -0.013  53.537  1.00  0.00     0.056 A 
BRANCH  23  25
HETATM   25  O1  UNL     1      25.448  -0.850  55.032  1.00  0.00    -0.356 OA
HETATM   26  C1  UNL     1      26.468   0.007  54.653  1.00  0.00     0.210 C 
ENDBRANCH  23  25
ENDBRANCH  13  15
ENDBRANCH   1  13
TORSDOF 4
ENDMDL
MODEL 7
REMARK VINA RESULT:      -7.6      3.733      7.493
REMARK  4 active torsions:
REMARK  status: ('A' for Active; 'I' for Inactive)
REMARK    1  A    between atoms: O1_2  and  C2_3 
REMARK    2  A    between atoms: C7_10  and  N3_11 
REMARK    3  A    between atoms: N3_11  and  C8_12 
REMARK    4  A    between atoms: C12_17  and  O3_18 
ROOT
HETATM    1  C8  UNL     1      22.130   1.085  51.141  1.00  0.00     0.038 A 
HETATM    2  C9  UNL     1      21.888   1.776  49.987  1.00  0.00     0.069 A 
HETATM    3  C10 UNL     1      20.760   1.942  49.249  1.00  0.00     0.106 A 
HETATM    4  O2  UNL     1      20.171   2.441  48.261  1.00  0.00    -0.353 OA
HETATM    5  C11 UNL     1      19.582   2.955  47.252  1.00  0.00     0.210 C 
HETATM    6  C12 UNL     1      19.716   1.199  49.909  1.00  0.00     0.133 A 
HETATM    7  C13 UNL     1      19.655   0.385  51.114  1.00  0.00     0.106 A 
HETATM    8  O4  UNL     1      18.636  -0.197  51.538  1.00  0.00    -0.353 OA
HETATM    9  C14 UNL     1      17.586  -0.801  51.983  1.00  0.00     0.210 C 
HETATM   10  C15 UNL     1      20.983   0.477  51.555  1.00  0.00     0.069 A 
ENDROOT
BRANCH   6  11
HETATM   11  O3  UNL     1      18.370   1.176  49.356  1.00  0.00    -0.356 OA
HETATM   12  H12 UNL     1      17.832   0.309  49.521  1.00  0.00     0.218 HD
ENDBRANCH   6  11
BRANCH   1  13
HETATM   13  N3  UNL     1      23.358   1.079  51.868  1.00  0.00    -0.343 N 
HETATM   14  H7  UNL     1      23.309   0.513  52.750  1.00  0.00     0.167 HD
BRANCH  13  15
HETATM   15  C7  UNL     1      24.572   1.716  51.566  1.00  0.00     0.126 A 
HETATM   16  N2  UNL     1      25.675   2.280  51.311  1.00  0.00    -0.301 N 
HETATM   17  C6  UNL     1      26.548   2.941  50.843  1.00  0.00     0.213 A 
HETATM   18  C16 UNL     1      25.474   1.190  52.552  1.00  0.00     0.163 A 
HETATM   19  N1  UNL     1      27.333   2.399  51.833  1.00  0.00    -0.245 NA
HETATM   20  C5  UNL     1      26.837   1.496  52.738  1.00  0.00     0.076 A 
HETATM   21  C4  UNL     1      27.757   1.074  53.732  1.00  0.00     0.033 A 
HETATM   22  C3  UNL     1      27.230   0.233  54.651  1.00  0.00     0.038 A 
HETATM   23  C2  UNL     1      25.945  -0.229  54.707  1.00  0.00     0.067 A 
HETATM   24  C17 UNL     1      25.188   0.303  53.639  1.00  0.00     0.056 A 
BRANCH  23  25
HETATM   25  O1  UNL     1      25.269  -1.049  55.541  1.00  0.00    -0.356 OA
HETATM   26  C1  UNL     1      23.916  -1.344  55.531  1.00  0.00     0.210 C 
ENDBRANCH  23  25
ENDBRANCH  13  15
ENDBRANCH   1  13
TORSDOF 4
ENDMDL
MODEL 8
REMARK VINA RESULT:      -7.6      3.041      7.472
REMARK  4 active torsions:
REMARK  status: ('A' for Active; 'I' for Inactive)
REMARK    1  A    between atoms: O1_2  and  C2_3 
REMARK    2  A    between atoms: C7_10  and  N3_11 
REMARK    3  A    between atoms: N3_11  and  C8_12 
REMARK    4  A    between atoms: C12_17  and  O3_18 
ROOT
HETATM    1  C8  UNL     1      24.011   2.858  50.948  1.00  0.00     0.038 A 
HETATM    2  C9  UNL     1      23.215   3.959  51.108  1.00  0.00     0.069 A 
HETATM    3  C10 UNL     1      23.376   5.256  50.739  1.00  0.00     0.106 A 
HETATM    4  O2  UNL     1      22.945   6.432  50.682  1.00  0.00    -0.353 OA
HETATM    5  C11 UNL     1      22.495   7.625  50.630  1.00  0.00     0.210 C 
HETATM    6  C12 UNL     1      24.655   5.347  50.079  1.00  0.00     0.133 A 
HETATM    7  C13 UNL     1      25.704   4.390  49.762  1.00  0.00     0.106 A 
HETATM    8  O4  UNL     1      26.771   4.660  49.173  1.00  0.00    -0.353 OA
HETATM    9  C14 UNL     1      27.875   4.933  48.564  1.00  0.00     0.210 C 
HETATM   10  C15 UNL     1      25.153   3.216  50.297  1.00  0.00     0.069 A 
ENDROOT
BRANCH   6  11
HETATM   11  O3  UNL     1      25.125   6.624  49.563  1.00  0.00    -0.356 OA
HETATM   12  H12 UNL     1      24.597   7.005  48.760  1.00  0.00     0.218 HD
ENDBRANCH   6  11
BRANCH   1  13
HETATM   13  N3  UNL     1      23.666   1.521  51.304  1.00  0.00    -0.343 N 
HETATM   14  H7  UNL     1      24.388   0.819  51.008  1.00  0.00     0.167 HD
BRANCH  13  15
HETATM   15  C7  UNL     1      22.524   1.044  51.967  1.00  0.00     0.126 A 
HETATM   16  N2  UNL     1      21.508   0.605  52.579  1.00  0.00    -0.301 N 
HETATM   17  C6  UNL     1      20.401   0.342  52.930  1.00  0.00     0.213 A 
HETATM   18  C16 UNL     1      23.069   0.318  53.080  1.00  0.00     0.163 A 
HETATM   19  N1  UNL     1      21.011  -0.345  53.953  1.00  0.00    -0.245 NA
HETATM   20  C5  UNL     1      22.376  -0.392  54.081  1.00  0.00     0.076 A 
HETATM   21  C4  UNL     1      22.851  -1.188  55.154  1.00  0.00     0.033 A 
HETATM   22  C3  UNL     1      24.199  -1.273  55.224  1.00  0.00     0.038 A 
HETATM   23  C2  UNL     1      25.108  -0.685  54.390  1.00  0.00     0.067 A 
HETATM   24  C17 UNL     1      24.443   0.060  53.390  1.00  0.00     0.056 A 
BRANCH  23  25
HETATM   25  O1  UNL     1      26.457  -0.672  54.317  1.00  0.00    -0.356 OA
HETATM   26  C1  UNL     1      27.329   0.250  54.872  1.00  0.00     0.210 C 
ENDBRANCH  23  25
ENDBRANCH  13  15
ENDBRANCH   1  13
TORSDOF 4
ENDMDL
MODEL 9
REMARK VINA RESULT:      -7.6      3.991      8.055
REMARK  4 active torsions:
REMARK  status: ('A' for Active; 'I' for Inactive)
REMARK    1  A    between atoms: O1_2  and  C2_3 
REMARK    2  A    between atoms: C7_10  and  N3_11 
REMARK    3  A    between atoms: N3_11  and  C8_12 
REMARK    4  A    between atoms: C12_17  and  O3_18 
ROOT
HETATM    1  C8  UNL     1      23.853   1.590  51.585  1.00  0.00     0.038 A 
HETATM    2  C9  UNL     1      23.981   2.628  50.704  1.00  0.00     0.069 A 
HETATM    3  C10 UNL     1      25.050   3.384  50.343  1.00  0.00     0.106 A 
HETATM    4  O2  UNL     1      25.546   4.305  49.652  1.00  0.00    -0.353 OA
HETATM    5  C11 UNL     1      26.039   5.245  48.944  1.00  0.00     0.210 C 
HETATM    6  C12 UNL     1      26.178   2.903  51.101  1.00  0.00     0.133 A 
HETATM    7  C13 UNL     1      26.363   1.850  52.088  1.00  0.00     0.106 A 
HETATM    8  O4  UNL     1      27.440   1.575  52.654  1.00  0.00    -0.353 OA
HETATM    9  C14 UNL     1      28.552   1.286  53.242  1.00  0.00     0.210 C 
HETATM   10  C15 UNL     1      25.060   1.336  52.165  1.00  0.00     0.069 A 
ENDROOT
BRANCH   6  11
HETATM   11  O3  UNL     1      27.487   3.517  50.938  1.00  0.00    -0.356 OA
HETATM   12  H12 UNL     1      27.514   4.547  51.030  1.00  0.00     0.218 HD
ENDBRANCH   6  11
BRANCH   1  13
HETATM   13  N3  UNL     1      22.674   0.815  51.796  1.00  0.00    -0.343 N 
HETATM   14  H7  UNL     1      21.984   0.898  51.010  1.00  0.00     0.167 HD
BRANCH  13  15
HETATM   15  C7  UNL     1      22.332  -0.006  52.883  1.00  0.00     0.126 A 
HETATM   16  N2  UNL     1      22.004  -0.746  53.854  1.00  0.00    -0.301 N 
HETATM   17  C6  UNL     1      21.994  -1.412  54.841  1.00  0.00     0.213 A 
HETATM   18  C16 UNL     1      20.934  -0.258  52.677  1.00  0.00     0.163 A 
HETATM   19  N1  UNL     1      20.657  -1.583  54.575  1.00  0.00    -0.245 NA
HETATM   20  C5  UNL     1      20.058  -1.016  53.480  1.00  0.00     0.076 A 
HETATM   21  C4  UNL     1      18.660  -1.239  53.376  1.00  0.00     0.033 A 
HETATM   22  C3  UNL     1      18.078  -0.618  52.325  1.00  0.00     0.038 A 
HETATM   23  C2  UNL     1      18.689   0.171  51.390  1.00  0.00     0.067 A 
HETATM   24  C17 UNL     1      20.071   0.273  51.665  1.00  0.00     0.056 A 
BRANCH  23  25
HETATM   25  O1  UNL     1      18.264   0.855  50.306  1.00  0.00    -0.356 OA
HETATM   26  C1  UNL     1      17.470   1.989  50.274  1.00  0.00     0.210 C 
ENDBRANCH  23  25
ENDBRANCH  13  15
ENDBRANCH   1  13
TORSDOF 4
ENDMDL
