MODEL 1
REMARK VINA RESULT:      -8.0      0.000      0.000
REMARK  5 active torsions:
REMARK  status: ('A' for Active; 'I' for Inactive)
REMARK    1  A    between atoms: C7_7  and  C8_8 
REMARK    2  A    between atoms: C11_11  and  O1_12 
REMARK    3  A    between atoms: O1_12  and  C12_13 
REMARK    4  A    between atoms: C12_13  and  C13_14 
REMARK    5  A    between atoms: C13_14  and  O2_15 
ROOT
HETATM    1  C1  UNL     1      28.893  -2.887  53.172  1.00  0.00     0.018 C 
HETATM    2  C2  UNL     1      28.620  -1.712  53.197  1.00  0.00    -0.078 C 
HETATM    3  C3  UNL     1      28.301  -0.298  53.206  1.00  0.00     0.017 A 
HETATM    4  C4  UNL     1      29.141   0.551  53.916  1.00  0.00     0.020 A 
HETATM    5  C5  UNL     1      28.928   1.907  53.989  1.00  0.00     0.002 A 
HETATM    6  C6  UNL     1      27.830   2.377  53.313  1.00  0.00     0.010 A 
HETATM    7  C7  UNL     1      26.958   1.595  52.589  1.00  0.00    -0.022 A 
HETATM    8  C18 UNL     1      27.234   0.246  52.562  1.00  0.00     0.030 A 
ENDROOT
BRANCH   7   9
HETATM    9  C8  UNL     1      25.723   2.086  51.829  1.00  0.00     0.209 C 
HETATM   10  C9  UNL     1      24.833   2.304  52.962  1.00  0.00     0.027 C 
HETATM   11  C10 UNL     1      23.993   1.277  53.014  1.00  0.00     0.009 C 
HETATM   12  C11 UNL     1      23.264   1.221  51.908  1.00  0.00     0.081 C 
HETATM   13  C15 UNL     1      23.473   2.117  50.818  1.00  0.00     0.053 C 
HETATM   14  C16 UNL     1      23.724   2.965  49.870  1.00  0.00     0.081 C 
HETATM   15  N1  UNL     1      24.422   4.008  49.293  1.00  0.00    -0.381 NA
HETATM   16  C17 UNL     1      25.697   4.083  49.344  1.00  0.00     0.399 C 
HETATM   17  N2  UNL     1      26.536   3.130  49.976  1.00  0.00    -0.259 N 
HETATM   18  O3  UNL     1      26.214   3.248  51.257  1.00  0.00    -0.265 OA
HETATM   19  H17 UNL     1      26.842   2.982  48.980  1.00  0.00     0.195 HD
BRANCH  12  20
HETATM   20  O1  UNL     1      22.508   0.172  52.355  1.00  0.00    -0.348 OA
BRANCH  20  21
HETATM   21  C12 UNL     1      21.961   0.081  53.666  1.00  0.00     0.201 C 
BRANCH  21  22
HETATM   22  C13 UNL     1      21.545  -1.305  54.016  1.00  0.00     0.193 C 
BRANCH  22  23
HETATM   23  O2  UNL     1      21.969  -1.614  55.297  1.00  0.00    -0.394 OA
HETATM   24  C14 UNL     1      23.300  -1.453  55.549  1.00  0.00     0.201 C 
ENDBRANCH  22  23
ENDBRANCH  21  22
ENDBRANCH  20  21
ENDBRANCH  12  20
ENDBRANCH   7   9
TORSDOF 5
ENDMDL
MODEL 2
REMARK VINA RESULT:      -8.0      2.281      4.951
REMARK  5 active torsions:
REMARK  status: ('A' for Active; 'I' for Inactive)
REMARK    1  A    between atoms: C7_7  and  C8_8 
REMARK    2  A    between atoms: C11_11  and  O1_12 
REMARK    3  A    between atoms: O1_12  and  C12_13 
REMARK    4  A    between atoms: C12_13  and  C13_14 
REMARK    5  A    between atoms: C13_14  and  O2_15 
ROOT
HETATM    1  C1  UNL     1      28.021   5.441  48.203  1.00  0.00     0.018 C 
HETATM    2  C2  UNL     1      27.282   4.778  48.888  1.00  0.00    -0.078 C 
HETATM    3  C3  UNL     1      26.399   3.963  49.698  1.00  0.00     0.017 A 
HETATM    4  C4  UNL     1      25.039   4.006  49.419  1.00  0.00     0.020 A 
HETATM    5  C5  UNL     1      24.118   3.272  50.127  1.00  0.00     0.002 A 
HETATM    6  C6  UNL     1      24.623   2.488  51.134  1.00  0.00     0.010 A 
HETATM    7  C7  UNL     1      25.957   2.395  51.464  1.00  0.00    -0.022 A 
HETATM    8  C18 UNL     1      26.822   3.160  50.712  1.00  0.00     0.030 A 
ENDROOT
BRANCH   7   9
HETATM    9  C8  UNL     1      26.553   1.537  52.582  1.00  0.00     0.209 C 
HETATM   10  C9  UNL     1      26.316   0.220  52.006  1.00  0.00     0.027 C 
HETATM   11  C10 UNL     1      25.256  -0.298  52.615  1.00  0.00     0.009 C 
HETATM   12  C11 UNL     1      25.493  -0.440  53.912  1.00  0.00     0.081 C 
HETATM   13  C15 UNL     1      26.706   0.009  54.513  1.00  0.00     0.053 C 
HETATM   14  C16 UNL     1      27.832   0.444  54.986  1.00  0.00     0.081 C 
HETATM   15  N1  UNL     1      29.063   1.061  54.883  1.00  0.00    -0.381 NA
HETATM   16  C17 UNL     1      29.231   2.133  54.206  1.00  0.00     0.399 C 
HETATM   17  N2  UNL     1      28.205   2.808  53.498  1.00  0.00    -0.259 N 
HETATM   18  O3  UNL     1      27.876   1.945  52.547  1.00  0.00    -0.265 OA
HETATM   19  H17 UNL     1      28.413   3.541  54.224  1.00  0.00     0.195 HD
BRANCH  12  20
HETATM   20  O1  UNL     1      24.293  -1.052  54.153  1.00  0.00    -0.348 OA
BRANCH  20  21
HETATM   21  C12 UNL     1      23.025  -0.435  53.953  1.00  0.00     0.201 C 
BRANCH  21  22
HETATM   22  C13 UNL     1      21.919  -1.174  54.621  1.00  0.00     0.193 C 
BRANCH  22  23
HETATM   23  O2  UNL     1      20.727  -0.490  54.453  1.00  0.00    -0.394 OA
HETATM   24  C14 UNL     1      20.784   0.646  53.699  1.00  0.00     0.201 C 
ENDBRANCH  22  23
ENDBRANCH  21  22
ENDBRANCH  20  21
ENDBRANCH  12  20
ENDBRANCH   7   9
TORSDOF 5
ENDMDL
MODEL 3
REMARK VINA RESULT:      -8.0      2.327      5.102
REMARK  5 active torsions:
REMARK  status: ('A' for Active; 'I' for Inactive)
REMARK    1  A    between atoms: C7_7  and  C8_8 
REMARK    2  A    between atoms: C11_11  and  O1_12 
REMARK    3  A    between atoms: O1_12  and  C12_13 
REMARK    4  A    between atoms: C12_13  and  C13_14 
REMARK    5  A    between atoms: C13_14  and  O2_15 
ROOT
HETATM    1  C1  UNL     1      21.879   5.410  51.576  1.00  0.00     0.018 C 
HETATM    2  C2  UNL     1      22.894   4.808  51.323  1.00  0.00    -0.078 C 
HETATM    3  C3  UNL     1      24.125   4.102  51.030  1.00  0.00     0.017 A 
HETATM    4  C4  UNL     1      24.705   4.301  49.784  1.00  0.00     0.020 A 
HETATM    5  C5  UNL     1      25.872   3.679  49.406  1.00  0.00     0.002 A 
HETATM    6  C6  UNL     1      26.434   2.845  50.339  1.00  0.00     0.010 A 
HETATM    7  C7  UNL     1      25.915   2.602  51.592  1.00  0.00    -0.022 A 
HETATM    8  C18 UNL     1      24.744   3.260  51.900  1.00  0.00     0.030 A 
ENDROOT
BRANCH   7   9
HETATM    9  C8  UNL     1      26.512   1.675  52.653  1.00  0.00     0.209 C 
HETATM   10  C9  UNL     1      26.194   0.393  52.038  1.00  0.00     0.027 C 
HETATM   11  C10 UNL     1      25.136  -0.101  52.668  1.00  0.00     0.009 C 
HETATM   12  C11 UNL     1      25.414  -0.304  53.948  1.00  0.00     0.081 C 
HETATM   13  C15 UNL     1      26.667   0.068  54.518  1.00  0.00     0.053 C 
HETATM   14  C16 UNL     1      27.829   0.434  54.963  1.00  0.00     0.081 C 
HETATM   15  N1  UNL     1      29.082   1.000  54.835  1.00  0.00    -0.381 NA
HETATM   16  C17 UNL     1      29.274   2.089  54.193  1.00  0.00     0.399 C 
HETATM   17  N2  UNL     1      28.254   2.836  53.551  1.00  0.00    -0.259 N 
HETATM   18  O3  UNL     1      27.851   2.026  52.582  1.00  0.00    -0.265 OA
HETATM   19  H17 UNL     1      28.521   3.530  54.296  1.00  0.00     0.195 HD
BRANCH  12  20
HETATM   20  O1  UNL     1      24.197  -0.871  54.213  1.00  0.00    -0.348 OA
BRANCH  20  21
HETATM   21  C12 UNL     1      23.091  -0.847  53.317  1.00  0.00     0.201 C 
BRANCH  21  22
HETATM   22  C13 UNL     1      21.890  -1.528  53.875  1.00  0.00     0.193 C 
BRANCH  22  23
HETATM   23  O2  UNL     1      21.467  -0.874  55.020  1.00  0.00    -0.394 OA
HETATM   24  C14 UNL     1      20.818   0.312  54.834  1.00  0.00     0.201 C 
ENDBRANCH  22  23
ENDBRANCH  21  22
ENDBRANCH  20  21
ENDBRANCH  12  20
ENDBRANCH   7   9
TORSDOF 5
ENDMDL
MODEL 4
REMARK VINA RESULT:      -7.4      2.381      5.832
REMARK  5 active torsions:
REMARK  status: ('A' for Active; 'I' for Inactive)
REMARK    1  A    between atoms: C7_7  and  C8_8 
REMARK    2  A    between atoms: C11_11  and  O1_12 
REMARK    3  A    between atoms: O1_12  and  C12_13 
REMARK    4  A    between atoms: C12_13  and  C13_14 
REMARK    5  A    between atoms: C13_14  and  O2_15 
ROOT
HETATM    1  C1  UNL     1      28.114   5.096  48.467  1.00  0.00     0.018 C 
HETATM    2  C2  UNL     1      26.996   4.927  48.890  1.00  0.00    -0.078 C 
HETATM    3  C3  UNL     1      25.651   4.708  49.383  1.00  0.00     0.017 A 
HETATM    4  C4  UNL     1      24.651   5.562  48.938  1.00  0.00     0.020 A 
HETATM    5  C5  UNL     1      23.343   5.440  49.344  1.00  0.00     0.002 A 
HETATM    6  C6  UNL     1      23.082   4.418  50.221  1.00  0.00     0.010 A 
HETATM    7  C7  UNL     1      24.023   3.534  50.703  1.00  0.00    -0.022 A 
HETATM    8  C18 UNL     1      25.312   3.718  50.252  1.00  0.00     0.030 A 
ENDROOT
BRANCH   7   9
HETATM    9  C8  UNL     1      23.767   2.389  51.684  1.00  0.00     0.209 C 
HETATM   10  C9  UNL     1      23.995   3.106  52.932  1.00  0.00     0.027 C 
HETATM   11  C10 UNL     1      25.205   2.777  53.367  1.00  0.00     0.009 C 
HETATM   12  C11 UNL     1      25.270   1.474  53.609  1.00  0.00     0.081 C 
HETATM   13  C15 UNL     1      24.180   0.598  53.330  1.00  0.00     0.053 C 
HETATM   14  C16 UNL     1      23.149  -0.134  53.048  1.00  0.00     0.081 C 
HETATM   15  N1  UNL     1      21.872  -0.342  52.563  1.00  0.00    -0.381 NA
HETATM   16  C17 UNL     1      21.462   0.196  51.478  1.00  0.00     0.399 C 
HETATM   17  N2  UNL     1      22.242   1.047  50.655  1.00  0.00    -0.259 N 
HETATM   18  O3  UNL     1      22.436   2.112  51.420  1.00  0.00    -0.265 OA
HETATM   19  H17 UNL     1      22.129   0.237  49.993  1.00  0.00     0.195 HD
BRANCH  12  20
HETATM   20  O1  UNL     1      26.546   1.541  54.100  1.00  0.00    -0.348 OA
BRANCH  20  21
HETATM   21  C12 UNL     1      27.632   2.169  53.426  1.00  0.00     0.201 C 
BRANCH  21  22
HETATM   22  C13 UNL     1      28.955   1.762  53.973  1.00  0.00     0.193 C 
BRANCH  22  23
HETATM   23  O2  UNL     1      28.868   0.494  54.522  1.00  0.00    -0.394 OA
HETATM   24  C14 UNL     1      29.546  -0.495  53.871  1.00  0.00     0.201 C 
ENDBRANCH  22  23
ENDBRANCH  21  22
ENDBRANCH  20  21
ENDBRANCH  12  20
ENDBRANCH   7   9
TORSDOF 5
ENDMDL
MODEL 5
REMARK VINA RESULT:      -7.4      2.581      5.757
REMARK  5 active torsions:
REMARK  status: ('A' for Active; 'I' for Inactive)
REMARK    1  A    between atoms: C7_7  and  C8_8 
REMARK    2  A    between atoms: C11_11  and  O1_12 
REMARK    3  A    between atoms: O1_12  and  C12_13 
REMARK    4  A    between atoms: C12_13  and  C13_14 
REMARK    5  A    between atoms: C13_14  and  O2_15 
ROOT
HETATM    1  C1  UNL     1      24.649   8.344  50.166  1.00  0.00     0.018 C 
HETATM    2  C2  UNL     1      24.962   7.180  50.100  1.00  0.00    -0.078 C 
HETATM    3  C3  UNL     1      25.349   5.785  50.040  1.00  0.00     0.017 A 
HETATM    4  C4  UNL     1      26.447   5.450  49.260  1.00  0.00     0.020 A 
HETATM    5  C5  UNL     1      26.897   4.157  49.136  1.00  0.00     0.002 A 
HETATM    6  C6  UNL     1      26.192   3.209  49.834  1.00  0.00     0.010 A 
HETATM    7  C7  UNL     1      25.096   3.470  50.627  1.00  0.00    -0.022 A 
HETATM    8  C18 UNL     1      24.703   4.788  50.703  1.00  0.00     0.030 A 
ENDROOT
BRANCH   7   9
HETATM    9  C8  UNL     1      24.285   2.438  51.414  1.00  0.00     0.209 C 
HETATM   10  C9  UNL     1      24.430   3.005  52.748  1.00  0.00     0.027 C 
HETATM   11  C10 UNL     1      25.349   2.292  53.388  1.00  0.00     0.009 C 
HETATM   12  C11 UNL     1      24.955   1.031  53.505  1.00  0.00     0.081 C 
HETATM   13  C15 UNL     1      23.743   0.560  52.919  1.00  0.00     0.053 C 
HETATM   14  C16 UNL     1      22.630   0.206  52.357  1.00  0.00     0.081 C 
HETATM   15  N1  UNL     1      21.497   0.433  51.600  1.00  0.00    -0.381 NA
HETATM   16  C17 UNL     1      21.530   1.107  50.514  1.00  0.00     0.399 C 
HETATM   17  N2  UNL     1      22.699   1.688  49.961  1.00  0.00    -0.259 N 
HETATM   18  O3  UNL     1      23.030   2.611  50.853  1.00  0.00    -0.265 OA
HETATM   19  H17 UNL     1      22.499   0.978  49.211  1.00  0.00     0.195 HD
BRANCH  12  20
HETATM   20  O1  UNL     1      26.042   0.669  54.253  1.00  0.00    -0.348 OA
BRANCH  20  21
HETATM   21  C12 UNL     1      27.239   0.120  53.713  1.00  0.00     0.201 C 
BRANCH  21  22
HETATM   22  C13 UNL     1      28.443   0.475  54.514  1.00  0.00     0.193 C 
BRANCH  22  23
HETATM   23  O2  UNL     1      29.340  -0.579  54.507  1.00  0.00    -0.394 OA
HETATM   24  C14 UNL     1      29.425  -1.293  53.347  1.00  0.00     0.201 C 
ENDBRANCH  22  23
ENDBRANCH  21  22
ENDBRANCH  20  21
ENDBRANCH  12  20
ENDBRANCH   7   9
TORSDOF 5
ENDMDL
MODEL 6
REMARK VINA RESULT:      -7.4      2.974      6.414
REMARK  5 active torsions:
REMARK  status: ('A' for Active; 'I' for Inactive)
REMARK    1  A    between atoms: C7_7  and  C8_8 
REMARK    2  A    between atoms: C11_11  and  O1_12 
REMARK    3  A    between atoms: O1_12  and  C12_13 
REMARK    4  A    between atoms: C12_13  and  C13_14 
REMARK    5  A    between atoms: C13_14  and  O2_15 
ROOT
HETATM    1  C1  UNL     1      29.001   0.095  53.628  1.00  0.00     0.018 C 
HETATM    2  C2  UNL     1      27.959   0.512  53.185  1.00  0.00    -0.078 C 
HETATM    3  C3  UNL     1      26.705   1.027  52.672  1.00  0.00     0.017 A 
HETATM    4  C4  UNL     1      25.558   0.275  52.889  1.00  0.00     0.020 A 
HETATM    5  C5  UNL     1      24.320   0.674  52.444  1.00  0.00     0.002 A 
HETATM    6  C6  UNL     1      24.283   1.867  51.768  1.00  0.00     0.010 A 
HETATM    7  C7  UNL     1      25.379   2.664  51.518  1.00  0.00    -0.022 A 
HETATM    8  C18 UNL     1      26.586   2.200  51.993  1.00  0.00     0.030 A 
ENDROOT
BRANCH   7   9
HETATM    9  C8  UNL     1      25.374   3.995  50.763  1.00  0.00     0.209 C 
HETATM   10  C9  UNL     1      25.530   3.486  49.407  1.00  0.00     0.027 C 
HETATM   11  C10 UNL     1      26.798   3.664  49.057  1.00  0.00     0.009 C 
HETATM   12  C11 UNL     1      27.102   4.955  49.063  1.00  0.00     0.081 C 
HETATM   13  C15 UNL     1      26.171   5.949  49.486  1.00  0.00     0.053 C 
HETATM   14  C16 UNL     1      25.271   6.793  49.886  1.00  0.00     0.081 C 
HETATM   15  N1  UNL     1      24.030   7.137  50.384  1.00  0.00    -0.381 NA
HETATM   16  C17 UNL     1      23.482   6.495  51.344  1.00  0.00     0.399 C 
HETATM   17  N2  UNL     1      24.061   5.382  52.004  1.00  0.00    -0.259 N 
HETATM   18  O3  UNL     1      24.101   4.456  51.056  1.00  0.00    -0.265 OA
HETATM   19  H17 UNL     1      24.062   6.065  52.804  1.00  0.00     0.195 HD
BRANCH  12  20
HETATM   20  O1  UNL     1      28.368   4.749  48.585  1.00  0.00    -0.348 OA
BRANCH  20  21
HETATM   21  C12 UNL     1      29.240   5.788  48.153  1.00  0.00     0.201 C 
BRANCH  21  22
HETATM   22  C13 UNL     1      30.619   5.298  47.879  1.00  0.00     0.193 C 
BRANCH  22  23
HETATM   23  O2  UNL     1      31.322   5.185  49.066  1.00  0.00    -0.394 OA
HETATM   24  C14 UNL     1      31.805   6.346  49.596  1.00  0.00     0.201 C 
ENDBRANCH  22  23
ENDBRANCH  21  22
ENDBRANCH  20  21
ENDBRANCH  12  20
ENDBRANCH   7   9
TORSDOF 5
ENDMDL
MODEL 7
REMARK VINA RESULT:      -7.3      2.921      6.548
REMARK  5 active torsions:
REMARK  status: ('A' for Active; 'I' for Inactive)
REMARK    1  A    between atoms: C7_7  and  C8_8 
REMARK    2  A    between atoms: C11_11  and  O1_12 
REMARK    3  A    between atoms: O1_12  and  C12_13 
REMARK    4  A    between atoms: C12_13  and  C13_14 
REMARK    5  A    between atoms: C13_14  and  O2_15 
ROOT
HETATM    1  C1  UNL     1      23.996   5.763  48.566  1.00  0.00     0.018 C 
HETATM    2  C2  UNL     1      23.508   4.686  48.805  1.00  0.00    -0.078 C 
HETATM    3  C3  UNL     1      22.941   3.382  49.088  1.00  0.00     0.017 A 
HETATM    4  C4  UNL     1      22.262   2.734  48.064  1.00  0.00     0.020 A 
HETATM    5  C5  UNL     1      21.689   1.496  48.228  1.00  0.00     0.002 A 
HETATM    6  C6  UNL     1      21.827   0.932  49.472  1.00  0.00     0.010 A 
HETATM    7  C7  UNL     1      22.488   1.516  50.531  1.00  0.00    -0.022 A 
HETATM    8  C18 UNL     1      23.036   2.757  50.292  1.00  0.00     0.030 A 
ENDROOT
BRANCH   7   9
HETATM    9  C8  UNL     1      22.656   0.919  51.930  1.00  0.00     0.209 C 
HETATM   10  C9  UNL     1      23.807   1.696  52.370  1.00  0.00     0.027 C 
HETATM   11  C10 UNL     1      24.878   0.920  52.263  1.00  0.00     0.009 C 
HETATM   12  C11 UNL     1      24.759  -0.142  53.049  1.00  0.00     0.081 C 
HETATM   13  C15 UNL     1      23.576  -0.394  53.804  1.00  0.00     0.053 C 
HETATM   14  C16 UNL     1      22.469  -0.556  54.459  1.00  0.00     0.081 C 
HETATM   15  N1  UNL     1      21.184  -0.207  54.826  1.00  0.00    -0.381 NA
HETATM   16  C17 UNL     1      20.319   0.192  53.973  1.00  0.00     0.399 C 
HETATM   17  N2  UNL     1      20.558   0.320  52.582  1.00  0.00    -0.259 N 
HETATM   18  O3  UNL     1      21.458   1.291  52.518  1.00  0.00    -0.265 OA
HETATM   19  H17 UNL     1      19.847  -0.456  52.555  1.00  0.00     0.195 HD
BRANCH  12  20
HETATM   20  O1  UNL     1      26.012  -0.608  52.756  1.00  0.00    -0.348 OA
BRANCH  20  21
HETATM   21  C12 UNL     1      27.212   0.122  52.986  1.00  0.00     0.201 C 
BRANCH  21  22
HETATM   22  C13 UNL     1      27.597   0.148  54.425  1.00  0.00     0.193 C 
BRANCH  22  23
HETATM   23  O2  UNL     1      28.752  -0.590  54.616  1.00  0.00    -0.394 OA
HETATM   24  C14 UNL     1      29.442  -0.937  53.491  1.00  0.00     0.201 C 
ENDBRANCH  22  23
ENDBRANCH  21  22
ENDBRANCH  20  21
ENDBRANCH  12  20
ENDBRANCH   7   9
TORSDOF 5
ENDMDL
MODEL 8
REMARK VINA RESULT:      -7.2      2.509      5.508
REMARK  5 active torsions:
REMARK  status: ('A' for Active; 'I' for Inactive)
REMARK    1  A    between atoms: C7_7  and  C8_8 
REMARK    2  A    between atoms: C11_11  and  O1_12 
REMARK    3  A    between atoms: O1_12  and  C12_13 
REMARK    4  A    between atoms: C12_13  and  C13_14 
REMARK    5  A    between atoms: C13_14  and  O2_15 
ROOT
HETATM    1  C1  UNL     1      28.553   5.239  48.314  1.00  0.00     0.018 C 
HETATM    2  C2  UNL     1      27.392   5.238  48.644  1.00  0.00    -0.078 C 
HETATM    3  C3  UNL     1      25.993   5.223  49.021  1.00  0.00     0.017 A 
HETATM    4  C4  UNL     1      25.205   6.298  48.631  1.00  0.00     0.020 A 
HETATM    5  C5  UNL     1      23.868   6.381  48.938  1.00  0.00     0.002 A 
HETATM    6  C6  UNL     1      23.352   5.332  49.657  1.00  0.00     0.010 A 
HETATM    7  C7  UNL     1      24.074   4.235  50.075  1.00  0.00    -0.022 A 
HETATM    8  C18 UNL     1      25.408   4.222  49.731  1.00  0.00     0.030 A 
ENDROOT
BRANCH   7   9
HETATM    9  C8  UNL     1      23.533   3.053  50.881  1.00  0.00     0.209 C 
HETATM   10  C9  UNL     1      23.391   3.708  52.175  1.00  0.00     0.027 C 
HETATM   11  C10 UNL     1      24.418   3.334  52.928  1.00  0.00     0.009 C 
HETATM   12  C11 UNL     1      24.399   2.021  53.114  1.00  0.00     0.081 C 
HETATM   13  C15 UNL     1      23.432   1.182  52.486  1.00  0.00     0.053 C 
HETATM   14  C16 UNL     1      22.523   0.485  51.879  1.00  0.00     0.081 C 
HETATM   15  N1  UNL     1      21.443   0.327  51.032  1.00  0.00    -0.381 NA
HETATM   16  C17 UNL     1      21.373   0.922  49.903  1.00  0.00     0.399 C 
HETATM   17  N2  UNL     1      22.366   1.792  49.387  1.00  0.00    -0.259 N 
HETATM   18  O3  UNL     1      22.335   2.817  50.227  1.00  0.00    -0.265 OA
HETATM   19  H17 UNL     1      22.446   1.015  48.682  1.00  0.00     0.195 HD
BRANCH  12  20
HETATM   20  O1  UNL     1      25.476   2.037  53.959  1.00  0.00    -0.348 OA
BRANCH  20  21
HETATM   21  C12 UNL     1      26.708   1.375  53.698  1.00  0.00     0.201 C 
BRANCH  21  22
HETATM   22  C13 UNL     1      27.025   0.337  54.718  1.00  0.00     0.193 C 
BRANCH  22  23
HETATM   23  O2  UNL     1      27.262  -0.877  54.096  1.00  0.00    -0.394 OA
HETATM   24  C14 UNL     1      26.685  -1.051  52.872  1.00  0.00     0.201 C 
ENDBRANCH  22  23
ENDBRANCH  21  22
ENDBRANCH  20  21
ENDBRANCH  12  20
ENDBRANCH   7   9
TORSDOF 5
ENDMDL
MODEL 9
REMARK VINA RESULT:      -7.0      2.949      5.033
REMARK  5 active torsions:
REMARK  status: ('A' for Active; 'I' for Inactive)
REMARK    1  A    between atoms: C7_7  and  C8_8 
REMARK    2  A    between atoms: C11_11  and  O1_12 
REMARK    3  A    between atoms: O1_12  and  C12_13 
REMARK    4  A    between atoms: C12_13  and  C13_14 
REMARK    5  A    between atoms: C13_14  and  O2_15 
ROOT
HETATM    1  C1  UNL     1      28.992  -2.347  53.088  1.00  0.00     0.018 C 
HETATM    2  C2  UNL     1      28.267  -1.390  53.210  1.00  0.00    -0.078 C 
HETATM    3  C3  UNL     1      27.396  -0.238  53.334  1.00  0.00     0.017 A 
HETATM    4  C4  UNL     1      27.986   1.001  53.546  1.00  0.00     0.020 A 
HETATM    5  C5  UNL     1      27.251   2.154  53.677  1.00  0.00     0.002 A 
HETATM    6  C6  UNL     1      25.890   2.010  53.585  1.00  0.00     0.010 A 
HETATM    7  C7  UNL     1      25.238   0.815  53.373  1.00  0.00    -0.022 A 
HETATM    8  C18 UNL     1      26.040  -0.299  53.253  1.00  0.00     0.030 A 
ENDROOT
BRANCH   7   9
HETATM    9  C8  UNL     1      23.724   0.618  53.271  1.00  0.00     0.209 C 
HETATM   10  C9  UNL     1      23.554   0.909  51.853  1.00  0.00     0.027 C 
HETATM   11  C10 UNL     1      23.074   2.143  51.753  1.00  0.00     0.009 C 
HETATM   12  C11 UNL     1      21.891   2.227  52.347  1.00  0.00     0.081 C 
HETATM   13  C15 UNL     1      21.320   1.128  53.054  1.00  0.00     0.053 C 
HETATM   14  C16 UNL     1      20.868   0.087  53.679  1.00  0.00     0.081 C 
HETATM   15  N1  UNL     1      20.946  -1.213  54.140  1.00  0.00    -0.381 NA
HETATM   16  C17 UNL     1      22.013  -1.684  54.664  1.00  0.00     0.399 C 
HETATM   17  N2  UNL     1      23.216  -0.954  54.838  1.00  0.00    -0.259 N 
HETATM   18  O3  UNL     1      23.613  -0.724  53.594  1.00  0.00    -0.265 OA
HETATM   19  H17 UNL     1      22.964  -1.097  55.850  1.00  0.00     0.195 HD
BRANCH  12  20
HETATM   20  O1  UNL     1      21.696   3.527  51.967  1.00  0.00    -0.348 OA
BRANCH  20  21
HETATM   21  C12 UNL     1      22.548   4.238  51.075  1.00  0.00     0.201 C 
BRANCH  21  22
HETATM   22  C13 UNL     1      22.430   5.714  51.227  1.00  0.00     0.193 C 
BRANCH  22  23
HETATM   23  O2  UNL     1      23.473   6.340  50.566  1.00  0.00    -0.394 OA
HETATM   24  C14 UNL     1      23.622   7.676  50.800  1.00  0.00     0.201 C 
ENDBRANCH  22  23
ENDBRANCH  21  22
ENDBRANCH  20  21
ENDBRANCH  12  20
ENDBRANCH   7   9
TORSDOF 5
ENDMDL
