MODEL 1
REMARK VINA RESULT:      -8.8      0.000      0.000
REMARK  7 active torsions:
REMARK  status: ('A' for Active; 'I' for Inactive)
REMARK    1  A    between atoms: C2_2  and  C4_4 
REMARK    2  A    between atoms: C4_4  and  C5_5 
REMARK    3  A    between atoms: C6_7  and  N2_8 
REMARK       I    between atoms: N2_8  and  C7_9 
REMARK       I    between atoms: C7_9  and  N3_10 
REMARK       I    between atoms: C7_9  and  N4_11 
REMARK    4  A    between atoms: C10_14  and  O1_15 
REMARK    5  A    between atoms: O1_15  and  C11_16 
REMARK    6  A    between atoms: C11_16  and  C12_17 
REMARK    7  A    between atoms: C12_17  and  N5_18 
ROOT
HETATM    1  N2  UNL     1      29.365   5.682  48.967  1.00  0.00    -0.337 N 
HETATM    2  C7  UNL     1      28.147   5.970  48.225  1.00  0.00     0.290 C 
HETATM    3  N3  UNL     1      28.103   7.242  47.615  1.00  0.00    -0.394 N 
HETATM    4  N4  UNL     1      26.998   5.526  48.961  1.00  0.00    -0.318 N 
HETATM    5  C8  UNL     1      26.904   4.082  49.077  1.00  0.00     0.094 A 
HETATM    6  C9  UNL     1      25.909   3.459  49.728  1.00  0.00     0.027 A 
HETATM    7  C10 UNL     1      24.801   4.095  50.405  1.00  0.00     0.181 A 
HETATM    8  C17 UNL     1      24.916   5.574  50.264  1.00  0.00     0.001 A 
HETATM    9  C18 UNL     1      23.965   6.408  50.835  1.00  0.00     0.012 A 
HETATM   10  C19 UNL     1      23.991   7.805  50.771  1.00  0.00     0.001 A 
HETATM   11  C20 UNL     1      25.062   8.373  50.079  1.00  0.00     0.002 A 
HETATM   12  C21 UNL     1      25.999   7.568  49.517  1.00  0.00     0.030 A 
HETATM   13  C22 UNL     1      25.934   6.204  49.603  1.00  0.00     0.046 A 
HETATM   14  H10 UNL     1      29.314   5.468  49.996  1.00  0.00     0.165 HD
HETATM   15  H12 UNL     1      27.749   7.279  46.648  1.00  0.00     0.153 HD
HETATM   16  H13 UNL     1      28.878   7.886  47.841  1.00  0.00     0.153 HD
ENDROOT
BRANCH   1  17
HETATM   17  C6  UNL     1      30.663   5.662  48.405  1.00  0.00     0.128 A 
HETATM   18  N1  UNL     1      31.953   6.257  48.568  1.00  0.00    -0.236 NA
HETATM   19  C5  UNL     1      32.385   5.550  47.559  1.00  0.00     0.041 A 
HETATM   20  C23 UNL     1      31.080   4.922  47.366  1.00  0.00     0.077 A 
BRANCH  19  21
HETATM   21  C4  UNL     1      33.689   5.432  46.881  1.00  0.00     0.063 C 
BRANCH  21  22
HETATM   22  C2  UNL     1      34.079   3.978  46.663  1.00  0.00    -0.017 C 
HETATM   23  C1  UNL     1      34.702   3.379  47.915  1.00  0.00     0.010 C 
HETATM   24  C3  UNL     1      35.089   3.880  45.552  1.00  0.00     0.010 C 
ENDBRANCH  21  22
ENDBRANCH  19  21
ENDBRANCH   1  17
BRANCH   7  25
HETATM   25  O1  UNL     1      24.577   3.759  51.744  1.00  0.00    -0.376 OA
BRANCH  25  26
HETATM   26  C11 UNL     1      24.827   2.419  51.896  1.00  0.00     0.189 C 
BRANCH  26  27
HETATM   27  C12 UNL     1      25.133   1.940  53.271  1.00  0.00     0.152 C 
BRANCH  27  28
HETATM   28  N5  UNL     1      26.428   1.337  53.450  1.00  0.00    -0.346 N 
HETATM   29  C13 UNL     1      27.498   2.265  53.048  1.00  0.00     0.152 C 
HETATM   30  C14 UNL     1      28.837   1.764  53.539  1.00  0.00     0.188 C 
HETATM   31  O2  UNL     1      28.787   1.239  54.804  1.00  0.00    -0.380 OA
HETATM   32  C15 UNL     1      28.038   0.098  54.954  1.00  0.00     0.270 C 
HETATM   33  C16 UNL     1      26.966   0.110  53.925  1.00  0.00     0.243 C 
HETATM   34  O3  UNL     1      26.358  -0.815  53.312  1.00  0.00    -0.271 OA
ENDBRANCH  27  28
ENDBRANCH  26  27
ENDBRANCH  25  26
ENDBRANCH   7  25
TORSDOF 7
ENDMDL
MODEL 2
REMARK VINA RESULT:      -8.4      1.106      1.707
REMARK  7 active torsions:
REMARK  status: ('A' for Active; 'I' for Inactive)
REMARK    1  A    between atoms: C2_2  and  C4_4 
REMARK    2  A    between atoms: C4_4  and  C5_5 
REMARK    3  A    between atoms: C6_7  and  N2_8 
REMARK       I    between atoms: N2_8  and  C7_9 
REMARK       I    between atoms: C7_9  and  N3_10 
REMARK       I    between atoms: C7_9  and  N4_11 
REMARK    4  A    between atoms: C10_14  and  O1_15 
REMARK    5  A    between atoms: O1_15  and  C11_16 
REMARK    6  A    between atoms: C11_16  and  C12_17 
REMARK    7  A    between atoms: C12_17  and  N5_18 
ROOT
HETATM    1  N2  UNL     1      29.567   5.979  48.875  1.00  0.00    -0.337 N 
HETATM    2  C7  UNL     1      28.357   6.239  48.109  1.00  0.00     0.290 C 
HETATM    3  N3  UNL     1      28.301   7.505  47.486  1.00  0.00    -0.394 N 
HETATM    4  N4  UNL     1      27.203   5.781  48.828  1.00  0.00    -0.318 N 
HETATM    5  C8  UNL     1      27.132   4.337  48.955  1.00  0.00     0.094 A 
HETATM    6  C9  UNL     1      26.136   3.702  49.595  1.00  0.00     0.027 A 
HETATM    7  C10 UNL     1      25.006   4.325  50.246  1.00  0.00     0.181 A 
HETATM    8  C17 UNL     1      25.098   5.804  50.094  1.00  0.00     0.001 A 
HETATM    9  C18 UNL     1      24.123   6.626  50.640  1.00  0.00     0.012 A 
HETATM   10  C19 UNL     1      24.125   8.023  50.565  1.00  0.00     0.001 A 
HETATM   11  C20 UNL     1      25.198   8.604  49.887  1.00  0.00     0.002 A 
HETATM   12  C21 UNL     1      26.159   7.810  49.348  1.00  0.00     0.030 A 
HETATM   13  C22 UNL     1      26.116   6.446  49.445  1.00  0.00     0.046 A 
HETATM   14  H10 UNL     1      29.501   5.773  49.904  1.00  0.00     0.165 HD
HETATM   15  H12 UNL     1      27.964   7.528  46.513  1.00  0.00     0.153 HD
HETATM   16  H13 UNL     1      29.061   8.164  47.720  1.00  0.00     0.153 HD
ENDROOT
BRANCH   1  17
HETATM   17  C6  UNL     1      30.874   5.977  48.336  1.00  0.00     0.128 A 
HETATM   18  N1  UNL     1      31.594   6.372  47.165  1.00  0.00    -0.236 NA
HETATM   19  C5  UNL     1      32.691   5.919  47.709  1.00  0.00     0.041 A 
HETATM   20  C23 UNL     1      31.986   5.504  48.920  1.00  0.00     0.077 A 
BRANCH  19  21
HETATM   21  C4  UNL     1      34.096   5.855  47.269  1.00  0.00     0.063 C 
BRANCH  21  22
HETATM   22  C2  UNL     1      34.445   4.487  46.702  1.00  0.00    -0.017 C 
HETATM   23  C1  UNL     1      33.294   3.916  45.887  1.00  0.00     0.010 C 
HETATM   24  C3  UNL     1      34.738   3.527  47.823  1.00  0.00     0.010 C 
ENDBRANCH  21  22
ENDBRANCH  19  21
ENDBRANCH   1  17
BRANCH   7  25
HETATM   25  O1  UNL     1      24.764   3.997  51.584  1.00  0.00    -0.376 OA
BRANCH  25  26
HETATM   26  C11 UNL     1      23.867   2.958  51.614  1.00  0.00     0.189 C 
BRANCH  26  27
HETATM   27  C12 UNL     1      23.807   2.153  52.862  1.00  0.00     0.152 C 
BRANCH  27  28
HETATM   28  N5  UNL     1      24.959   1.334  53.136  1.00  0.00    -0.346 N 
HETATM   29  C13 UNL     1      24.590  -0.092  53.177  1.00  0.00     0.152 C 
HETATM   30  C14 UNL     1      25.829  -0.954  53.135  1.00  0.00     0.188 C 
HETATM   31  O2  UNL     1      26.782  -0.490  52.267  1.00  0.00    -0.380 OA
HETATM   32  C15 UNL     1      27.348   0.721  52.583  1.00  0.00     0.270 C 
HETATM   33  C16 UNL     1      26.352   1.508  53.355  1.00  0.00     0.243 C 
HETATM   34  O3  UNL     1      26.471   2.390  54.255  1.00  0.00    -0.271 OA
ENDBRANCH  27  28
ENDBRANCH  26  27
ENDBRANCH  25  26
ENDBRANCH   7  25
TORSDOF 7
ENDMDL
MODEL 3
REMARK VINA RESULT:      -8.2      6.376     11.610
REMARK  7 active torsions:
REMARK  status: ('A' for Active; 'I' for Inactive)
REMARK    1  A    between atoms: C2_2  and  C4_4 
REMARK    2  A    between atoms: C4_4  and  C5_5 
REMARK    3  A    between atoms: C6_7  and  N2_8 
REMARK       I    between atoms: N2_8  and  C7_9 
REMARK       I    between atoms: C7_9  and  N3_10 
REMARK       I    between atoms: C7_9  and  N4_11 
REMARK    4  A    between atoms: C10_14  and  O1_15 
REMARK    5  A    between atoms: O1_15  and  C11_16 
REMARK    6  A    between atoms: C11_16  and  C12_17 
REMARK    7  A    between atoms: C12_17  and  N5_18 
ROOT
HETATM    1  N2  UNL     1      18.340   1.758  51.937  1.00  0.00    -0.337 N 
HETATM    2  C7  UNL     1      18.955   0.462  51.690  1.00  0.00     0.290 C 
HETATM    3  N3  UNL     1      18.313  -0.635  52.305  1.00  0.00    -0.394 N 
HETATM    4  N4  UNL     1      20.383   0.561  51.791  1.00  0.00    -0.318 N 
HETATM    5  C8  UNL     1      20.988   1.350  50.733  1.00  0.00     0.094 A 
HETATM    6  C9  UNL     1      22.310   1.571  50.642  1.00  0.00     0.027 A 
HETATM    7  C10 UNL     1      23.321   1.083  51.552  1.00  0.00     0.181 A 
HETATM    8  C17 UNL     1      22.677   0.270  52.622  1.00  0.00     0.001 A 
HETATM    9  C18 UNL     1      23.446  -0.308  53.622  1.00  0.00     0.012 A 
HETATM   10  C19 UNL     1      22.937  -1.074  54.675  1.00  0.00     0.001 A 
HETATM   11  C20 UNL     1      21.552  -1.252  54.698  1.00  0.00     0.002 A 
HETATM   12  C21 UNL     1      20.788  -0.691  53.726  1.00  0.00     0.030 A 
HETATM   13  C22 UNL     1      21.329   0.051  52.712  1.00  0.00     0.046 A 
HETATM   14  H10 UNL     1      18.891   2.518  52.410  1.00  0.00     0.165 HD
HETATM   15  H12 UNL     1      18.188  -1.479  51.729  1.00  0.00     0.153 HD
HETATM   16  H13 UNL     1      17.544  -0.410  52.955  1.00  0.00     0.153 HD
ENDROOT
BRANCH   1  17
HETATM   17  C6  UNL     1      17.013   2.098  51.583  1.00  0.00     0.128 A 
HETATM   18  N1  UNL     1      15.797   1.500  51.127  1.00  0.00    -0.236 NA
HETATM   19  C5  UNL     1      15.239   2.680  51.127  1.00  0.00     0.041 A 
HETATM   20  C23 UNL     1      16.465   3.323  51.593  1.00  0.00     0.077 A 
BRANCH  19  21
HETATM   21  C4  UNL     1      13.891   3.170  50.789  1.00  0.00     0.063 C 
BRANCH  21  22
HETATM   22  C2  UNL     1      12.958   3.123  51.990  1.00  0.00    -0.017 C 
HETATM   23  C1  UNL     1      11.698   2.330  51.681  1.00  0.00     0.010 C 
HETATM   24  C3  UNL     1      12.544   4.519  52.371  1.00  0.00     0.010 C 
ENDBRANCH  21  22
ENDBRANCH  19  21
ENDBRANCH   1  17
BRANCH   7  25
HETATM   25  O1  UNL     1      24.191   2.018  52.122  1.00  0.00    -0.376 OA
BRANCH  25  26
HETATM   26  C11 UNL     1      25.315   2.088  51.339  1.00  0.00     0.189 C 
BRANCH  26  27
HETATM   27  C12 UNL     1      26.627   2.102  52.040  1.00  0.00     0.152 C 
BRANCH  27  28
HETATM   28  N5  UNL     1      26.897   0.970  52.888  1.00  0.00    -0.346 N 
HETATM   29  C13 UNL     1      26.802  -0.288  52.127  1.00  0.00     0.152 C 
HETATM   30  C14 UNL     1      27.399  -1.426  52.922  1.00  0.00     0.188 C 
HETATM   31  O2  UNL     1      28.546  -1.079  53.586  1.00  0.00    -0.380 OA
HETATM   32  C15 UNL     1      28.408  -0.143  54.581  1.00  0.00     0.270 C 
HETATM   33  C16 UNL     1      27.249   0.724  54.242  1.00  0.00     0.243 C 
HETATM   34  O3  UNL     1      26.419   1.360  54.955  1.00  0.00    -0.271 OA
ENDBRANCH  27  28
ENDBRANCH  26  27
ENDBRANCH  25  26
ENDBRANCH   7  25
TORSDOF 7
ENDMDL
MODEL 4
REMARK VINA RESULT:      -8.2      6.167      9.288
REMARK  7 active torsions:
REMARK  status: ('A' for Active; 'I' for Inactive)
REMARK    1  A    between atoms: C2_2  and  C4_4 
REMARK    2  A    between atoms: C4_4  and  C5_5 
REMARK    3  A    between atoms: C6_7  and  N2_8 
REMARK       I    between atoms: N2_8  and  C7_9 
REMARK       I    between atoms: C7_9  and  N3_10 
REMARK       I    between atoms: C7_9  and  N4_11 
REMARK    4  A    between atoms: C10_14  and  O1_15 
REMARK    5  A    between atoms: O1_15  and  C11_16 
REMARK    6  A    between atoms: C11_16  and  C12_17 
REMARK    7  A    between atoms: C12_17  and  N5_18 
ROOT
HETATM    1  N2  UNL     1      23.158  -0.169  53.100  1.00  0.00    -0.337 N 
HETATM    2  C7  UNL     1      22.034   0.139  53.972  1.00  0.00     0.290 C 
HETATM    3  N3  UNL     1      21.836  -0.765  55.039  1.00  0.00    -0.394 N 
HETATM    4  N4  UNL     1      20.895   0.537  53.195  1.00  0.00    -0.318 N 
HETATM    5  C8  UNL     1      21.066   1.811  52.522  1.00  0.00     0.094 A 
HETATM    6  C9  UNL     1      20.123   2.365  51.742  1.00  0.00     0.027 A 
HETATM    7  C10 UNL     1      18.824   1.805  51.445  1.00  0.00     0.181 A 
HETATM    8  C17 UNL     1      18.670   0.503  52.154  1.00  0.00     0.001 A 
HETATM    9  C18 UNL     1      17.500  -0.231  52.023  1.00  0.00     0.012 A 
HETATM   10  C19 UNL     1      17.263  -1.467  52.634  1.00  0.00     0.001 A 
HETATM   11  C20 UNL     1      18.296  -1.974  53.425  1.00  0.00     0.002 A 
HETATM   12  C21 UNL     1      19.446  -1.265  53.560  1.00  0.00     0.030 A 
HETATM   13  C22 UNL     1      19.635  -0.058  52.945  1.00  0.00     0.046 A 
HETATM   14  H10 UNL     1      22.994  -0.348  52.077  1.00  0.00     0.165 HD
HETATM   15  H12 UNL     1      21.633  -0.354  55.961  1.00  0.00     0.153 HD
HETATM   16  H13 UNL     1      22.428  -1.611  55.038  1.00  0.00     0.153 HD
ENDROOT
BRANCH   1  17
HETATM   17  C6  UNL     1      24.505  -0.250  53.524  1.00  0.00     0.128 A 
HETATM   18  N1  UNL     1      25.311  -0.817  54.561  1.00  0.00    -0.236 NA
HETATM   19  C5  UNL     1      26.366  -0.291  54.001  1.00  0.00     0.041 A 
HETATM   20  C23 UNL     1      25.573   0.302  52.927  1.00  0.00     0.077 A 
BRANCH  19  21
HETATM   21  C4  UNL     1      27.803  -0.297  54.329  1.00  0.00     0.063 C 
BRANCH  21  22
HETATM   22  C2  UNL     1      28.627  -0.959  53.234  1.00  0.00    -0.017 C 
HETATM   23  C1  UNL     1      28.190  -2.398  53.007  1.00  0.00     0.010 C 
HETATM   24  C3  UNL     1      30.080  -0.973  53.624  1.00  0.00     0.010 C 
ENDBRANCH  21  22
ENDBRANCH  19  21
ENDBRANCH   1  17
BRANCH   7  25
HETATM   25  O1  UNL     1      18.469   1.661  50.100  1.00  0.00    -0.376 OA
BRANCH  25  26
HETATM   26  C11 UNL     1      18.928   2.759  49.417  1.00  0.00     0.189 C 
BRANCH  26  27
HETATM   27  C12 UNL     1      19.848   2.509  48.276  1.00  0.00     0.152 C 
BRANCH  27  28
HETATM   28  N5  UNL     1      21.170   3.064  48.403  1.00  0.00    -0.346 N 
HETATM   29  C13 UNL     1      21.109   4.522  48.607  1.00  0.00     0.152 C 
HETATM   30  C14 UNL     1      22.452   5.043  49.063  1.00  0.00     0.188 C 
HETATM   31  O2  UNL     1      23.072   4.222  49.967  1.00  0.00    -0.380 OA
HETATM   32  C15 UNL     1      23.444   2.984  49.503  1.00  0.00     0.270 C 
HETATM   33  C16 UNL     1      22.514   2.602  48.409  1.00  0.00     0.243 C 
HETATM   34  O3  UNL     1      22.657   1.887  47.375  1.00  0.00    -0.271 OA
ENDBRANCH  27  28
ENDBRANCH  26  27
ENDBRANCH  25  26
ENDBRANCH   7  25
TORSDOF 7
ENDMDL
MODEL 5
REMARK VINA RESULT:      -8.2      5.148      7.102
REMARK  7 active torsions:
REMARK  status: ('A' for Active; 'I' for Inactive)
REMARK    1  A    between atoms: C2_2  and  C4_4 
REMARK    2  A    between atoms: C4_4  and  C5_5 
REMARK    3  A    between atoms: C6_7  and  N2_8 
REMARK       I    between atoms: N2_8  and  C7_9 
REMARK       I    between atoms: C7_9  and  N3_10 
REMARK       I    between atoms: C7_9  and  N4_11 
REMARK    4  A    between atoms: C10_14  and  O1_15 
REMARK    5  A    between atoms: O1_15  and  C11_16 
REMARK    6  A    between atoms: C11_16  and  C12_17 
REMARK    7  A    between atoms: C12_17  and  N5_18 
ROOT
HETATM    1  N2  UNL     1      24.408   2.294  51.340  1.00  0.00    -0.337 N 
HETATM    2  C7  UNL     1      24.819   3.334  50.407  1.00  0.00     0.290 C 
HETATM    3  N3  UNL     1      25.805   4.220  50.892  1.00  0.00    -0.394 N 
HETATM    4  N4  UNL     1      23.674   3.885  49.740  1.00  0.00    -0.318 N 
HETATM    5  C8  UNL     1      23.025   2.955  48.834  1.00  0.00     0.094 A 
HETATM    6  C9  UNL     1      21.936   3.269  48.113  1.00  0.00     0.027 A 
HETATM    7  C10 UNL     1      21.244   4.538  48.119  1.00  0.00     0.181 A 
HETATM    8  C17 UNL     1      21.934   5.476  49.049  1.00  0.00     0.001 A 
HETATM    9  C18 UNL     1      21.454   6.765  49.228  1.00  0.00     0.012 A 
HETATM   10  C19 UNL     1      22.019   7.713  50.086  1.00  0.00     0.001 A 
HETATM   11  C20 UNL     1      23.147   7.306  50.801  1.00  0.00     0.002 A 
HETATM   12  C21 UNL     1      23.627   6.047  50.635  1.00  0.00     0.030 A 
HETATM   13  C22 UNL     1      23.042   5.151  49.783  1.00  0.00     0.046 A 
HETATM   14  H10 UNL     1      23.404   2.232  51.646  1.00  0.00     0.165 HD
HETATM   15  H12 UNL     1      26.574   4.453  50.248  1.00  0.00     0.153 HD
HETATM   16  H13 UNL     1      26.060   4.121  51.888  1.00  0.00     0.153 HD
ENDROOT
BRANCH   1  17
HETATM   17  C6  UNL     1      25.274   1.322  51.892  1.00  0.00     0.128 A 
HETATM   18  N1  UNL     1      25.348   0.382  52.967  1.00  0.00    -0.236 NA
HETATM   19  C5  UNL     1      26.534   0.028  52.551  1.00  0.00     0.041 A 
HETATM   20  C23 UNL     1      26.491   0.977  51.441  1.00  0.00     0.077 A 
BRANCH  19  21
HETATM   21  C4  UNL     1      27.528  -0.953  53.022  1.00  0.00     0.063 C 
BRANCH  21  22
HETATM   22  C2  UNL     1      28.775  -0.272  53.565  1.00  0.00    -0.017 C 
HETATM   23  C1  UNL     1      29.942  -1.244  53.652  1.00  0.00     0.010 C 
HETATM   24  C3  UNL     1      28.510   0.254  54.949  1.00  0.00     0.010 C 
ENDBRANCH  21  22
ENDBRANCH  19  21
ENDBRANCH   1  17
BRANCH   7  25
HETATM   25  O1  UNL     1      19.871   4.530  48.382  1.00  0.00    -0.376 OA
BRANCH  25  26
HETATM   26  C11 UNL     1      19.393   3.271  48.118  1.00  0.00     0.189 C 
BRANCH  26  27
HETATM   27  C12 UNL     1      18.596   2.613  49.187  1.00  0.00     0.152 C 
BRANCH  27  28
HETATM   28  N5  UNL     1      19.237   2.508  50.472  1.00  0.00    -0.346 N 
HETATM   29  C13 UNL     1      19.959   1.230  50.594  1.00  0.00     0.152 C 
HETATM   30  C14 UNL     1      20.885   1.265  51.787  1.00  0.00     0.188 C 
HETATM   31  O2  UNL     1      21.530   2.465  51.936  1.00  0.00    -0.380 OA
HETATM   32  C15 UNL     1      20.734   3.546  52.224  1.00  0.00     0.270 C 
HETATM   33  C16 UNL     1      19.388   3.296  51.645  1.00  0.00     0.243 C 
HETATM   34  O3  UNL     1      18.227   3.662  51.990  1.00  0.00    -0.271 OA
ENDBRANCH  27  28
ENDBRANCH  26  27
ENDBRANCH  25  26
ENDBRANCH   7  25
TORSDOF 7
ENDMDL
MODEL 6
REMARK VINA RESULT:      -8.1      5.089      6.644
REMARK  7 active torsions:
REMARK  status: ('A' for Active; 'I' for Inactive)
REMARK    1  A    between atoms: C2_2  and  C4_4 
REMARK    2  A    between atoms: C4_4  and  C5_5 
REMARK    3  A    between atoms: C6_7  and  N2_8 
REMARK       I    between atoms: N2_8  and  C7_9 
REMARK       I    between atoms: C7_9  and  N3_10 
REMARK       I    between atoms: C7_9  and  N4_11 
REMARK    4  A    between atoms: C10_14  and  O1_15 
REMARK    5  A    between atoms: O1_15  and  C11_16 
REMARK    6  A    between atoms: C11_16  and  C12_17 
REMARK    7  A    between atoms: C12_17  and  N5_18 
ROOT
HETATM    1  N2  UNL     1      24.883   3.037  51.849  1.00  0.00    -0.337 N 
HETATM    2  C7  UNL     1      24.810   3.869  50.657  1.00  0.00     0.290 C 
HETATM    3  N3  UNL     1      25.546   5.072  50.719  1.00  0.00    -0.394 N 
HETATM    4  N4  UNL     1      23.463   3.917  50.164  1.00  0.00    -0.318 N 
HETATM    5  C8  UNL     1      22.992   2.651  49.634  1.00  0.00     0.094 A 
HETATM    6  C9  UNL     1      21.760   2.478  49.127  1.00  0.00     0.027 A 
HETATM    7  C10 UNL     1      20.728   3.485  49.029  1.00  0.00     0.181 A 
HETATM    8  C17 UNL     1      21.239   4.775  49.571  1.00  0.00     0.001 A 
HETATM    9  C18 UNL     1      20.426   5.899  49.587  1.00  0.00     0.012 A 
HETATM   10  C19 UNL     1      20.805   7.149  50.085  1.00  0.00     0.001 A 
HETATM   11  C20 UNL     1      22.101   7.243  50.599  1.00  0.00     0.002 A 
HETATM   12  C21 UNL     1      22.906   6.150  50.589  1.00  0.00     0.030 A 
HETATM   13  C22 UNL     1      22.493   4.946  50.090  1.00  0.00     0.046 A 
HETATM   14  H10 UNL     1      24.004   2.801  52.377  1.00  0.00     0.165 HD
HETATM   15  H12 UNL     1      26.098   5.320  49.886  1.00  0.00     0.153 HD
HETATM   16  H13 UNL     1      25.970   5.303  51.632  1.00  0.00     0.153 HD
ENDROOT
BRANCH   1  17
HETATM   17  C6  UNL     1      26.077   2.495  52.380  1.00  0.00     0.128 A 
HETATM   18  N1  UNL     1      27.415   2.168  51.996  1.00  0.00    -0.236 NA
HETATM   19  C5  UNL     1      27.640   1.747  53.211  1.00  0.00     0.041 A 
HETATM   20  C23 UNL     1      26.280   2.070  53.636  1.00  0.00     0.077 A 
BRANCH  19  21
HETATM   21  C4  UNL     1      28.815   1.171  53.888  1.00  0.00     0.063 C 
BRANCH  21  22
HETATM   22  C2  UNL     1      28.710  -0.343  54.004  1.00  0.00    -0.017 C 
HETATM   23  C1  UNL     1      30.050  -1.012  53.737  1.00  0.00     0.010 C 
HETATM   24  C3  UNL     1      27.723  -0.867  52.997  1.00  0.00     0.010 C 
ENDBRANCH  21  22
ENDBRANCH  19  21
ENDBRANCH   1  17
BRANCH   7  25
HETATM   25  O1  UNL     1      19.479   3.194  49.587  1.00  0.00    -0.376 OA
BRANCH  25  26
HETATM   26  C11 UNL     1      19.345   1.829  49.646  1.00  0.00     0.189 C 
BRANCH  26  27
HETATM   27  C12 UNL     1      18.710   1.264  50.866  1.00  0.00     0.152 C 
BRANCH  27  28
HETATM   28  N5  UNL     1      19.571   1.124  52.012  1.00  0.00    -0.346 N 
HETATM   29  C13 UNL     1      19.329  -0.159  52.695  1.00  0.00     0.152 C 
HETATM   30  C14 UNL     1      20.439  -0.444  53.679  1.00  0.00     0.188 C 
HETATM   31  O2  UNL     1      21.681  -0.112  53.205  1.00  0.00    -0.380 OA
HETATM   32  C15 UNL     1      21.903   1.225  52.981  1.00  0.00     0.270 C 
HETATM   33  C16 UNL     1      20.600   1.861  52.657  1.00  0.00     0.243 C 
HETATM   34  O3  UNL     1      20.150   3.029  52.842  1.00  0.00    -0.271 OA
ENDBRANCH  27  28
ENDBRANCH  26  27
ENDBRANCH  25  26
ENDBRANCH   7  25
TORSDOF 7
ENDMDL
MODEL 7
REMARK VINA RESULT:      -8.1      2.475      3.097
REMARK  7 active torsions:
REMARK  status: ('A' for Active; 'I' for Inactive)
REMARK    1  A    between atoms: C2_2  and  C4_4 
REMARK    2  A    between atoms: C4_4  and  C5_5 
REMARK    3  A    between atoms: C6_7  and  N2_8 
REMARK       I    between atoms: N2_8  and  C7_9 
REMARK       I    between atoms: C7_9  and  N3_10 
REMARK       I    between atoms: C7_9  and  N4_11 
REMARK    4  A    between atoms: C10_14  and  O1_15 
REMARK    5  A    between atoms: O1_15  and  C11_16 
REMARK    6  A    between atoms: C11_16  and  C12_17 
REMARK    7  A    between atoms: C12_17  and  N5_18 
ROOT
HETATM    1  N2  UNL     1      28.241   7.447  49.199  1.00  0.00    -0.337 N 
HETATM    2  C7  UNL     1      26.993   7.143  48.516  1.00  0.00     0.290 C 
HETATM    3  N3  UNL     1      26.208   8.264  48.171  1.00  0.00    -0.394 N 
HETATM    4  N4  UNL     1      26.346   6.021  49.135  1.00  0.00    -0.318 N 
HETATM    5  C8  UNL     1      27.059   4.769  48.959  1.00  0.00     0.094 A 
HETATM    6  C9  UNL     1      26.628   3.600  49.462  1.00  0.00     0.027 A 
HETATM    7  C10 UNL     1      25.427   3.395  50.239  1.00  0.00     0.181 A 
HETATM    8  C17 UNL     1      24.710   4.692  50.397  1.00  0.00     0.001 A 
HETATM    9  C18 UNL     1      23.523   4.754  51.111  1.00  0.00     0.012 A 
HETATM   10  C19 UNL     1      22.784   5.921  51.328  1.00  0.00     0.001 A 
HETATM   11  C20 UNL     1      23.303   7.094  50.776  1.00  0.00     0.002 A 
HETATM   12  C21 UNL     1      24.465   7.047  50.075  1.00  0.00     0.030 A 
HETATM   13  C22 UNL     1      25.155   5.881  49.887  1.00  0.00     0.046 A 
HETATM   14  H10 UNL     1      28.416   7.067  50.164  1.00  0.00     0.165 HD
HETATM   15  H12 UNL     1      25.795   8.267  47.227  1.00  0.00     0.153 HD
HETATM   16  H13 UNL     1      26.531   9.177  48.529  1.00  0.00     0.153 HD
ENDROOT
BRANCH   1  17
HETATM   17  C6  UNL     1      29.280   8.241  48.660  1.00  0.00     0.128 A 
HETATM   18  N1  UNL     1      30.062   8.390  47.472  1.00  0.00    -0.236 NA
HETATM   19  C5  UNL     1      30.694   9.383  48.035  1.00  0.00     0.041 A 
HETATM   20  C23 UNL     1      29.913   9.259  49.264  1.00  0.00     0.077 A 
BRANCH  19  21
HETATM   21  C4  UNL     1      31.777  10.282  47.596  1.00  0.00     0.063 C 
BRANCH  21  22
HETATM   22  C2  UNL     1      32.812   9.547  46.757  1.00  0.00    -0.017 C 
HETATM   23  C1  UNL     1      33.783   8.769  47.632  1.00  0.00     0.010 C 
HETATM   24  C3  UNL     1      33.608  10.533  45.947  1.00  0.00     0.010 C 
ENDBRANCH  21  22
ENDBRANCH  19  21
ENDBRANCH   1  17
BRANCH   7  25
HETATM   25  O1  UNL     1      25.555   2.766  51.481  1.00  0.00    -0.376 OA
BRANCH  25  26
HETATM   26  C11 UNL     1      26.715   2.033  51.472  1.00  0.00     0.189 C 
BRANCH  26  27
HETATM   27  C12 UNL     1      27.585   2.130  52.674  1.00  0.00     0.152 C 
BRANCH  27  28
HETATM   28  N5  UNL     1      27.993   0.876  53.254  1.00  0.00    -0.346 N 
HETATM   29  C13 UNL     1      27.198  -0.237  52.709  1.00  0.00     0.152 C 
HETATM   30  C14 UNL     1      27.837  -1.559  53.063  1.00  0.00     0.188 C 
HETATM   31  O2  UNL     1      29.203  -1.543  52.962  1.00  0.00    -0.380 OA
HETATM   32  C15 UNL     1      29.864  -0.719  53.840  1.00  0.00     0.270 C 
HETATM   33  C16 UNL     1      28.959   0.408  54.185  1.00  0.00     0.243 C 
HETATM   34  O3  UNL     1      28.838   1.120  55.224  1.00  0.00    -0.271 OA
ENDBRANCH  27  28
ENDBRANCH  26  27
ENDBRANCH  25  26
ENDBRANCH   7  25
TORSDOF 7
ENDMDL
MODEL 8
REMARK VINA RESULT:      -8.0      4.284      9.555
REMARK  7 active torsions:
REMARK  status: ('A' for Active; 'I' for Inactive)
REMARK    1  A    between atoms: C2_2  and  C4_4 
REMARK    2  A    between atoms: C4_4  and  C5_5 
REMARK    3  A    between atoms: C6_7  and  N2_8 
REMARK       I    between atoms: N2_8  and  C7_9 
REMARK       I    between atoms: C7_9  and  N3_10 
REMARK       I    between atoms: C7_9  and  N4_11 
REMARK    4  A    between atoms: C10_14  and  O1_15 
REMARK    5  A    between atoms: O1_15  and  C11_16 
REMARK    6  A    between atoms: C11_16  and  C12_17 
REMARK    7  A    between atoms: C12_17  and  N5_18 
ROOT
HETATM    1  N2  UNL     1      25.437   3.831  51.094  1.00  0.00    -0.337 N 
HETATM    2  C7  UNL     1      25.719   3.765  49.667  1.00  0.00     0.290 C 
HETATM    3  N3  UNL     1      26.674   2.797  49.289  1.00  0.00    -0.394 N 
HETATM    4  N4  UNL     1      25.833   5.087  49.120  1.00  0.00    -0.318 N 
HETATM    5  C8  UNL     1      24.582   5.823  49.111  1.00  0.00     0.094 A 
HETATM    6  C9  UNL     1      24.470   7.077  48.645  1.00  0.00     0.027 A 
HETATM    7  C10 UNL     1      25.537   7.884  48.096  1.00  0.00     0.181 A 
HETATM    8  C17 UNL     1      26.806   7.104  48.110  1.00  0.00     0.001 A 
HETATM    9  C18 UNL     1      27.980   7.668  47.632  1.00  0.00     0.012 A 
HETATM   10  C19 UNL     1      29.222   7.026  47.615  1.00  0.00     0.001 A 
HETATM   11  C20 UNL     1      29.254   5.726  48.121  1.00  0.00     0.002 A 
HETATM   12  C21 UNL     1      28.112   5.162  48.592  1.00  0.00     0.030 A 
HETATM   13  C22 UNL     1      26.917   5.827  48.589  1.00  0.00     0.046 A 
HETATM   14  H10 UNL     1      25.612   4.724  51.622  1.00  0.00     0.165 HD
HETATM   15  H12 UNL     1      26.453   2.229  48.458  1.00  0.00     0.153 HD
HETATM   16  H13 UNL     1      27.161   2.308  50.057  1.00  0.00     0.153 HD
ENDROOT
BRANCH   1  17
HETATM   17  C6  UNL     1      24.927   2.759  51.862  1.00  0.00     0.128 A 
HETATM   18  N1  UNL     1      24.985   2.212  53.183  1.00  0.00    -0.236 NA
HETATM   19  C5  UNL     1      24.172   1.264  52.805  1.00  0.00     0.041 A 
HETATM   20  C23 UNL     1      24.089   1.796  51.447  1.00  0.00     0.077 A 
BRANCH  19  21
HETATM   21  C4  UNL     1      23.570   0.105  53.489  1.00  0.00     0.063 C 
BRANCH  21  22
HETATM   22  C2  UNL     1      22.079   0.302  53.720  1.00  0.00    -0.017 C 
HETATM   23  C1  UNL     1      21.577  -0.567  54.863  1.00  0.00     0.010 C 
HETATM   24  C3  UNL     1      21.314  -0.077  52.482  1.00  0.00     0.010 C 
ENDBRANCH  21  22
ENDBRANCH  19  21
ENDBRANCH   1  17
BRANCH   7  25
HETATM   25  O1  UNL     1      25.748   9.149  48.653  1.00  0.00    -0.376 OA
BRANCH  25  26
HETATM   26  C11 UNL     1      25.136  10.077  47.848  1.00  0.00     0.189 C 
BRANCH  26  27
HETATM   27  C12 UNL     1      25.974  10.722  46.802  1.00  0.00     0.152 C 
BRANCH  27  28
HETATM   28  N5  UNL     1      27.018  11.590  47.283  1.00  0.00    -0.346 N 
HETATM   29  C13 UNL     1      26.473  12.905  47.660  1.00  0.00     0.152 C 
HETATM   30  C14 UNL     1      27.492  13.684  48.458  1.00  0.00     0.188 C 
HETATM   31  O2  UNL     1      28.179  12.913  49.358  1.00  0.00    -0.380 OA
HETATM   32  C15 UNL     1      28.989  11.941  48.826  1.00  0.00     0.270 C 
HETATM   33  C16 UNL     1      28.419  11.530  47.516  1.00  0.00     0.243 C 
HETATM   34  O3  UNL     1      28.946  11.093  46.452  1.00  0.00    -0.271 OA
ENDBRANCH  27  28
ENDBRANCH  26  27
ENDBRANCH  25  26
ENDBRANCH   7  25
TORSDOF 7
ENDMDL
MODEL 9
REMARK VINA RESULT:      -7.9      4.257      7.328
REMARK  7 active torsions:
REMARK  status: ('A' for Active; 'I' for Inactive)
REMARK    1  A    between atoms: C2_2  and  C4_4 
REMARK    2  A    between atoms: C4_4  and  C5_5 
REMARK    3  A    between atoms: C6_7  and  N2_8 
REMARK       I    between atoms: N2_8  and  C7_9 
REMARK       I    between atoms: C7_9  and  N3_10 
REMARK       I    between atoms: C7_9  and  N4_11 
REMARK    4  A    between atoms: C10_14  and  O1_15 
REMARK    5  A    between atoms: O1_15  and  C11_16 
REMARK    6  A    between atoms: C11_16  and  C12_17 
REMARK    7  A    between atoms: C12_17  and  N5_18 
ROOT
HETATM    1  N2  UNL     1      24.852   3.353  50.336  1.00  0.00    -0.337 N 
HETATM    2  C7  UNL     1      24.714   3.203  51.778  1.00  0.00     0.290 C 
HETATM    3  N3  UNL     1      25.800   2.572  52.422  1.00  0.00    -0.394 N 
HETATM    4  N4  UNL     1      23.384   2.780  52.110  1.00  0.00    -0.318 N 
HETATM    5  C8  UNL     1      22.371   3.786  51.848  1.00  0.00     0.094 A 
HETATM    6  C9  UNL     1      21.063   3.593  52.085  1.00  0.00     0.027 A 
HETATM    7  C10 UNL     1      20.460   2.392  52.617  1.00  0.00     0.181 A 
HETATM    8  C17 UNL     1      21.520   1.379  52.885  1.00  0.00     0.001 A 
HETATM    9  C18 UNL     1      21.186   0.135  53.400  1.00  0.00     0.012 A 
HETATM   10  C19 UNL     1      22.103  -0.886  53.672  1.00  0.00     0.001 A 
HETATM   11  C20 UNL     1      23.442  -0.605  53.394  1.00  0.00     0.002 A 
HETATM   12  C21 UNL     1      23.782   0.609  52.889  1.00  0.00     0.030 A 
HETATM   13  C22 UNL     1      22.851   1.580  52.638  1.00  0.00     0.046 A 
HETATM   14  H10 UNL     1      24.149   2.907  49.694  1.00  0.00     0.165 HD
HETATM   15  H12 UNL     1      26.126   2.997  53.302  1.00  0.00     0.153 HD
HETATM   16  H13 UNL     1      26.531   2.179  51.808  1.00  0.00     0.153 HD
ENDROOT
BRANCH   1  17
HETATM   17  C6  UNL     1      25.889   4.074  49.699  1.00  0.00     0.128 A 
HETATM   18  N1  UNL     1      27.250   3.930  49.285  1.00  0.00    -0.236 NA
HETATM   19  C5  UNL     1      27.218   5.150  48.822  1.00  0.00     0.041 A 
HETATM   20  C23 UNL     1      25.827   5.330  49.231  1.00  0.00     0.077 A 
BRANCH  19  21
HETATM   21  C4  UNL     1      28.206   6.009  48.146  1.00  0.00     0.063 C 
BRANCH  21  22
HETATM   22  C2  UNL     1      27.640   7.390  47.850  1.00  0.00    -0.017 C 
HETATM   23  C1  UNL     1      28.201   7.951  46.551  1.00  0.00     0.010 C 
HETATM   24  C3  UNL     1      28.004   8.341  48.958  1.00  0.00     0.010 C 
ENDBRANCH  21  22
ENDBRANCH  19  21
ENDBRANCH   1  17
BRANCH   7  25
HETATM   25  O1  UNL     1      19.417   1.810  51.890  1.00  0.00    -0.376 OA
BRANCH  25  26
HETATM   26  C11 UNL     1      19.039   2.689  50.907  1.00  0.00     0.189 C 
BRANCH  26  27
HETATM   27  C12 UNL     1      19.216   2.246  49.499  1.00  0.00     0.152 C 
BRANCH  27  28
HETATM   28  N5  UNL     1      20.371   2.770  48.817  1.00  0.00    -0.346 N 
HETATM   29  C13 UNL     1      21.466   1.785  48.808  1.00  0.00     0.152 C 
HETATM   30  C14 UNL     1      22.536   2.201  47.827  1.00  0.00     0.188 C 
HETATM   31  O2  UNL     1      22.030   2.715  46.662  1.00  0.00    -0.380 OA
HETATM   32  C15 UNL     1      21.340   3.897  46.773  1.00  0.00     0.270 C 
HETATM   33  C16 UNL     1      20.746   3.958  48.134  1.00  0.00     0.243 C 
HETATM   34  O3  UNL     1      20.467   4.924  48.903  1.00  0.00    -0.271 OA
ENDBRANCH  27  28
ENDBRANCH  26  27
ENDBRANCH  25  26
ENDBRANCH   7  25
TORSDOF 7
ENDMDL
