MODEL 1
REMARK VINA RESULT:      -8.5      0.000      0.000
REMARK  4 active torsions:
REMARK  status: ('A' for Active; 'I' for Inactive)
REMARK    1  A    between atoms: N1_2  and  C3_4 
REMARK    2  A    between atoms: C3_4  and  C4_5 
REMARK    3  A    between atoms: C5_6  and  C6_7 
REMARK       I    between atoms: C6_7  and  N2_9 
REMARK    4  A    between atoms: N2_9  and  C7_10 
ROOT
HETATM    1  C7  UNL     1      24.961   3.285  50.906  1.00  0.00     0.130 A 
HETATM    2  C8  UNL     1      25.855   3.872  50.027  1.00  0.00     0.064 A 
HETATM    3  C9  UNL     1      25.812   5.225  49.806  1.00  0.00    -0.004 A 
HETATM    4  C10 UNL     1      24.862   5.943  50.487  1.00  0.00     0.084 A 
HETATM    5  C11 UNL     1      23.976   5.347  51.360  1.00  0.00     0.151 A 
HETATM    6  N3  UNL     1      24.026   4.002  51.573  1.00  0.00    -0.241 NA
HETATM    7  N4  UNL     1      24.483   7.169  50.614  1.00  0.00    -0.256 NA
HETATM    8  C12 UNL     1      24.970   8.389  50.025  1.00  0.00     0.158 C 
HETATM    9  C13 UNL     1      26.046   8.705  49.270  1.00  0.00     0.134 C 
HETATM   10  C14 UNL     1      26.105  10.118  48.911  1.00  0.00     0.119 C 
HETATM   11  N5  UNL     1      26.148  11.249  48.628  1.00  0.00    -0.190 NA
HETATM   12  N6  UNL     1      27.164   7.959  48.731  1.00  0.00    -0.334 N 
HETATM   13  C15 UNL     1      28.210   8.955  48.868  1.00  0.00     0.112 C 
HETATM   14  C16 UNL     1      29.459   8.544  48.615  1.00  0.00     0.026 C 
HETATM   15 BR1  UNL     1      30.912   9.766  48.773  1.00  0.00    -0.050 Br
HETATM   16  C17 UNL     1      29.766   7.195  48.160  1.00  0.00     0.019 C 
HETATM   17  C18 UNL     1      28.778   6.357  47.989  1.00  0.00     0.004 C 
HETATM   18  C19 UNL     1      27.320   6.650  48.210  1.00  0.00     0.137 C 
HETATM   19  C20 UNL     1      26.733   5.538  48.938  1.00  0.00     0.016 C 
ENDROOT
BRANCH   1  20
HETATM   20  N2  UNL     1      25.006   1.863  51.138  1.00  0.00    -0.308 N 
HETATM   21  C6  UNL     1      25.998   1.393  52.052  1.00  0.00     0.246 C 
HETATM   22  O1  UNL     1      26.588   2.437  52.417  1.00  0.00    -0.268 OA
HETATM   23  H11 UNL     1      24.260   1.396  50.563  1.00  0.00     0.170 HD
BRANCH  21  24
HETATM   24  C5  UNL     1      25.979  -0.041  52.231  1.00  0.00     0.072 C 
HETATM   25  C4  UNL     1      26.567  -1.138  52.634  1.00  0.00     0.008 C 
BRANCH  25  26
HETATM   26  C3  UNL     1      27.847  -1.537  53.250  1.00  0.00     0.299 C 
BRANCH  26  27
HETATM   27  N1  UNL     1      28.677  -0.381  53.540  1.00  0.00     0.083 N 
HETATM   28  C1  UNL     1      28.372   0.076  54.883  1.00  0.00     0.309 C 
HETATM   29  C2  UNL     1      30.095  -0.667  53.448  1.00  0.00     0.309 C 
ENDBRANCH  26  27
ENDBRANCH  25  26
ENDBRANCH  21  24
ENDBRANCH   1  20
TORSDOF 4
ENDMDL
MODEL 2
REMARK VINA RESULT:      -8.4      1.636      2.045
REMARK  4 active torsions:
REMARK  status: ('A' for Active; 'I' for Inactive)
REMARK    1  A    between atoms: N1_2  and  C3_4 
REMARK    2  A    between atoms: C3_4  and  C4_5 
REMARK    3  A    between atoms: C5_6  and  C6_7 
REMARK       I    between atoms: C6_7  and  N2_9 
REMARK    4  A    between atoms: N2_9  and  C7_10 
ROOT
HETATM    1  C7  UNL     1      24.102   4.505  50.844  1.00  0.00     0.130 A 
HETATM    2  C8  UNL     1      25.208   4.618  50.018  1.00  0.00     0.064 A 
HETATM    3  C9  UNL     1      25.726   5.855  49.732  1.00  0.00    -0.004 A 
HETATM    4  C10 UNL     1      25.107   6.942  50.295  1.00  0.00     0.084 A 
HETATM    5  C11 UNL     1      24.006   6.817  51.116  1.00  0.00     0.151 A 
HETATM    6  N3  UNL     1      23.498   5.584  51.395  1.00  0.00    -0.241 NA
HETATM    7  N4  UNL     1      25.248   8.223  50.332  1.00  0.00    -0.256 NA
HETATM    8  C12 UNL     1      26.218   9.099  49.731  1.00  0.00     0.158 C 
HETATM    9  C13 UNL     1      27.374   8.902  49.056  1.00  0.00     0.134 C 
HETATM   10  C14 UNL     1      28.018  10.143  48.639  1.00  0.00     0.119 C 
HETATM   11  N5  UNL     1      28.530  11.138  48.307  1.00  0.00    -0.190 NA
HETATM   12  N6  UNL     1      28.126   7.734  48.650  1.00  0.00    -0.334 N 
HETATM   13  C15 UNL     1      29.475   8.238  48.829  1.00  0.00     0.112 C 
HETATM   14  C16 UNL     1      30.465   7.346  48.702  1.00  0.00     0.026 C 
HETATM   15 BR1  UNL     1      32.275   7.896  48.926  1.00  0.00    -0.050 Br
HETATM   16  C17 UNL     1      30.228   5.955  48.339  1.00  0.00     0.019 C 
HETATM   17  C18 UNL     1      29.000   5.570  48.123  1.00  0.00     0.004 C 
HETATM   18  C19 UNL     1      27.772   6.435  48.205  1.00  0.00     0.137 C 
HETATM   19  C20 UNL     1      26.745   5.708  48.932  1.00  0.00     0.016 C 
ENDROOT
BRANCH   1  20
HETATM   20  N2  UNL     1      23.556   3.205  51.145  1.00  0.00    -0.308 N 
HETATM   21  C6  UNL     1      23.801   2.695  52.456  1.00  0.00     0.246 C 
HETATM   22  O1  UNL     1      24.472   3.597  53.010  1.00  0.00    -0.268 OA
HETATM   23  H11 UNL     1      23.046   2.841  50.301  1.00  0.00     0.170 HD
BRANCH  21  24
HETATM   24  C5  UNL     1      23.224   1.389  52.680  1.00  0.00     0.072 C 
HETATM   25  C4  UNL     1      23.339   0.161  53.115  1.00  0.00     0.008 C 
BRANCH  25  26
HETATM   26  C3  UNL     1      24.369  -0.692  53.740  1.00  0.00     0.299 C 
BRANCH  26  27
HETATM   27  N1  UNL     1      25.707  -0.218  53.430  1.00  0.00     0.083 N 
HETATM   28  C1  UNL     1      26.323   0.246  54.659  1.00  0.00     0.309 C 
HETATM   29  C2  UNL     1      26.545  -1.242  52.838  1.00  0.00     0.309 C 
ENDBRANCH  26  27
ENDBRANCH  25  26
ENDBRANCH  21  24
ENDBRANCH   1  20
TORSDOF 4
ENDMDL
MODEL 3
REMARK VINA RESULT:      -8.2      2.114      2.985
REMARK  4 active torsions:
REMARK  status: ('A' for Active; 'I' for Inactive)
REMARK    1  A    between atoms: N1_2  and  C3_4 
REMARK    2  A    between atoms: C3_4  and  C4_5 
REMARK    3  A    between atoms: C5_6  and  C6_7 
REMARK       I    between atoms: C6_7  and  N2_9 
REMARK    4  A    between atoms: N2_9  and  C7_10 
ROOT
HETATM    1  C7  UNL     1      24.367   3.452  51.264  1.00  0.00     0.130 A 
HETATM    2  C8  UNL     1      25.324   3.878  50.358  1.00  0.00     0.064 A 
HETATM    3  C9  UNL     1      25.451   5.213  50.072  1.00  0.00    -0.004 A 
HETATM    4  C10 UNL     1      24.604   6.078  50.717  1.00  0.00     0.084 A 
HETATM    5  C11 UNL     1      23.654   5.641  51.617  1.00  0.00     0.151 A 
HETATM    6  N3  UNL     1      23.535   4.313  51.895  1.00  0.00    -0.241 NA
HETATM    7  N4  UNL     1      24.385   7.346  50.785  1.00  0.00    -0.256 NA
HETATM    8  C12 UNL     1      25.019   8.465  50.139  1.00  0.00     0.158 C 
HETATM    9  C13 UNL     1      26.122   8.606  49.369  1.00  0.00     0.134 C 
HETATM   10  C14 UNL     1      26.358   9.981  48.943  1.00  0.00     0.119 C 
HETATM   11  N5  UNL     1      26.542  11.083  48.606  1.00  0.00    -0.190 NA
HETATM   12  N6  UNL     1      27.133   7.699  48.867  1.00  0.00    -0.334 N 
HETATM   13  C15 UNL     1      28.298   8.559  48.957  1.00  0.00     0.112 C 
HETATM   14  C16 UNL     1      29.483   7.981  48.724  1.00  0.00     0.026 C 
HETATM   15 BR1  UNL     1      31.080   9.015  48.823  1.00  0.00    -0.050 Br
HETATM   16  C17 UNL     1      29.613   6.584  48.335  1.00  0.00     0.019 C 
HETATM   17  C18 UNL     1      28.527   5.871  48.203  1.00  0.00     0.004 C 
HETATM   18  C19 UNL     1      27.118   6.357  48.410  1.00  0.00     0.137 C 
HETATM   19  C20 UNL     1      26.399   5.365  49.190  1.00  0.00     0.016 C 
ENDROOT
BRANCH   1  20
HETATM   20  N2  UNL     1      24.233   2.048  51.564  1.00  0.00    -0.308 N 
HETATM   21  C6  UNL     1      24.768   1.605  52.811  1.00  0.00     0.246 C 
HETATM   22  O1  UNL     1      25.237   2.648  53.325  1.00  0.00    -0.268 OA
HETATM   23  H11 UNL     1      23.737   1.571  50.769  1.00  0.00     0.170 HD
BRANCH  21  24
HETATM   24  C5  UNL     1      24.595   0.188  53.039  1.00  0.00     0.072 C 
HETATM   25  C4  UNL     1      23.928  -0.797  53.583  1.00  0.00     0.008 C 
BRANCH  25  26
HETATM   26  C3  UNL     1      22.739  -0.979  54.438  1.00  0.00     0.299 C 
BRANCH  26  27
HETATM   27  N1  UNL     1      21.512  -0.751  53.693  1.00  0.00     0.083 N 
HETATM   28  C1  UNL     1      20.492  -1.644  54.209  1.00  0.00     0.309 C 
HETATM   29  C2  UNL     1      21.039   0.616  53.791  1.00  0.00     0.309 C 
ENDBRANCH  26  27
ENDBRANCH  25  26
ENDBRANCH  21  24
ENDBRANCH   1  20
TORSDOF 4
ENDMDL
MODEL 4
REMARK VINA RESULT:      -8.0      1.708      2.348
REMARK  4 active torsions:
REMARK  status: ('A' for Active; 'I' for Inactive)
REMARK    1  A    between atoms: N1_2  and  C3_4 
REMARK    2  A    between atoms: C3_4  and  C4_5 
REMARK    3  A    between atoms: C5_6  and  C6_7 
REMARK       I    between atoms: C6_7  and  N2_9 
REMARK    4  A    between atoms: N2_9  and  C7_10 
ROOT
HETATM    1  C7  UNL     1      25.972   3.994  50.000  1.00  0.00     0.130 A 
HETATM    2  C8  UNL     1      27.153   4.133  49.293  1.00  0.00     0.064 A 
HETATM    3  C9  UNL     1      27.551   5.372  48.860  1.00  0.00    -0.004 A 
HETATM    4  C10 UNL     1      26.738   6.435  49.160  1.00  0.00     0.084 A 
HETATM    5  C11 UNL     1      25.562   6.283  49.866  1.00  0.00     0.151 A 
HETATM    6  N3  UNL     1      25.175   5.048  50.292  1.00  0.00    -0.241 NA
HETATM    7  N4  UNL     1      26.716   7.713  48.996  1.00  0.00    -0.256 NA
HETATM    8  C12 UNL     1      27.644   8.615  48.366  1.00  0.00     0.158 C 
HETATM    9  C13 UNL     1      28.893   8.481  47.864  1.00  0.00     0.134 C 
HETATM   10  C14 UNL     1      29.431   9.721  47.316  1.00  0.00     0.119 C 
HETATM   11  N5  UNL     1      29.858  10.716  46.879  1.00  0.00    -0.190 NA
HETATM   12  N6  UNL     1      29.827   7.382  47.745  1.00  0.00    -0.334 N 
HETATM   13  C15 UNL     1      31.070   8.092  47.983  1.00  0.00     0.112 C 
HETATM   14  C16 UNL     1      32.168   7.339  48.117  1.00  0.00     0.026 C 
HETATM   15 BR1  UNL     1      33.854   8.166  48.441  1.00  0.00    -0.050 Br
HETATM   16  C17 UNL     1      32.152   5.889  47.970  1.00  0.00     0.019 C 
HETATM   17  C18 UNL     1      31.017   5.307  47.689  1.00  0.00     0.004 C 
HETATM   18  C19 UNL     1      29.694   5.994  47.490  1.00  0.00     0.137 C 
HETATM   19  C20 UNL     1      28.676   5.250  48.212  1.00  0.00     0.016 C 
ENDROOT
BRANCH   1  20
HETATM   20  N2  UNL     1      25.553   2.691  50.455  1.00  0.00    -0.308 N 
HETATM   21  C6  UNL     1      26.395   2.043  51.409  1.00  0.00     0.246 C 
HETATM   22  O1  UNL     1      27.328   2.860  51.590  1.00  0.00    -0.268 OA
HETATM   23  H11 UNL     1      24.652   2.433  49.978  1.00  0.00     0.170 HD
BRANCH  21  24
HETATM   24  C5  UNL     1      25.908   0.744  51.815  1.00  0.00     0.072 C 
HETATM   25  C4  UNL     1      26.028  -0.328  52.554  1.00  0.00     0.008 C 
BRANCH  25  26
HETATM   26  C3  UNL     1      26.943  -0.857  53.584  1.00  0.00     0.299 C 
BRANCH  26  27
HETATM   27  N1  UNL     1      28.284  -0.320  53.425  1.00  0.00     0.083 N 
HETATM   28  C1  UNL     1      28.564   0.552  54.550  1.00  0.00     0.309 C 
HETATM   29  C2  UNL     1      29.300  -1.352  53.361  1.00  0.00     0.309 C 
ENDBRANCH  26  27
ENDBRANCH  25  26
ENDBRANCH  21  24
ENDBRANCH   1  20
TORSDOF 4
ENDMDL
MODEL 5
REMARK VINA RESULT:      -7.8      5.447      8.666
REMARK  4 active torsions:
REMARK  status: ('A' for Active; 'I' for Inactive)
REMARK    1  A    between atoms: N1_2  and  C3_4 
REMARK    2  A    between atoms: C3_4  and  C4_5 
REMARK    3  A    between atoms: C5_6  and  C6_7 
REMARK       I    between atoms: C6_7  and  N2_9 
REMARK    4  A    between atoms: N2_9  and  C7_10 
ROOT
HETATM    1  C7  UNL     1      20.589  -0.221  53.351  1.00  0.00     0.130 A 
HETATM    2  C8  UNL     1      21.212   0.967  53.010  1.00  0.00     0.064 A 
HETATM    3  C9  UNL     1      22.578   1.069  53.080  1.00  0.00    -0.004 A 
HETATM    4  C10 UNL     1      23.272  -0.040  53.494  1.00  0.00     0.084 A 
HETATM    5  C11 UNL     1      22.639  -1.218  53.831  1.00  0.00     0.151 A 
HETATM    6  N3  UNL     1      21.282  -1.310  53.759  1.00  0.00    -0.241 NA
HETATM    7  N4  UNL     1      24.495  -0.403  53.676  1.00  0.00    -0.256 NA
HETATM    8  C12 UNL     1      25.740   0.295  53.493  1.00  0.00     0.158 C 
HETATM    9  C13 UNL     1      26.081   1.486  52.949  1.00  0.00     0.134 C 
HETATM   10  C14 UNL     1      27.513   1.756  52.999  1.00  0.00     0.119 C 
HETATM   11  N5  UNL     1      28.660   1.967  53.041  1.00  0.00    -0.190 NA
HETATM   12  N6  UNL     1      25.345   2.563  52.320  1.00  0.00    -0.334 N 
HETATM   13  C15 UNL     1      26.299   2.945  51.297  1.00  0.00     0.112 C 
HETATM   14  C16 UNL     1      25.874   3.832  50.389  1.00  0.00     0.026 C 
HETATM   15 BR1  UNL     1      27.041   4.399  48.994  1.00  0.00    -0.050 Br
HETATM   16  C17 UNL     1      24.552   4.442  50.445  1.00  0.00     0.019 C 
HETATM   17  C18 UNL     1      23.756   4.113  51.426  1.00  0.00     0.004 C 
HETATM   18  C19 UNL     1      24.072   3.149  52.537  1.00  0.00     0.137 C 
HETATM   19  C20 UNL     1      22.928   2.274  52.727  1.00  0.00     0.016 C 
ENDROOT
BRANCH   1  20
HETATM   20  N2  UNL     1      19.153  -0.329  53.279  1.00  0.00    -0.308 N 
HETATM   21  C6  UNL     1      18.565  -0.207  51.983  1.00  0.00     0.246 C 
HETATM   22  O1  UNL     1      19.546  -0.028  51.224  1.00  0.00    -0.268 OA
HETATM   23  H11 UNL     1      18.769  -0.488  54.245  1.00  0.00     0.170 HD
BRANCH  21  24
HETATM   24  C5  UNL     1      17.125  -0.325  51.993  1.00  0.00     0.072 C 
HETATM   25  C4  UNL     1      15.946   0.226  52.119  1.00  0.00     0.008 C 
BRANCH  25  26
HETATM   26  C3  UNL     1      15.380   1.564  52.378  1.00  0.00     0.299 C 
BRANCH  26  27
HETATM   27  N1  UNL     1      16.101   2.593  51.648  1.00  0.00     0.083 N 
HETATM   28  C1  UNL     1      15.650   2.577  50.269  1.00  0.00     0.309 C 
HETATM   29  C2  UNL     1      15.900   3.920  52.197  1.00  0.00     0.309 C 
ENDBRANCH  26  27
ENDBRANCH  25  26
ENDBRANCH  21  24
ENDBRANCH   1  20
TORSDOF 4
ENDMDL
MODEL 6
REMARK VINA RESULT:      -7.6      2.806      4.417
REMARK  4 active torsions:
REMARK  status: ('A' for Active; 'I' for Inactive)
REMARK    1  A    between atoms: N1_2  and  C3_4 
REMARK    2  A    between atoms: C3_4  and  C4_5 
REMARK    3  A    between atoms: C5_6  and  C6_7 
REMARK       I    between atoms: C6_7  and  N2_9 
REMARK    4  A    between atoms: N2_9  and  C7_10 
ROOT
HETATM    1  C7  UNL     1      26.338   5.507  49.141  1.00  0.00     0.130 A 
HETATM    2  C8  UNL     1      27.553   5.134  48.595  1.00  0.00     0.064 A 
HETATM    3  C9  UNL     1      28.515   6.081  48.350  1.00  0.00    -0.004 A 
HETATM    4  C10 UNL     1      28.213   7.380  48.668  1.00  0.00     0.084 A 
HETATM    5  C11 UNL     1      26.998   7.740  49.212  1.00  0.00     0.151 A 
HETATM    6  N3  UNL     1      26.049   6.793  49.453  1.00  0.00    -0.241 NA
HETATM    7  N4  UNL     1      28.779   8.538  48.644  1.00  0.00    -0.256 NA
HETATM    8  C12 UNL     1      30.092   8.955  48.227  1.00  0.00     0.158 C 
HETATM    9  C13 UNL     1      31.217   8.298  47.862  1.00  0.00     0.134 C 
HETATM   10  C14 UNL     1      32.320   9.189  47.519  1.00  0.00     0.119 C 
HETATM   11  N5  UNL     1      33.201   9.905  47.246  1.00  0.00    -0.190 NA
HETATM   12  N6  UNL     1      31.581   6.903  47.732  1.00  0.00    -0.334 N 
HETATM   13  C15 UNL     1      32.957   6.967  48.189  1.00  0.00     0.112 C 
HETATM   14  C16 UNL     1      33.580   5.796  48.365  1.00  0.00     0.026 C 
HETATM   15 BR1  UNL     1      35.386   5.762  48.971  1.00  0.00    -0.050 Br
HETATM   16  C17 UNL     1      32.952   4.517  48.059  1.00  0.00     0.019 C 
HETATM   17  C18 UNL     1      31.735   4.520  47.587  1.00  0.00     0.004 C 
HETATM   18  C19 UNL     1      30.894   5.736  47.313  1.00  0.00     0.137 C 
HETATM   19  C20 UNL     1      29.556   5.496  47.827  1.00  0.00     0.016 C 
ENDROOT
BRANCH   1  20
HETATM   20  N2  UNL     1      25.326   4.512  49.399  1.00  0.00    -0.308 N 
HETATM   21  C6  UNL     1      25.693   3.433  50.259  1.00  0.00     0.246 C 
HETATM   22  O1  UNL     1      26.882   3.683  50.565  1.00  0.00    -0.268 OA
HETATM   23  H11 UNL     1      24.449   4.770  48.881  1.00  0.00     0.170 HD
BRANCH  21  24
HETATM   24  C5  UNL     1      24.628   2.478  50.467  1.00  0.00     0.072 C 
HETATM   25  C4  UNL     1      23.935   1.715  51.272  1.00  0.00     0.008 C 
BRANCH  25  26
HETATM   26  C3  UNL     1      23.899   1.378  52.709  1.00  0.00     0.299 C 
BRANCH  26  27
HETATM   27  N1  UNL     1      25.083   0.635  53.107  1.00  0.00     0.083 N 
HETATM   28  C1  UNL     1      25.992   1.548  53.774  1.00  0.00     0.309 C 
HETATM   29  C2  UNL     1      24.783  -0.469  53.996  1.00  0.00     0.309 C 
ENDBRANCH  26  27
ENDBRANCH  25  26
ENDBRANCH  21  24
ENDBRANCH   1  20
TORSDOF 4
ENDMDL
MODEL 7
REMARK VINA RESULT:      -7.6      8.135     11.246
REMARK  4 active torsions:
REMARK  status: ('A' for Active; 'I' for Inactive)
REMARK    1  A    between atoms: N1_2  and  C3_4 
REMARK    2  A    between atoms: C3_4  and  C4_5 
REMARK    3  A    between atoms: C5_6  and  C6_7 
REMARK       I    between atoms: C6_7  and  N2_9 
REMARK    4  A    between atoms: N2_9  and  C7_10 
ROOT
HETATM    1  C7  UNL     1      21.207   1.050  51.029  1.00  0.00     0.130 A 
HETATM    2  C8  UNL     1      20.536   0.185  51.875  1.00  0.00     0.064 A 
HETATM    3  C9  UNL     1      19.165   0.163  51.886  1.00  0.00    -0.004 A 
HETATM    4  C10 UNL     1      18.515   1.020  51.035  1.00  0.00     0.084 A 
HETATM    5  C11 UNL     1      19.195   1.878  50.196  1.00  0.00     0.151 A 
HETATM    6  N3  UNL     1      20.557   1.893  50.192  1.00  0.00    -0.241 NA
HETATM    7  N4  UNL     1      17.307   1.315  50.697  1.00  0.00    -0.256 NA
HETATM    8  C12 UNL     1      16.036   0.798  51.131  1.00  0.00     0.158 C 
HETATM    9  C13 UNL     1      15.658  -0.241  51.910  1.00  0.00     0.134 C 
HETATM   10  C14 UNL     1      14.212  -0.359  52.056  1.00  0.00     0.119 C 
HETATM   11  N5  UNL     1      13.054  -0.450  52.169  1.00  0.00    -0.190 NA
HETATM   12  N6  UNL     1      16.366  -1.273  52.639  1.00  0.00    -0.334 N 
HETATM   13  C15 UNL     1      15.455  -2.384  52.434  1.00  0.00     0.112 C 
HETATM   14  C16 UNL     1      15.882  -3.585  52.842  1.00  0.00     0.026 C 
HETATM   15 BR1  UNL     1      14.770  -5.116  52.614  1.00  0.00    -0.050 Br
HETATM   16  C17 UNL     1      17.158  -3.779  53.516  1.00  0.00     0.019 C 
HETATM   17  C18 UNL     1      17.910  -2.735  53.735  1.00  0.00     0.004 C 
HETATM   18  C19 UNL     1      17.585  -1.315  53.361  1.00  0.00     0.137 C 
HETATM   19  C20 UNL     1      18.766  -0.714  52.765  1.00  0.00     0.016 C 
ENDROOT
BRANCH   1  20
HETATM   20  N2  UNL     1      22.649   1.074  51.017  1.00  0.00    -0.308 N 
HETATM   21  C6  UNL     1      23.282   1.989  51.912  1.00  0.00     0.246 C 
HETATM   22  O1  UNL     1      22.325   2.549  52.496  1.00  0.00    -0.268 OA
HETATM   23  H11 UNL     1      23.000   0.377  50.313  1.00  0.00     0.170 HD
BRANCH  21  24
HETATM   24  C5  UNL     1      24.725   1.954  51.841  1.00  0.00     0.072 C 
HETATM   25  C4  UNL     1      25.879   1.680  52.393  1.00  0.00     0.008 C 
BRANCH  25  26
HETATM   26  C3  UNL     1      26.386   1.142  53.671  1.00  0.00     0.299 C 
BRANCH  26  27
HETATM   27  N1  UNL     1      27.830   0.986  53.642  1.00  0.00     0.083 N 
HETATM   28  C1  UNL     1      28.432   2.305  53.582  1.00  0.00     0.309 C 
HETATM   29  C2  UNL     1      28.345   0.283  54.801  1.00  0.00     0.309 C 
ENDBRANCH  26  27
ENDBRANCH  25  26
ENDBRANCH  21  24
ENDBRANCH   1  20
TORSDOF 4
ENDMDL
MODEL 8
REMARK VINA RESULT:      -7.6      3.090      4.331
REMARK  4 active torsions:
REMARK  status: ('A' for Active; 'I' for Inactive)
REMARK    1  A    between atoms: N1_2  and  C3_4 
REMARK    2  A    between atoms: C3_4  and  C4_5 
REMARK    3  A    between atoms: C5_6  and  C6_7 
REMARK       I    between atoms: C6_7  and  N2_9 
REMARK    4  A    between atoms: N2_9  and  C7_10 
ROOT
HETATM    1  C7  UNL     1      24.311   4.783  50.259  1.00  0.00     0.130 A 
HETATM    2  C8  UNL     1      25.448   4.857  49.474  1.00  0.00     0.064 A 
HETATM    3  C9  UNL     1      26.146   6.035  49.387  1.00  0.00    -0.004 A 
HETATM    4  C10 UNL     1      25.668   7.103  50.102  1.00  0.00     0.084 A 
HETATM    5  C11 UNL     1      24.532   7.017  50.880  1.00  0.00     0.151 A 
HETATM    6  N3  UNL     1      23.846   5.843  50.961  1.00  0.00    -0.241 NA
HETATM    7  N4  UNL     1      25.986   8.330  50.337  1.00  0.00    -0.256 NA
HETATM    8  C12 UNL     1      27.091   9.137  49.890  1.00  0.00     0.158 C 
HETATM    9  C13 UNL     1      28.230   8.878  49.207  1.00  0.00     0.134 C 
HETATM   10  C14 UNL     1      29.057  10.061  48.993  1.00  0.00     0.119 C 
HETATM   11  N5  UNL     1      29.715  11.009  48.825  1.00  0.00    -0.190 NA
HETATM   12  N6  UNL     1      28.823   7.687  48.636  1.00  0.00    -0.334 N 
HETATM   13  C15 UNL     1      30.223   7.958  48.908  1.00  0.00     0.112 C 
HETATM   14  C16 UNL     1      31.080   6.961  48.658  1.00  0.00     0.026 C 
HETATM   15 BR1  UNL     1      32.941   7.204  48.986  1.00  0.00    -0.050 Br
HETATM   16  C17 UNL     1      30.663   5.690  48.083  1.00  0.00     0.019 C 
HETATM   17  C18 UNL     1      29.400   5.523  47.794  1.00  0.00     0.004 C 
HETATM   18  C19 UNL     1      28.305   6.535  47.993  1.00  0.00     0.137 C 
HETATM   19  C20 UNL     1      27.161   5.864  48.587  1.00  0.00     0.016 C 
ENDROOT
BRANCH   1  20
HETATM   20  N2  UNL     1      23.577   3.545  50.350  1.00  0.00    -0.308 N 
HETATM   21  C6  UNL     1      23.983   2.632  51.370  1.00  0.00     0.246 C 
HETATM   22  O1  UNL     1      24.936   3.218  51.935  1.00  0.00    -0.268 OA
HETATM   23  H11 UNL     1      22.830   3.531  49.609  1.00  0.00     0.170 HD
BRANCH  21  24
HETATM   24  C5  UNL     1      23.201   1.417  51.396  1.00  0.00     0.072 C 
HETATM   25  C4  UNL     1      22.038   0.822  51.452  1.00  0.00     0.008 C 
BRANCH  25  26
HETATM   26  C3  UNL     1      20.613   1.199  51.535  1.00  0.00     0.299 C 
BRANCH  26  27
HETATM   27  N1  UNL     1      20.073   1.515  50.224  1.00  0.00     0.083 N 
HETATM   28  C1  UNL     1      18.746   0.938  50.124  1.00  0.00     0.309 C 
HETATM   29  C2  UNL     1      19.988   2.942  49.979  1.00  0.00     0.309 C 
ENDBRANCH  26  27
ENDBRANCH  25  26
ENDBRANCH  21  24
ENDBRANCH   1  20
TORSDOF 4
ENDMDL
MODEL 9
REMARK VINA RESULT:      -7.3      3.685      9.061
REMARK  4 active torsions:
REMARK  status: ('A' for Active; 'I' for Inactive)
REMARK    1  A    between atoms: N1_2  and  C3_4 
REMARK    2  A    between atoms: C3_4  and  C4_5 
REMARK    3  A    between atoms: C5_6  and  C6_7 
REMARK       I    between atoms: C6_7  and  N2_9 
REMARK    4  A    between atoms: N2_9  and  C7_10 
ROOT
HETATM    1  C7  UNL     1      22.423   5.961  51.117  1.00  0.00     0.130 A 
HETATM    2  C8  UNL     1      23.387   5.203  51.759  1.00  0.00     0.064 A 
HETATM    3  C9  UNL     1      23.069   3.963  52.251  1.00  0.00    -0.004 A 
HETATM    4  C10 UNL     1      21.780   3.528  52.076  1.00  0.00     0.084 A 
HETATM    5  C11 UNL     1      20.828   4.292  51.435  1.00  0.00     0.151 A 
HETATM    6  N3  UNL     1      21.153   5.523  50.948  1.00  0.00    -0.241 NA
HETATM    7  N4  UNL     1      21.070   2.483  52.330  1.00  0.00    -0.256 NA
HETATM    8  C12 UNL     1      21.395   1.233  52.964  1.00  0.00     0.158 C 
HETATM    9  C13 UNL     1      22.548   0.659  53.378  1.00  0.00     0.134 C 
HETATM   10  C14 UNL     1      22.356  -0.657  53.977  1.00  0.00     0.119 C 
HETATM   11  N5  UNL     1      22.198  -1.710  54.455  1.00  0.00    -0.190 NA
HETATM   12  N6  UNL     1      23.941   1.054  53.363  1.00  0.00    -0.334 N 
HETATM   13  C15 UNL     1      24.556  -0.234  53.099  1.00  0.00     0.112 C 
HETATM   14  C16 UNL     1      25.870  -0.224  52.847  1.00  0.00     0.026 C 
HETATM   15 BR1  UNL     1      26.779  -1.858  52.479  1.00  0.00    -0.050 Br
HETATM   16  C17 UNL     1      26.672   0.991  52.893  1.00  0.00     0.019 C 
HETATM   17  C18 UNL     1      26.080   2.114  53.202  1.00  0.00     0.004 C 
HETATM   18  C19 UNL     1      24.622   2.286  53.528  1.00  0.00     0.137 C 
HETATM   19  C20 UNL     1      24.126   3.454  52.819  1.00  0.00     0.016 C 
ENDROOT
BRANCH   1  20
HETATM   20  N2  UNL     1      22.756   7.265  50.599  1.00  0.00    -0.308 N 
HETATM   21  C6  UNL     1      23.300   7.311  49.279  1.00  0.00     0.246 C 
HETATM   22  O1  UNL     1      23.332   6.109  48.926  1.00  0.00    -0.268 OA
HETATM   23  H11 UNL     1      22.527   7.992  51.323  1.00  0.00     0.170 HD
BRANCH  21  24
HETATM   24  C5  UNL     1      23.608   8.650  48.833  1.00  0.00     0.072 C 
HETATM   25  C4  UNL     1      24.471   9.518  48.373  1.00  0.00     0.008 C 
BRANCH  25  26
HETATM   26  C3  UNL     1      25.898   9.557  47.997  1.00  0.00     0.299 C 
BRANCH  26  27
HETATM   27  N1  UNL     1      26.640  10.483  48.835  1.00  0.00     0.083 N 
HETATM   28  C1  UNL     1      27.927   9.889  49.145  1.00  0.00     0.309 C 
HETATM   29  C2  UNL     1      26.853  11.770  48.202  1.00  0.00     0.309 C 
ENDBRANCH  26  27
ENDBRANCH  25  26
ENDBRANCH  21  24
ENDBRANCH   1  20
TORSDOF 4
ENDMDL
