MODEL 1
REMARK VINA RESULT:      -8.1      0.000      0.000
REMARK  2 active torsions:
REMARK  status: ('A' for Active; 'I' for Inactive)
REMARK    1  A    between atoms: N1_2  and  C2_3 
REMARK    2  A    between atoms: C7_10  and  O3_11 
ROOT
HETATM    1  C2  UNL     1      17.152   3.560  51.870  1.00  0.00     0.250 C 
HETATM    2  C3  UNL     1      16.836   2.161  51.453  1.00  0.00     0.203 C 
HETATM    3  O1  UNL     1      17.691   1.767  50.457  1.00  0.00    -0.384 OA
HETATM    4  C4  UNL     1      18.550   0.758  50.908  1.00  0.00     0.230 C 
HETATM    5  C5  UNL     1      19.722   1.338  51.669  1.00  0.00     0.183 C 
HETATM    6  C6  UNL     1      19.647   0.643  53.051  1.00  0.00     0.076 C 
HETATM    7  O2  UNL     1      19.580   2.643  51.959  1.00  0.00    -0.296 OA
HETATM    8  C7  UNL     1      19.513   3.614  51.023  1.00  0.00     0.373 C 
HETATM    9  C8  UNL     1      18.126   4.253  50.944  1.00  0.00     0.142 C 
HETATM   10  N2  UNL     1      20.395   4.707  51.518  1.00  0.00     0.147 N 
HETATM   11  C9  UNL     1      21.530   4.227  52.160  1.00  0.00     0.285 C 
HETATM   12  C10 UNL     1      22.618   3.752  51.082  1.00  0.00     0.040 C 
HETATM   13  C11 UNL     1      22.954   4.956  50.323  1.00  0.00    -0.024 C 
HETATM   14  C12 UNL     1      23.195   4.681  49.006  1.00  0.00    -0.027 C 
HETATM   15  C13 UNL     1      23.181   3.361  48.364  1.00  0.00     0.053 C 
HETATM   16  C14 UNL     1      22.210   2.935  47.416  1.00  0.00    -0.025 C 
HETATM   17  C15 UNL     1      21.623   1.762  47.793  1.00  0.00    -0.002 C 
HETATM   18  C16 UNL     1      21.801   0.861  48.965  1.00  0.00     0.229 C 
HETATM   19  O4  UNL     1      20.695   0.695  49.745  1.00  0.00    -0.271 OA
HETATM   20  N3  UNL     1      20.960   0.944  51.084  1.00  0.00    -0.220 N 
HETATM   21  C17 UNL     1      22.155   0.886  51.913  1.00  0.00     0.067 A 
HETATM   22  C18 UNL     1      22.174  -0.394  52.424  1.00  0.00     0.032 A 
HETATM   23  C19 UNL     1      23.116  -0.940  53.290  1.00  0.00     0.002 A 
HETATM   24  C20 UNL     1      24.157  -0.097  53.683  1.00  0.00     0.001 A 
HETATM   25  C21 UNL     1      24.133   1.181  53.167  1.00  0.00     0.009 A 
HETATM   26  C22 UNL     1      23.197   1.709  52.311  1.00  0.00    -0.029 A 
HETATM   27  C23 UNL     1      23.637   3.124  51.956  1.00  0.00     0.051 C 
HETATM   28  H16 UNL     1      20.576   5.380  50.755  1.00  0.00     0.323 HD
ENDROOT
BRANCH   1  29
HETATM   29  N1  UNL     1      15.925   4.332  51.842  1.00  0.00     0.086 N 
HETATM   30  C1  UNL     1      15.045   4.062  52.954  1.00  0.00     0.307 C 
HETATM   31  H4  UNL     1      16.049   5.336  51.676  1.00  0.00     0.315 HD
ENDBRANCH   1  29
BRANCH   8  32
HETATM   32  O3  UNL     1      19.883   3.350  49.742  1.00  0.00    -0.342 OA
HETATM   33  H13 UNL     1      19.788   2.408  49.502  1.00  0.00     0.215 HD
ENDBRANCH   8  32
TORSDOF 2
ENDMDL
MODEL 2
REMARK VINA RESULT:      -8.1      9.760     13.169
REMARK  2 active torsions:
REMARK  status: ('A' for Active; 'I' for Inactive)
REMARK    1  A    between atoms: N1_2  and  C2_3 
REMARK    2  A    between atoms: C7_10  and  O3_11 
ROOT
HETATM    1  C2  UNL     1      33.387   5.663  46.755  1.00  0.00     0.250 C 
HETATM    2  C3  UNL     1      33.163   5.400  48.208  1.00  0.00     0.203 C 
HETATM    3  O1  UNL     1      32.762   6.552  48.833  1.00  0.00    -0.384 OA
HETATM    4  C4  UNL     1      31.435   6.449  49.266  1.00  0.00     0.230 C 
HETATM    5  C5  UNL     1      30.469   6.739  48.137  1.00  0.00     0.183 C 
HETATM    6  C6  UNL     1      29.594   5.463  48.061  1.00  0.00     0.076 C 
HETATM    7  O2  UNL     1      31.058   6.796  46.930  1.00  0.00    -0.296 OA
HETATM    8  C7  UNL     1      31.973   7.728  46.588  1.00  0.00     0.373 C 
HETATM    9  C8  UNL     1      33.370   7.134  46.405  1.00  0.00     0.142 C 
HETATM   10  N2  UNL     1      31.586   8.187  45.225  1.00  0.00     0.147 N 
HETATM   11  C9  UNL     1      30.207   8.251  45.055  1.00  0.00     0.285 C 
HETATM   12  C10 UNL     1      29.626   9.582  45.737  1.00  0.00     0.040 C 
HETATM   13  C11 UNL     1      30.263  10.686  45.019  1.00  0.00    -0.024 C 
HETATM   14  C12 UNL     1      30.531  11.744  45.842  1.00  0.00    -0.027 C 
HETATM   15  C13 UNL     1      30.211  11.854  47.271  1.00  0.00     0.053 C 
HETATM   16  C14 UNL     1      31.176  11.867  48.315  1.00  0.00    -0.025 C 
HETATM   17  C15 UNL     1      30.916  10.908  49.250  1.00  0.00    -0.002 C 
HETATM   18  C16 UNL     1      29.843   9.884  49.392  1.00  0.00     0.229 C 
HETATM   19  O4  UNL     1      30.271   8.590  49.401  1.00  0.00    -0.271 OA
HETATM   20  N3  UNL     1      29.594   7.811  48.475  1.00  0.00    -0.220 N 
HETATM   21  C17 UNL     1      28.284   7.887  47.844  1.00  0.00     0.067 A 
HETATM   22  C18 UNL     1      27.448   7.160  48.666  1.00  0.00     0.032 A 
HETATM   23  C19 UNL     1      26.090   6.923  48.486  1.00  0.00     0.002 A 
HETATM   24  C20 UNL     1      25.509   7.484  47.348  1.00  0.00     0.001 A 
HETATM   25  C21 UNL     1      26.349   8.211  46.531  1.00  0.00     0.009 A 
HETATM   26  C22 UNL     1      27.691   8.439  46.720  1.00  0.00    -0.029 A 
HETATM   27  C23 UNL     1      28.167   9.362  45.604  1.00  0.00     0.051 C 
HETATM   28  H16 UNL     1      32.096   9.055  44.992  1.00  0.00     0.323 HD
ENDROOT
BRANCH   1  29
HETATM   29  N1  UNL     1      34.700   5.163  46.398  1.00  0.00     0.086 N 
HETATM   30  C1  UNL     1      34.812   3.725  46.473  1.00  0.00     0.307 C 
HETATM   31  H4  UNL     1      35.085   5.541  45.527  1.00  0.00     0.315 HD
ENDBRANCH   1  29
BRANCH   8  32
HETATM   32  O3  UNL     1      32.131   8.840  47.354  1.00  0.00    -0.342 OA
HETATM   33  H13 UNL     1      31.674   8.779  48.215  1.00  0.00     0.215 HD
ENDBRANCH   8  32
TORSDOF 2
ENDMDL
MODEL 3
REMARK VINA RESULT:      -7.9      2.875      6.559
REMARK  2 active torsions:
REMARK  status: ('A' for Active; 'I' for Inactive)
REMARK    1  A    between atoms: N1_2  and  C2_3 
REMARK    2  A    between atoms: C7_10  and  O3_11 
ROOT
HETATM    1  C2  UNL     1      26.057   2.582  53.069  1.00  0.00     0.250 C 
HETATM    2  C3  UNL     1      26.792   2.317  51.796  1.00  0.00     0.203 C 
HETATM    3  O1  UNL     1      25.915   1.900  50.829  1.00  0.00    -0.384 OA
HETATM    4  C4  UNL     1      25.799   2.858  49.815  1.00  0.00     0.230 C 
HETATM    5  C5  UNL     1      24.830   3.953  50.205  1.00  0.00     0.183 C 
HETATM    6  C6  UNL     1      25.671   5.249  50.090  1.00  0.00     0.076 C 
HETATM    7  O2  UNL     1      24.474   3.916  51.501  1.00  0.00    -0.296 OA
HETATM    8  C7  UNL     1      23.783   2.898  52.057  1.00  0.00     0.373 C 
HETATM    9  C8  UNL     1      24.627   2.091  53.045  1.00  0.00     0.142 C 
HETATM   10  N2  UNL     1      22.739   3.540  52.903  1.00  0.00     0.147 N 
HETATM   11  C9  UNL     1      22.226   4.698  52.331  1.00  0.00     0.285 C 
HETATM   12  C10 UNL     1      21.163   4.329  51.188  1.00  0.00     0.040 C 
HETATM   13  C11 UNL     1      20.096   3.608  51.881  1.00  0.00    -0.024 C 
HETATM   14  C12 UNL     1      19.566   2.612  51.108  1.00  0.00    -0.027 C 
HETATM   15  C13 UNL     1      19.939   2.273  49.729  1.00  0.00     0.053 C 
HETATM   16  C14 UNL     1      20.608   1.078  49.345  1.00  0.00    -0.025 C 
HETATM   17  C15 UNL     1      21.741   1.346  48.632  1.00  0.00    -0.002 C 
HETATM   18  C16 UNL     1      22.389   2.609  48.182  1.00  0.00     0.229 C 
HETATM   19  O4  UNL     1      23.648   2.820  48.662  1.00  0.00    -0.271 OA
HETATM   20  N3  UNL     1      23.776   4.068  49.254  1.00  0.00    -0.220 N 
HETATM   21  C17 UNL     1      23.092   5.344  49.099  1.00  0.00     0.067 A 
HETATM   22  C18 UNL     1      23.814   6.022  48.139  1.00  0.00     0.032 A 
HETATM   23  C19 UNL     1      23.567   7.300  47.649  1.00  0.00     0.002 A 
HETATM   24  C20 UNL     1      22.466   7.967  48.187  1.00  0.00     0.001 A 
HETATM   25  C21 UNL     1      21.748   7.284  49.145  1.00  0.00     0.009 A 
HETATM   26  C22 UNL     1      22.001   6.020  49.621  1.00  0.00    -0.029 A 
HETATM   27  C23 UNL     1      20.892   5.662  50.603  1.00  0.00     0.051 C 
HETATM   28  H16 UNL     1      22.032   2.837  53.176  1.00  0.00     0.323 HD
ENDROOT
BRANCH   1  29
HETATM   29  N1  UNL     1      26.727   1.869  54.139  1.00  0.00     0.086 N 
HETATM   30  C1  UNL     1      26.324   0.487  54.256  1.00  0.00     0.307 C 
HETATM   31  H4  UNL     1      27.745   1.983  54.164  1.00  0.00     0.315 HD
ENDBRANCH   1  29
BRANCH   8  32
HETATM   32  O3  UNL     1      23.154   1.990  51.265  1.00  0.00    -0.342 OA
HETATM   33  H13 UNL     1      23.638   1.804  50.438  1.00  0.00     0.215 HD
ENDBRANCH   8  32
TORSDOF 2
ENDMDL
MODEL 4
REMARK VINA RESULT:      -7.9      2.122      4.997
REMARK  2 active torsions:
REMARK  status: ('A' for Active; 'I' for Inactive)
REMARK    1  A    between atoms: N1_2  and  C2_3 
REMARK    2  A    between atoms: C7_10  and  O3_11 
ROOT
HETATM    1  C2  UNL     1      21.539   0.606  53.796  1.00  0.00     0.250 C 
HETATM    2  C3  UNL     1      22.966   0.336  53.442  1.00  0.00     0.203 C 
HETATM    3  O1  UNL     1      23.153   0.513  52.096  1.00  0.00    -0.384 OA
HETATM    4  C4  UNL     1      23.969   1.622  51.848  1.00  0.00     0.230 C 
HETATM    5  C5  UNL     1      23.172   2.908  51.895  1.00  0.00     0.183 C 
HETATM    6  C6  UNL     1      23.895   3.753  52.973  1.00  0.00     0.076 C 
HETATM    7  O2  UNL     1      21.932   2.752  52.389  1.00  0.00    -0.296 OA
HETATM    8  C7  UNL     1      20.978   2.006  51.791  1.00  0.00     0.373 C 
HETATM    9  C8  UNL     1      20.641   0.745  52.588  1.00  0.00     0.142 C 
HETATM   10  N2  UNL     1      19.736   2.823  51.852  1.00  0.00     0.147 N 
HETATM   11  C9  UNL     1      19.981   4.181  51.678  1.00  0.00     0.285 C 
HETATM   12  C10 UNL     1      20.198   4.510  50.124  1.00  0.00     0.040 C 
HETATM   13  C11 UNL     1      18.935   4.152  49.479  1.00  0.00    -0.024 C 
HETATM   14  C12 UNL     1      19.128   3.633  48.229  1.00  0.00    -0.027 C 
HETATM   15  C13 UNL     1      20.409   3.464  47.532  1.00  0.00     0.053 C 
HETATM   16  C14 UNL     1      21.010   2.207  47.241  1.00  0.00    -0.025 C 
HETATM   17  C15 UNL     1      22.286   2.139  47.718  1.00  0.00    -0.002 C 
HETATM   18  C16 UNL     1      23.153   3.100  48.457  1.00  0.00     0.229 C 
HETATM   19  O4  UNL     1      23.562   2.686  49.690  1.00  0.00    -0.271 OA
HETATM   20  N3  UNL     1      23.289   3.628  50.671  1.00  0.00    -0.220 N 
HETATM   21  C17 UNL     1      23.112   5.073  50.675  1.00  0.00     0.067 A 
HETATM   22  C18 UNL     1      24.371   5.586  50.909  1.00  0.00     0.032 A 
HETATM   23  C19 UNL     1      24.725   6.927  51.017  1.00  0.00     0.002 A 
HETATM   24  C20 UNL     1      23.692   7.854  50.871  1.00  0.00     0.001 A 
HETATM   25  C21 UNL     1      22.437   7.334  50.636  1.00  0.00     0.009 A 
HETATM   26  C22 UNL     1      22.099   6.007  50.530  1.00  0.00    -0.029 A 
HETATM   27  C23 UNL     1      20.617   5.930  50.184  1.00  0.00     0.051 C 
HETATM   28  H16 UNL     1      19.024   2.423  51.217  1.00  0.00     0.323 HD
ENDROOT
BRANCH   1  29
HETATM   29  N1  UNL     1      21.039  -0.519  54.563  1.00  0.00     0.086 N 
HETATM   30  C1  UNL     1      22.045  -1.514  54.855  1.00  0.00     0.307 C 
HETATM   31  H4  UNL     1      20.486  -0.268  55.388  1.00  0.00     0.315 HD
ENDBRANCH   1  29
BRANCH   8  32
HETATM   32  O3  UNL     1      21.134   1.609  50.501  1.00  0.00    -0.342 OA
HETATM   33  H13 UNL     1      21.039   0.644  50.383  1.00  0.00     0.215 HD
ENDBRANCH   8  32
TORSDOF 2
ENDMDL
MODEL 5
REMARK VINA RESULT:      -7.3      2.609      5.725
REMARK  2 active torsions:
REMARK  status: ('A' for Active; 'I' for Inactive)
REMARK    1  A    between atoms: N1_2  and  C2_3 
REMARK    2  A    between atoms: C7_10  and  O3_11 
ROOT
HETATM    1  C2  UNL     1      25.230   6.025  49.055  1.00  0.00     0.250 C 
HETATM    2  C3  UNL     1      25.010   6.550  50.436  1.00  0.00     0.203 C 
HETATM    3  O1  UNL     1      23.671   6.538  50.731  1.00  0.00    -0.384 OA
HETATM    4  C4  UNL     1      23.391   5.601  51.732  1.00  0.00     0.230 C 
HETATM    5  C5  UNL     1      23.266   4.207  51.157  1.00  0.00     0.183 C 
HETATM    6  C6  UNL     1      24.319   3.386  51.942  1.00  0.00     0.076 C 
HETATM    7  O2  UNL     1      23.676   4.116  49.879  1.00  0.00    -0.296 OA
HETATM    8  C7  UNL     1      23.075   4.757  48.854  1.00  0.00     0.373 C 
HETATM    9  C8  UNL     1      23.950   5.864  48.266  1.00  0.00     0.142 C 
HETATM   10  N2  UNL     1      22.970   3.751  47.762  1.00  0.00     0.147 N 
HETATM   11  C9  UNL     1      22.698   2.473  48.237  1.00  0.00     0.285 C 
HETATM   12  C10 UNL     1      21.142   2.335  48.599  1.00  0.00     0.040 C 
HETATM   13  C11 UNL     1      20.437   2.550  47.336  1.00  0.00    -0.024 C 
HETATM   14  C12 UNL     1      19.255   3.213  47.517  1.00  0.00    -0.027 C 
HETATM   15  C13 UNL     1      18.675   3.650  48.793  1.00  0.00     0.053 C 
HETATM   16  C14 UNL     1      18.540   5.008  49.195  1.00  0.00    -0.025 C 
HETATM   17  C15 UNL     1      19.117   5.230  50.411  1.00  0.00    -0.002 C 
HETATM   18  C16 UNL     1      19.832   4.351  51.378  1.00  0.00     0.229 C 
HETATM   19  O4  UNL     1      21.124   4.702  51.637  1.00  0.00    -0.271 OA
HETATM   20  N3  UNL     1      21.997   3.637  51.464  1.00  0.00    -0.220 N 
HETATM   21  C17 UNL     1      21.862   2.190  51.528  1.00  0.00     0.067 A 
HETATM   22  C18 UNL     1      22.145   1.861  52.837  1.00  0.00     0.032 A 
HETATM   23  C19 UNL     1      22.163   0.589  53.400  1.00  0.00     0.002 A 
HETATM   24  C20 UNL     1      21.860  -0.470  52.544  1.00  0.00     0.001 A 
HETATM   25  C21 UNL     1      21.576  -0.136  51.237  1.00  0.00     0.009 A 
HETATM   26  C22 UNL     1      21.560   1.125  50.693  1.00  0.00    -0.029 A 
HETATM   27  C23 UNL     1      21.111   1.000  49.242  1.00  0.00     0.051 C 
HETATM   28  H16 UNL     1      22.321   4.094  47.034  1.00  0.00     0.323 HD
ENDROOT
BRANCH   1  29
HETATM   29  N1  UNL     1      26.052   6.976  48.331  1.00  0.00     0.086 N 
HETATM   30  C1  UNL     1      27.465   6.840  48.596  1.00  0.00     0.307 C 
HETATM   31  H4  UNL     1      25.847   7.050  47.329  1.00  0.00     0.315 HD
ENDBRANCH   1  29
BRANCH   8  32
HETATM   32  O3  UNL     1      21.839   5.297  49.021  1.00  0.00    -0.342 OA
HETATM   33  H13 UNL     1      21.250   4.742  49.568  1.00  0.00     0.215 HD
ENDBRANCH   8  32
TORSDOF 2
ENDMDL
MODEL 6
REMARK VINA RESULT:      -7.3     11.133     14.151
REMARK  2 active torsions:
REMARK  status: ('A' for Active; 'I' for Inactive)
REMARK    1  A    between atoms: N1_2  and  C2_3 
REMARK    2  A    between atoms: C7_10  and  O3_11 
ROOT
HETATM    1  C2  UNL     1      29.213   9.699  48.645  1.00  0.00     0.250 C 
HETATM    2  C3  UNL     1      29.762  10.911  47.965  1.00  0.00     0.203 C 
HETATM    3  O1  UNL     1      31.127  10.818  47.878  1.00  0.00    -0.384 OA
HETATM    4  C4  UNL     1      31.532  10.675  46.546  1.00  0.00     0.230 C 
HETATM    5  C5  UNL     1      31.417   9.235  46.093  1.00  0.00     0.183 C 
HETATM    6  C6  UNL     1      30.488   9.310  44.856  1.00  0.00     0.076 C 
HETATM    7  O2  UNL     1      30.741   8.455  46.955  1.00  0.00    -0.296 OA
HETATM    8  C7  UNL     1      31.164   8.184  48.208  1.00  0.00     0.373 C 
HETATM    9  C8  UNL     1      30.281   8.833  49.274  1.00  0.00     0.142 C 
HETATM   10  N2  UNL     1      30.953   6.723  48.394  1.00  0.00     0.147 N 
HETATM   11  C9  UNL     1      31.211   5.995  47.238  1.00  0.00     0.285 C 
HETATM   12  C10 UNL     1      32.791   5.805  47.043  1.00  0.00     0.040 C 
HETATM   13  C11 UNL     1      33.231   5.044  48.212  1.00  0.00    -0.024 C 
HETATM   14  C12 UNL     1      34.475   5.423  48.631  1.00  0.00    -0.027 C 
HETATM   15  C13 UNL     1      35.345   6.431  48.013  1.00  0.00     0.053 C 
HETATM   16  C14 UNL     1      35.675   7.684  48.602  1.00  0.00    -0.025 C 
HETATM   17  C15 UNL     1      35.387   8.722  47.764  1.00  0.00    -0.002 C 
HETATM   18  C16 UNL     1      34.820   8.798  46.389  1.00  0.00     0.229 C 
HETATM   19  O4  UNL     1      33.645   9.482  46.281  1.00  0.00    -0.271 OA
HETATM   20  N3  UNL     1      32.670   8.741  45.629  1.00  0.00    -0.220 N 
HETATM   21  C17 UNL     1      32.694   7.656  44.660  1.00  0.00     0.067 A 
HETATM   22  C18 UNL     1      32.666   8.277  43.428  1.00  0.00     0.032 A 
HETATM   23  C19 UNL     1      32.660   7.665  42.179  1.00  0.00     0.002 A 
HETATM   24  C20 UNL     1      32.688   6.270  42.173  1.00  0.00     0.001 A 
HETATM   25  C21 UNL     1      32.717   5.656  43.406  1.00  0.00     0.009 A 
HETATM   26  C22 UNL     1      32.723   6.271  44.635  1.00  0.00    -0.029 A 
HETATM   27  C23 UNL     1      32.845   5.186  45.698  1.00  0.00     0.051 C 
HETATM   28  H16 UNL     1      31.461   6.402  49.235  1.00  0.00     0.323 HD
ENDROOT
BRANCH   1  29
HETATM   29  N1  UNL     1      28.340  10.134  49.718  1.00  0.00     0.086 N 
HETATM   30  C1  UNL     1      27.329   9.165  50.071  1.00  0.00     0.307 C 
HETATM   31  H4  UNL     1      28.820  10.516  50.539  1.00  0.00     0.315 HD
ENDBRANCH   1  29
BRANCH   8  32
HETATM   32  O3  UNL     1      32.448   8.452  48.565  1.00  0.00    -0.342 OA
HETATM   33  H13 UNL     1      33.075   7.756  48.287  1.00  0.00     0.215 HD
ENDBRANCH   8  32
TORSDOF 2
ENDMDL
MODEL 7
REMARK VINA RESULT:      -7.3      2.211      5.356
REMARK  2 active torsions:
REMARK  status: ('A' for Active; 'I' for Inactive)
REMARK    1  A    between atoms: N1_2  and  C2_3 
REMARK    2  A    between atoms: C7_10  and  O3_11 
ROOT
HETATM    1  C2  UNL     1      21.766   0.999  52.718  1.00  0.00     0.250 C 
HETATM    2  C3  UNL     1      20.396   1.467  53.088  1.00  0.00     0.203 C 
HETATM    3  O1  UNL     1      20.281   2.811  52.842  1.00  0.00    -0.384 OA
HETATM    4  C4  UNL     1      19.385   3.050  51.795  1.00  0.00     0.230 C 
HETATM    5  C5  UNL     1      20.056   2.874  50.450  1.00  0.00     0.183 C 
HETATM    6  C6  UNL     1      19.191   1.802  49.742  1.00  0.00     0.076 C 
HETATM    7  O2  UNL     1      21.271   2.304  50.529  1.00  0.00    -0.296 OA
HETATM    8  C7  UNL     1      22.326   2.875  51.150  1.00  0.00     0.373 C 
HETATM    9  C8  UNL     1      22.724   2.130  52.425  1.00  0.00     0.142 C 
HETATM   10  N2  UNL     1      23.482   2.680  50.233  1.00  0.00     0.147 N 
HETATM   11  C9  UNL     1      23.126   2.792  48.893  1.00  0.00     0.285 C 
HETATM   12  C10 UNL     1      22.981   4.336  48.485  1.00  0.00     0.040 C 
HETATM   13  C11 UNL     1      24.310   4.911  48.691  1.00  0.00    -0.024 C 
HETATM   14  C12 UNL     1      24.247   6.199  49.144  1.00  0.00    -0.027 C 
HETATM   15  C13 UNL     1      23.034   6.992  49.379  1.00  0.00     0.053 C 
HETATM   16  C14 UNL     1      22.571   7.397  50.662  1.00  0.00    -0.025 C 
HETATM   17  C15 UNL     1      21.278   7.015  50.871  1.00  0.00    -0.002 C 
HETATM   18  C16 UNL     1      20.281   6.285  50.038  1.00  0.00     0.229 C 
HETATM   19  O4  UNL     1      19.833   5.110  50.564  1.00  0.00    -0.271 OA
HETATM   20  N3  UNL     1      19.954   4.059  49.666  1.00  0.00    -0.220 N 
HETATM   21  C17 UNL     1      19.998   3.960  48.215  1.00  0.00     0.067 A 
HETATM   22  C18 UNL     1      18.685   3.785  47.829  1.00  0.00     0.032 A 
HETATM   23  C19 UNL     1      18.204   3.625  46.533  1.00  0.00     0.002 A 
HETATM   24  C20 UNL     1      19.156   3.644  45.513  1.00  0.00     0.001 A 
HETATM   25  C21 UNL     1      20.465   3.820  45.905  1.00  0.00     0.009 A 
HETATM   26  C22 UNL     1      20.929   3.979  47.189  1.00  0.00    -0.029 A 
HETATM   27  C23 UNL     1      22.432   4.223  47.114  1.00  0.00     0.051 C 
HETATM   28  H16 UNL     1      24.267   3.285  50.529  1.00  0.00     0.323 HD
ENDROOT
BRANCH   1  29
HETATM   29  N1  UNL     1      22.315   0.265  53.842  1.00  0.00     0.086 N 
HETATM   30  C1  UNL     1      21.319  -0.430  54.623  1.00  0.00     0.307 C 
HETATM   31  H4  UNL     1      23.121  -0.328  53.619  1.00  0.00     0.315 HD
ENDBRANCH   1  29
BRANCH   8  32
HETATM   32  O3  UNL     1      22.291   4.194  51.475  1.00  0.00    -0.342 OA
HETATM   33  H13 UNL     1      21.393   4.511  51.692  1.00  0.00     0.215 HD
ENDBRANCH   8  32
TORSDOF 2
ENDMDL
MODEL 8
REMARK VINA RESULT:      -7.3     10.689     14.347
REMARK  2 active torsions:
REMARK  status: ('A' for Active; 'I' for Inactive)
REMARK    1  A    between atoms: N1_2  and  C2_3 
REMARK    2  A    between atoms: C7_10  and  O3_11 
ROOT
HETATM    1  C2  UNL     1      34.054   8.260  48.256  1.00  0.00     0.250 C 
HETATM    2  C3  UNL     1      34.197   8.334  46.770  1.00  0.00     0.203 C 
HETATM    3  O1  UNL     1      32.976   8.149  46.176  1.00  0.00    -0.384 OA
HETATM    4  C4  UNL     1      32.543   9.325  45.551  1.00  0.00     0.230 C 
HETATM    5  C5  UNL     1      31.903  10.268  46.547  1.00  0.00     0.183 C 
HETATM    6  C6  UNL     1      32.731  11.570  46.407  1.00  0.00     0.076 C 
HETATM    7  O2  UNL     1      32.092   9.905  47.827  1.00  0.00    -0.296 OA
HETATM    8  C7  UNL     1      31.600   8.766  48.361  1.00  0.00     0.373 C 
HETATM    9  C8  UNL     1      32.699   7.759  48.701  1.00  0.00     0.142 C 
HETATM   10  N2  UNL     1      31.036   9.157  49.682  1.00  0.00     0.147 N 
HETATM   11  C9  UNL     1      30.434  10.409  49.657  1.00  0.00     0.285 C 
HETATM   12  C10 UNL     1      28.977  10.311  48.994  1.00  0.00     0.040 C 
HETATM   13  C11 UNL     1      28.219   9.418  49.870  1.00  0.00    -0.024 C 
HETATM   14  C12 UNL     1      27.346   8.632  49.170  1.00  0.00    -0.027 C 
HETATM   15  C13 UNL     1      27.109   8.653  47.721  1.00  0.00     0.053 C 
HETATM   16  C14 UNL     1      27.470   7.605  46.830  1.00  0.00    -0.025 C 
HETATM   17  C15 UNL     1      28.242   8.065  45.802  1.00  0.00    -0.002 C 
HETATM   18  C16 UNL     1      28.757   9.413  45.437  1.00  0.00     0.229 C 
HETATM   19  O4  UNL     1      30.116   9.527  45.399  1.00  0.00    -0.271 OA
HETATM   20  N3  UNL     1      30.570  10.592  46.163  1.00  0.00    -0.220 N 
HETATM   21  C17 UNL     1      29.988  11.851  46.602  1.00  0.00     0.067 A 
HETATM   22  C18 UNL     1      30.320  12.761  45.620  1.00  0.00     0.032 A 
HETATM   23  C19 UNL     1      30.002  14.115  45.586  1.00  0.00     0.002 A 
HETATM   24  C20 UNL     1      29.266  14.605  46.666  1.00  0.00     0.001 A 
HETATM   25  C21 UNL     1      28.936  13.691  47.643  1.00  0.00     0.009 A 
HETATM   26  C22 UNL     1      29.255  12.354  47.665  1.00  0.00    -0.029 A 
HETATM   27  C23 UNL     1      28.604  11.741  48.899  1.00  0.00     0.051 C 
HETATM   28  H16 UNL     1      30.442   8.393  50.047  1.00  0.00     0.323 HD
ENDROOT
BRANCH   1  29
HETATM   29  N1  UNL     1      35.036   7.319  48.761  1.00  0.00     0.086 N 
HETATM   30  C1  UNL     1      34.577   5.950  48.764  1.00  0.00     0.307 C 
HETATM   31  H4  UNL     1      35.974   7.417  48.362  1.00  0.00     0.315 HD
ENDBRANCH   1  29
BRANCH   8  32
HETATM   32  O3  UNL     1      30.635   8.069  47.705  1.00  0.00    -0.342 OA
HETATM   33  H13 UNL     1      29.749   8.471  47.787  1.00  0.00     0.215 HD
ENDBRANCH   8  32
TORSDOF 2
ENDMDL
MODEL 9
REMARK VINA RESULT:      -7.3      8.894     11.624
REMARK  2 active torsions:
REMARK  status: ('A' for Active; 'I' for Inactive)
REMARK    1  A    between atoms: N1_2  and  C2_3 
REMARK    2  A    between atoms: C7_10  and  O3_11 
ROOT
HETATM    1  C2  UNL     1      26.390   7.657  50.082  1.00  0.00     0.250 C 
HETATM    2  C3  UNL     1      25.987   7.032  48.786  1.00  0.00     0.203 C 
HETATM    3  O1  UNL     1      26.247   7.895  47.753  1.00  0.00    -0.384 OA
HETATM    4  C4  UNL     1      27.271   7.399  46.938  1.00  0.00     0.230 C 
HETATM    5  C5  UNL     1      28.633   7.708  47.523  1.00  0.00     0.183 C 
HETATM    6  C6  UNL     1      29.300   6.317  47.660  1.00  0.00     0.076 C 
HETATM    7  O2  UNL     1      28.581   8.165  48.787  1.00  0.00    -0.296 OA
HETATM    8  C7  UNL     1      28.000   9.332  49.136  1.00  0.00     0.373 C 
HETATM    9  C8  UNL     1      26.727   9.125  49.958  1.00  0.00     0.142 C 
HETATM   10  N2  UNL     1      28.947   9.983  50.082  1.00  0.00     0.147 N 
HETATM   11  C9  UNL     1      30.277   9.770  49.736  1.00  0.00     0.285 C 
HETATM   12  C10 UNL     1      30.702  10.748  48.538  1.00  0.00     0.040 C 
HETATM   13  C11 UNL     1      30.543  12.099  49.075  1.00  0.00    -0.024 C 
HETATM   14  C12 UNL     1      30.106  12.980  48.125  1.00  0.00    -0.027 C 
HETATM   15  C13 UNL     1      29.847  12.692  46.709  1.00  0.00     0.053 C 
HETATM   16  C14 UNL     1      28.556  12.690  46.110  1.00  0.00    -0.025 C 
HETATM   17  C15 UNL     1      28.305  11.513  45.467  1.00  0.00    -0.002 C 
HETATM   18  C16 UNL     1      29.097  10.268  45.268  1.00  0.00     0.229 C 
HETATM   19  O4  UNL     1      28.543   9.136  45.787  1.00  0.00    -0.271 OA
HETATM   20  N3  UNL     1      29.429   8.451  46.605  1.00  0.00    -0.220 N 
HETATM   21  C17 UNL     1      30.880   8.367  46.690  1.00  0.00     0.067 A 
HETATM   22  C18 UNL     1      31.225   7.305  45.880  1.00  0.00     0.032 A 
HETATM   23  C19 UNL     1      32.503   6.813  45.639  1.00  0.00     0.002 A 
HETATM   24  C20 UNL     1      33.551   7.468  46.287  1.00  0.00     0.001 A 
HETATM   25  C21 UNL     1      33.200   8.529  47.094  1.00  0.00     0.009 A 
HETATM   26  C22 UNL     1      31.933   9.007  47.324  1.00  0.00    -0.029 A 
HETATM   27  C23 UNL     1      32.055  10.238  48.214  1.00  0.00     0.051 C 
HETATM   28  H16 UNL     1      28.683  10.974  50.213  1.00  0.00     0.323 HD
ENDROOT
BRANCH   1  29
HETATM   29  N1  UNL     1      25.273   7.559  51.002  1.00  0.00     0.086 N 
HETATM   30  C1  UNL     1      24.042   8.100  50.477  1.00  0.00     0.307 C 
HETATM   31  H4  UNL     1      25.145   6.637  51.430  1.00  0.00     0.315 HD
ENDBRANCH   1  29
BRANCH   8  32
HETATM   32  O3  UNL     1      27.691  10.251  48.183  1.00  0.00    -0.342 OA
HETATM   33  H13 UNL     1      26.740  10.268  47.961  1.00  0.00     0.215 HD
ENDBRANCH   8  32
TORSDOF 2
ENDMDL
