MODEL 1
REMARK VINA RESULT:      -7.3      0.000      0.000
REMARK  1 active torsions:
REMARK  status: ('A' for Active; 'I' for Inactive)
REMARK    1  A    between atoms: O1_2  and  C2_3 
ROOT
HETATM    1  C2  UNL     1      20.658   1.011  52.560  1.00  0.00     0.066 C 
HETATM    2  C3  UNL     1      20.859   0.453  53.765  1.00  0.00     0.016 C 
HETATM    3  C4  UNL     1      21.106  -0.954  54.160  1.00  0.00     0.115 C 
HETATM    4  C5  UNL     1      22.488  -1.047  54.778  1.00  0.00     0.141 C 
HETATM    5  N1  UNL     1      23.050  -1.694  55.740  1.00  0.00    -0.281 NA
HETATM    6  O2  UNL     1      23.369  -0.209  54.125  1.00  0.00    -0.306 OA
HETATM    7  C6  UNL     1      24.670  -0.521  53.794  1.00  0.00     0.170 C 
HETATM    8  C7  UNL     1      25.085   0.693  53.376  1.00  0.00     0.059 C 
HETATM    9  C8  UNL     1      24.390   2.006  53.285  1.00  0.00     0.333 C 
HETATM   10  N2  UNL     1      24.760   2.426  51.929  1.00  0.00     0.111 N 
HETATM   11  C9  UNL     1      23.980   1.607  51.063  1.00  0.00     0.277 C 
HETATM   12  C10 UNL     1      22.846   2.439  50.484  1.00  0.00     0.056 C 
HETATM   13  C11 UNL     1      21.930   1.524  49.660  1.00  0.00     0.169 C 
HETATM   14  O3  UNL     1      21.456   0.504  50.314  1.00  0.00    -0.385 OA
HETATM   15  C12 UNL     1      20.618   0.290  51.280  1.00  0.00     0.231 C 
HETATM   16  C13 UNL     1      26.169   2.208  51.927  1.00  0.00     0.398 C 
HETATM   17  N3  UNL     1      26.354   1.080  52.857  1.00  0.00    -0.360 N 
HETATM   18  C14 UNL     1      27.677   0.503  53.138  1.00  0.00     0.151 C 
HETATM   19  H7  UNL     1      22.592  -2.374  56.366  1.00  0.00     0.189 HD
ENDROOT
BRANCH   1  20
HETATM   20  O1  UNL     1      20.498   2.358  52.859  1.00  0.00    -0.358 OA
HETATM   21  C1  UNL     1      19.595   3.110  52.067  1.00  0.00     0.209 C 
ENDBRANCH   1  20
TORSDOF 1
ENDMDL
MODEL 2
REMARK VINA RESULT:      -6.7      1.839      4.832
REMARK  1 active torsions:
REMARK  status: ('A' for Active; 'I' for Inactive)
REMARK    1  A    between atoms: O1_2  and  C2_3 
ROOT
HETATM    1  C2  UNL     1      25.773  -0.590  53.875  1.00  0.00     0.066 C 
HETATM    2  C3  UNL     1      24.667  -1.320  54.096  1.00  0.00     0.016 C 
HETATM    3  C4  UNL     1      23.709  -1.321  55.227  1.00  0.00     0.115 C 
HETATM    4  C5  UNL     1      22.349  -0.892  54.708  1.00  0.00     0.141 C 
HETATM    5  N1  UNL     1      21.117  -1.197  54.926  1.00  0.00    -0.281 NA
HETATM    6  O2  UNL     1      22.484   0.087  53.745  1.00  0.00    -0.306 OA
HETATM    7  C6  UNL     1      21.689   1.206  53.629  1.00  0.00     0.170 C 
HETATM    8  C7  UNL     1      22.138   1.670  52.443  1.00  0.00     0.059 C 
HETATM    9  C8  UNL     1      23.174   1.161  51.504  1.00  0.00     0.333 C 
HETATM   10  N2  UNL     1      23.933   2.387  51.232  1.00  0.00     0.111 N 
HETATM   11  C9  UNL     1      24.687   2.625  52.419  1.00  0.00     0.277 C 
HETATM   12  C10 UNL     1      26.140   2.252  52.164  1.00  0.00     0.056 C 
HETATM   13  C11 UNL     1      26.921   2.379  53.479  1.00  0.00     0.169 C 
HETATM   14  O3  UNL     1      26.440   1.679  54.464  1.00  0.00    -0.385 OA
HETATM   15  C12 UNL     1      26.321   0.428  54.782  1.00  0.00     0.231 C 
HETATM   16  C13 UNL     1      22.895   3.316  50.932  1.00  0.00     0.398 C 
HETATM   17  N3  UNL     1      21.752   2.842  51.731  1.00  0.00    -0.360 N 
HETATM   18  C14 UNL     1      20.456   3.536  51.739  1.00  0.00     0.151 C 
HETATM   19  H7  UNL     1      20.773  -1.899  55.600  1.00  0.00     0.189 HD
ENDROOT
BRANCH   1  20
HETATM   20  O1  UNL     1      26.216  -1.054  52.642  1.00  0.00    -0.358 OA
HETATM   21  C1  UNL     1      27.084  -2.173  52.628  1.00  0.00     0.209 C 
ENDBRANCH   1  20
TORSDOF 1
ENDMDL
MODEL 3
REMARK VINA RESULT:      -6.6      1.737      3.798
REMARK  1 active torsions:
REMARK  status: ('A' for Active; 'I' for Inactive)
REMARK    1  A    between atoms: O1_2  and  C2_3 
ROOT
HETATM    1  C2  UNL     1      20.951   1.527  52.053  1.00  0.00     0.066 C 
HETATM    2  C3  UNL     1      21.537   2.649  51.604  1.00  0.00     0.016 C 
HETATM    3  C4  UNL     1      21.797   3.948  52.269  1.00  0.00     0.115 C 
HETATM    4  C5  UNL     1      23.297   4.156  52.354  1.00  0.00     0.141 C 
HETATM    5  N1  UNL     1      24.120   5.141  52.255  1.00  0.00    -0.281 NA
HETATM    6  O2  UNL     1      23.939   2.960  52.606  1.00  0.00    -0.306 OA
HETATM    7  C6  UNL     1      24.995   2.789  53.474  1.00  0.00     0.170 C 
HETATM    8  C7  UNL     1      25.324   1.516  53.169  1.00  0.00     0.059 C 
HETATM    9  C8  UNL     1      24.754   0.548  52.193  1.00  0.00     0.333 C 
HETATM   10  N2  UNL     1      24.629  -0.652  53.028  1.00  0.00     0.111 N 
HETATM   11  C9  UNL     1      23.520  -0.392  53.884  1.00  0.00     0.277 C 
HETATM   12  C10 UNL     1      22.324  -1.199  53.402  1.00  0.00     0.056 C 
HETATM   13  C11 UNL     1      21.097  -0.815  54.240  1.00  0.00     0.169 C 
HETATM   14  O3  UNL     1      20.816   0.455  54.238  1.00  0.00    -0.385 OA
HETATM   15  C12 UNL     1      20.382   1.339  53.395  1.00  0.00     0.231 C 
HETATM   16  C13 UNL     1      25.914  -0.719  53.641  1.00  0.00     0.398 C 
HETATM   17  N3  UNL     1      26.338   0.689  53.732  1.00  0.00    -0.360 N 
HETATM   18  C14 UNL     1      27.619   1.087  54.334  1.00  0.00     0.151 C 
HETATM   19  H7  UNL     1      23.873   6.126  52.070  1.00  0.00     0.189 HD
ENDROOT
BRANCH   1  20
HETATM   20  O1  UNL     1      21.023   0.673  50.960  1.00  0.00    -0.358 OA
HETATM   21  C1  UNL     1      21.768   1.100  49.834  1.00  0.00     0.209 C 
ENDBRANCH   1  20
TORSDOF 1
ENDMDL
MODEL 4
REMARK VINA RESULT:      -6.5      1.443      1.686
REMARK  1 active torsions:
REMARK  status: ('A' for Active; 'I' for Inactive)
REMARK    1  A    between atoms: O1_2  and  C2_3 
ROOT
HETATM    1  C2  UNL     1      21.791   2.496  51.756  1.00  0.00     0.066 C 
HETATM    2  C3  UNL     1      21.502   1.706  52.802  1.00  0.00     0.016 C 
HETATM    3  C4  UNL     1      21.229   0.251  52.880  1.00  0.00     0.115 C 
HETATM    4  C5  UNL     1      22.315  -0.399  53.717  1.00  0.00     0.141 C 
HETATM    5  N1  UNL     1      22.398  -1.349  54.582  1.00  0.00    -0.281 NA
HETATM    6  O2  UNL     1      23.536   0.198  53.476  1.00  0.00    -0.306 OA
HETATM    7  C6  UNL     1      24.736  -0.466  53.342  1.00  0.00     0.170 C 
HETATM    8  C7  UNL     1      25.571   0.594  53.326  1.00  0.00     0.059 C 
HETATM    9  C8  UNL     1      25.322   2.058  53.424  1.00  0.00     0.333 C 
HETATM   10  N2  UNL     1      26.140   2.558  52.314  1.00  0.00     0.111 N 
HETATM   11  C9  UNL     1      25.419   2.204  51.136  1.00  0.00     0.277 C 
HETATM   12  C10 UNL     1      24.759   3.451  50.567  1.00  0.00     0.056 C 
HETATM   13  C11 UNL     1      23.875   3.046  49.380  1.00  0.00     0.169 C 
HETATM   14  O3  UNL     1      22.978   2.145  49.656  1.00  0.00    -0.385 OA
HETATM   15  C12 UNL     1      21.890   2.059  50.356  1.00  0.00     0.231 C 
HETATM   16  C13 UNL     1      27.379   1.888  52.536  1.00  0.00     0.398 C 
HETATM   17  N3  UNL     1      26.988   0.621  53.178  1.00  0.00    -0.360 N 
HETATM   18  C14 UNL     1      27.972  -0.401  53.564  1.00  0.00     0.151 C 
HETATM   19  H7  UNL     1      21.619  -1.936  54.919  1.00  0.00     0.189 HD
ENDROOT
BRANCH   1  20
HETATM   20  O1  UNL     1      21.943   3.748  52.338  1.00  0.00    -0.358 OA
HETATM   21  C1  UNL     1      21.477   4.875  51.618  1.00  0.00     0.209 C 
ENDBRANCH   1  20
TORSDOF 1
ENDMDL
MODEL 5
REMARK VINA RESULT:      -6.4      1.940      4.328
REMARK  1 active torsions:
REMARK  status: ('A' for Active; 'I' for Inactive)
REMARK    1  A    between atoms: O1_2  and  C2_3 
ROOT
HETATM    1  C2  UNL     1      22.496   2.545  50.194  1.00  0.00     0.066 C 
HETATM    2  C3  UNL     1      23.691   2.867  49.672  1.00  0.00     0.016 C 
HETATM    3  C4  UNL     1      24.582   4.026  49.916  1.00  0.00     0.115 C 
HETATM    4  C5  UNL     1      25.880   3.518  50.515  1.00  0.00     0.141 C 
HETATM    5  N1  UNL     1      27.133   3.804  50.432  1.00  0.00    -0.281 NA
HETATM    6  O2  UNL     1      25.639   2.470  51.380  1.00  0.00    -0.306 OA
HETATM    7  C6  UNL     1      26.253   2.284  52.599  1.00  0.00     0.170 C 
HETATM    8  C7  UNL     1      25.793   1.048  52.888  1.00  0.00     0.059 C 
HETATM    9  C8  UNL     1      24.896   0.121  52.145  1.00  0.00     0.333 C 
HETATM   10  N2  UNL     1      23.967  -0.282  53.207  1.00  0.00     0.111 N 
HETATM   11  C9  UNL     1      23.130   0.853  53.414  1.00  0.00     0.277 C 
HETATM   12  C10 UNL     1      21.768   0.582  52.793  1.00  0.00     0.056 C 
HETATM   13  C11 UNL     1      20.914   1.853  52.898  1.00  0.00     0.169 C 
HETATM   14  O3  UNL     1      21.452   2.912  52.366  1.00  0.00    -0.385 OA
HETATM   15  C12 UNL     1      21.752   3.342  51.180  1.00  0.00     0.231 C 
HETATM   16  C13 UNL     1      24.859  -0.626  54.264  1.00  0.00     0.398 C 
HETATM   17  N3  UNL     1      26.023   0.250  54.046  1.00  0.00    -0.360 N 
HETATM   18  C14 UNL     1      27.192   0.242  54.938  1.00  0.00     0.151 C 
HETATM   19  H7  UNL     1      27.551   4.548  49.850  1.00  0.00     0.189 HD
ENDROOT
BRANCH   1  20
HETATM   20  O1  UNL     1      22.191   1.343  49.568  1.00  0.00    -0.358 OA
HETATM   21  C1  UNL     1      21.468   1.395  48.351  1.00  0.00     0.209 C 
ENDBRANCH   1  20
TORSDOF 1
ENDMDL
MODEL 6
REMARK VINA RESULT:      -6.3      2.567      4.877
REMARK  1 active torsions:
REMARK  status: ('A' for Active; 'I' for Inactive)
REMARK    1  A    between atoms: O1_2  and  C2_3 
ROOT
HETATM    1  C2  UNL     1      24.281   4.083  49.937  1.00  0.00     0.066 C 
HETATM    2  C3  UNL     1      25.203   3.107  49.950  1.00  0.00     0.016 C 
HETATM    3  C4  UNL     1      26.348   2.858  50.858  1.00  0.00     0.115 C 
HETATM    4  C5  UNL     1      26.113   1.545  51.583  1.00  0.00     0.141 C 
HETATM    5  N1  UNL     1      26.824   0.550  51.985  1.00  0.00    -0.281 NA
HETATM    6  O2  UNL     1      24.775   1.390  51.883  1.00  0.00    -0.306 OA
HETATM    7  C6  UNL     1      24.277   0.897  53.069  1.00  0.00     0.170 C 
HETATM    8  C7  UNL     1      22.975   0.788  52.730  1.00  0.00     0.059 C 
HETATM    9  C8  UNL     1      22.247   1.089  51.467  1.00  0.00     0.333 C 
HETATM   10  N2  UNL     1      21.104   1.854  51.977  1.00  0.00     0.111 N 
HETATM   11  C9  UNL     1      21.640   3.126  52.332  1.00  0.00     0.277 C 
HETATM   12  C10 UNL     1      21.228   4.147  51.282  1.00  0.00     0.056 C 
HETATM   13  C11 UNL     1      21.917   5.483  51.592  1.00  0.00     0.169 C 
HETATM   14  O3  UNL     1      23.213   5.416  51.676  1.00  0.00    -0.385 OA
HETATM   15  C12 UNL     1      24.215   5.209  50.879  1.00  0.00     0.231 C 
HETATM   16  C13 UNL     1      20.649   1.026  53.044  1.00  0.00     0.398 C 
HETATM   17  N3  UNL     1      21.871   0.357  53.522  1.00  0.00    -0.360 N 
HETATM   18  C14 UNL     1      21.863  -0.585  54.650  1.00  0.00     0.151 C 
HETATM   19  H7  UNL     1      27.844   0.444  51.873  1.00  0.00     0.189 HD
ENDROOT
BRANCH   1  20
HETATM   20  O1  UNL     1      23.483   3.750  48.850  1.00  0.00    -0.358 OA
HETATM   21  C1  UNL     1      22.956   4.805  48.066  1.00  0.00     0.209 C 
ENDBRANCH   1  20
TORSDOF 1
ENDMDL
MODEL 7
REMARK VINA RESULT:      -6.2      1.671      1.997
REMARK  1 active torsions:
REMARK  status: ('A' for Active; 'I' for Inactive)
REMARK    1  A    between atoms: O1_2  and  C2_3 
ROOT
HETATM    1  C2  UNL     1      19.796   2.054  50.883  1.00  0.00     0.066 C 
HETATM    2  C3  UNL     1      19.414   1.422  52.004  1.00  0.00     0.016 C 
HETATM    3  C4  UNL     1      19.130  -0.009  52.269  1.00  0.00     0.115 C 
HETATM    4  C5  UNL     1      20.136  -0.521  53.282  1.00  0.00     0.141 C 
HETATM    5  N1  UNL     1      20.139  -1.335  54.281  1.00  0.00    -0.281 NA
HETATM    6  O2  UNL     1      21.376   0.045  53.064  1.00  0.00    -0.306 OA
HETATM    7  C6  UNL     1      22.580  -0.621  53.132  1.00  0.00     0.170 C 
HETATM    8  C7  UNL     1      23.418   0.432  53.033  1.00  0.00     0.059 C 
HETATM    9  C8  UNL     1      23.167   1.893  52.895  1.00  0.00     0.333 C 
HETATM   10  N2  UNL     1      24.081   2.232  51.798  1.00  0.00     0.111 N 
HETATM   11  C9  UNL     1      23.463   1.705  50.627  1.00  0.00     0.277 C 
HETATM   12  C10 UNL     1      22.860   2.850  49.828  1.00  0.00     0.056 C 
HETATM   13  C11 UNL     1      22.080   2.269  48.641  1.00  0.00     0.169 C 
HETATM   14  O3  UNL     1      21.159   1.410  48.967  1.00  0.00    -0.385 OA
HETATM   15  C12 UNL     1      20.014   1.418  49.575  1.00  0.00     0.231 C 
HETATM   16  C13 UNL     1      25.293   1.613  52.222  1.00  0.00     0.398 C 
HETATM   17  N3  UNL     1      24.842   0.450  53.006  1.00  0.00    -0.360 N 
HETATM   18  C14 UNL     1      25.784  -0.497  53.620  1.00  0.00     0.151 C 
HETATM   19  H7  UNL     1      19.331  -1.873  54.631  1.00  0.00     0.189 HD
ENDROOT
BRANCH   1  20
HETATM   20  O1  UNL     1      19.902   3.378  51.287  1.00  0.00    -0.358 OA
HETATM   21  C1  UNL     1      19.272   4.367  50.492  1.00  0.00     0.209 C 
ENDBRANCH   1  20
TORSDOF 1
ENDMDL
MODEL 8
REMARK VINA RESULT:      -6.1      2.347      5.970
REMARK  1 active torsions:
REMARK  status: ('A' for Active; 'I' for Inactive)
REMARK    1  A    between atoms: O1_2  and  C2_3 
ROOT
HETATM    1  C2  UNL     1      26.869   1.787  52.068  1.00  0.00     0.066 C 
HETATM    2  C3  UNL     1      26.463   2.820  51.312  1.00  0.00     0.016 C 
HETATM    3  C4  UNL     1      26.169   2.911  49.862  1.00  0.00     0.115 C 
HETATM    4  C5  UNL     1      24.700   3.245  49.687  1.00  0.00     0.141 C 
HETATM    5  N1  UNL     1      23.984   3.963  48.892  1.00  0.00    -0.281 NA
HETATM    6  O2  UNL     1      23.938   2.602  50.641  1.00  0.00    -0.306 OA
HETATM    7  C6  UNL     1      22.723   1.994  50.415  1.00  0.00     0.170 C 
HETATM    8  C7  UNL     1      22.372   1.727  51.691  1.00  0.00     0.059 C 
HETATM    9  C8  UNL     1      23.054   1.994  52.987  1.00  0.00     0.333 C 
HETATM   10  N2  UNL     1      22.927   0.689  53.645  1.00  0.00     0.111 N 
HETATM   11  C9  UNL     1      23.862  -0.154  52.975  1.00  0.00     0.277 C 
HETATM   12  C10 UNL     1      25.070  -0.365  53.876  1.00  0.00     0.056 C 
HETATM   13  C11 UNL     1      26.132  -1.158  53.102  1.00  0.00     0.169 C 
HETATM   14  O3  UNL     1      26.495  -0.620  51.975  1.00  0.00    -0.385 OA
HETATM   15  C12 UNL     1      27.149   0.429  51.581  1.00  0.00     0.231 C 
HETATM   16  C13 UNL     1      21.545   0.396  53.455  1.00  0.00     0.398 C 
HETATM   17  N3  UNL     1      21.212   1.065  52.185  1.00  0.00    -0.360 N 
HETATM   18  C14 UNL     1      19.868   0.999  51.591  1.00  0.00     0.151 C 
HETATM   19  H7  UNL     1      24.331   4.532  48.105  1.00  0.00     0.189 HD
ENDROOT
BRANCH   1  20
HETATM   20  O1  UNL     1      26.954   2.341  53.339  1.00  0.00    -0.358 OA
HETATM   21  C1  UNL     1      28.225   2.377  53.963  1.00  0.00     0.209 C 
ENDBRANCH   1  20
TORSDOF 1
ENDMDL
MODEL 9
REMARK VINA RESULT:      -6.1      2.357      4.478
REMARK  1 active torsions:
REMARK  status: ('A' for Active; 'I' for Inactive)
REMARK    1  A    between atoms: O1_2  and  C2_3 
ROOT
HETATM    1  C2  UNL     1      20.512   3.933  50.454  1.00  0.00     0.066 C 
HETATM    2  C3  UNL     1      21.437   4.897  50.324  1.00  0.00     0.016 C 
HETATM    3  C4  UNL     1      21.807   6.022  51.216  1.00  0.00     0.115 C 
HETATM    4  C5  UNL     1      23.239   5.824  51.676  1.00  0.00     0.141 C 
HETATM    5  N1  UNL     1      24.264   6.566  51.917  1.00  0.00    -0.281 NA
HETATM    6  O2  UNL     1      23.499   4.485  51.889  1.00  0.00    -0.306 OA
HETATM    7  C6  UNL     1      24.222   3.972  52.943  1.00  0.00     0.170 C 
HETATM    8  C7  UNL     1      24.317   2.688  52.538  1.00  0.00     0.059 C 
HETATM    9  C8  UNL     1      23.814   1.988  51.324  1.00  0.00     0.333 C 
HETATM   10  N2  UNL     1      23.202   0.796  51.921  1.00  0.00     0.111 N 
HETATM   11  C9  UNL     1      21.998   1.262  52.526  1.00  0.00     0.277 C 
HETATM   12  C10 UNL     1      20.817   0.838  51.666  1.00  0.00     0.056 C 
HETATM   13  C11 UNL     1      19.536   1.456  52.244  1.00  0.00     0.169 C 
HETATM   14  O3  UNL     1      19.567   2.751  52.365  1.00  0.00    -0.385 OA
HETATM   15  C12 UNL     1      19.584   3.786  51.585  1.00  0.00     0.231 C 
HETATM   16  C13 UNL     1      24.230   0.345  52.798  1.00  0.00     0.398 C 
HETATM   17  N3  UNL     1      24.929   1.580  53.192  1.00  0.00    -0.360 N 
HETATM   18  C14 UNL     1      26.064   1.578  54.127  1.00  0.00     0.151 C 
HETATM   19  H7  UNL     1      24.307   7.593  51.827  1.00  0.00     0.189 HD
ENDROOT
BRANCH   1  20
HETATM   20  O1  UNL     1      20.668   3.186  49.294  1.00  0.00    -0.358 OA
HETATM   21  C1  UNL     1      19.510   2.898  48.530  1.00  0.00     0.209 C 
ENDBRANCH   1  20
TORSDOF 1
ENDMDL
