MODEL 1
REMARK VINA RESULT:      -8.6      0.000      0.000
REMARK  5 active torsions:
REMARK  status: ('A' for Active; 'I' for Inactive)
REMARK    1  A    between atoms: N1_1  and  C1_2 
REMARK    2  A    between atoms: N2_5  and  C4_6 
REMARK    3  A    between atoms: C4_6  and  C5_7 
REMARK    4  A    between atoms: C9_14  and  N6_15 
REMARK    5  A    between atoms: N6_15  and  C10_16 
ROOT
HETATM    1  C5  UNL     1      22.316   0.280  52.618  1.00  0.00     0.004 A 
HETATM    2  C6  UNL     1      21.033   0.072  53.137  1.00  0.00     0.030 A 
HETATM    3  C7  UNL     1      21.130  -0.561  54.341  1.00  0.00     0.119 A 
HETATM    4  N3  UNL     1      22.438  -0.761  54.608  1.00  0.00    -0.240 N 
HETATM    5  N4  UNL     1      23.067  -1.330  55.649  1.00  0.00    -0.161 NA
HETATM    6  C8  UNL     1      24.409  -1.402  55.673  1.00  0.00     0.258 A 
HETATM    7  N5  UNL     1      25.146  -0.901  54.643  1.00  0.00    -0.220 NA
HETATM    8  C9  UNL     1      24.513  -0.326  53.588  1.00  0.00     0.159 A 
HETATM    9  C16 UNL     1      23.146  -0.258  53.574  1.00  0.00     0.112 A 
ENDROOT
BRANCH   1  10
HETATM   10  C4  UNL     1      22.593   0.942  51.335  1.00  0.00     0.313 C 
BRANCH  10  11
HETATM   11  N2  UNL     1      22.296   2.359  51.355  1.00  0.00     0.092 N 
HETATM   12  C3  UNL     1      22.452   2.992  50.094  1.00  0.00     0.275 C 
HETATM   13  C2  UNL     1      23.857   3.384  49.763  1.00  0.00     0.065 C 
HETATM   14  C1  UNL     1      24.290   4.357  50.826  1.00  0.00     0.221 C 
HETATM   15  C18 UNL     1      24.093   3.854  52.222  1.00  0.00     0.065 C 
HETATM   16  C17 UNL     1      22.934   2.978  52.463  1.00  0.00     0.275 C 
BRANCH  14  17
HETATM   17  N1  UNL     1      25.675   4.702  50.555  1.00  0.00     0.083 N 
HETATM   18  H1  UNL     1      26.311   4.478  51.351  1.00  0.00     0.313 HD
HETATM   19  H2  UNL     1      26.018   4.137  49.747  1.00  0.00     0.313 HD
ENDBRANCH  14  17
ENDBRANCH  10  11
ENDBRANCH   1  10
BRANCH   8  20
HETATM   20  N6  UNL     1      25.326   0.180  52.542  1.00  0.00    -0.339 N 
HETATM   21  H13 UNL     1      25.138   0.299  51.531  1.00  0.00     0.167 HD
BRANCH  20  22
HETATM   22  C10 UNL     1      26.630   0.590  53.005  1.00  0.00     0.035 A 
HETATM   23  C11 UNL     1      26.918   1.909  53.309  1.00  0.00     0.029 A 
HETATM   24  C12 UNL     1      28.186   2.282  53.754  1.00  0.00     0.004 A 
HETATM   25  C13 UNL     1      29.165   1.325  53.891  1.00  0.00     0.024 A 
HETATM   26  C14 UNL     1      28.926  -0.009  53.599  1.00  0.00     0.036 A 
HETATM   27 CL1  UNL     1      30.209  -1.161  53.797  1.00  0.00    -0.084 Cl
HETATM   28  C15 UNL     1      27.662  -0.301  53.170  1.00  0.00     0.053 A 
ENDBRANCH  20  22
ENDBRANCH   8  20
TORSDOF 5
ENDMDL
MODEL 2
REMARK VINA RESULT:      -8.2      2.633      5.214
REMARK  5 active torsions:
REMARK  status: ('A' for Active; 'I' for Inactive)
REMARK    1  A    between atoms: N1_1  and  C1_2 
REMARK    2  A    between atoms: N2_5  and  C4_6 
REMARK    3  A    between atoms: C4_6  and  C5_7 
REMARK    4  A    between atoms: C9_14  and  N6_15 
REMARK    5  A    between atoms: N6_15  and  C10_16 
ROOT
HETATM    1  C5  UNL     1      23.596  -0.236  53.519  1.00  0.00     0.004 A 
HETATM    2  C6  UNL     1      23.128  -0.977  54.610  1.00  0.00     0.030 A 
HETATM    3  C7  UNL     1      21.765  -0.945  54.626  1.00  0.00     0.119 A 
HETATM    4  N3  UNL     1      21.348  -0.205  53.577  1.00  0.00    -0.240 N 
HETATM    5  N4  UNL     1      20.123   0.131  53.144  1.00  0.00    -0.161 NA
HETATM    6  C8  UNL     1      19.977   0.892  52.046  1.00  0.00     0.258 A 
HETATM    7  N5  UNL     1      21.068   1.332  51.361  1.00  0.00    -0.220 NA
HETATM    8  C9  UNL     1      22.309   0.994  51.796  1.00  0.00     0.159 A 
HETATM    9  C16 UNL     1      22.446   0.219  52.916  1.00  0.00     0.112 A 
ENDROOT
BRANCH   1  10
HETATM   10  C4  UNL     1      25.017  -0.058  53.186  1.00  0.00     0.313 C 
BRANCH  10  11
HETATM   11  N2  UNL     1      25.698   0.849  54.087  1.00  0.00     0.092 N 
HETATM   12  C3  UNL     1      26.298   1.957  53.435  1.00  0.00     0.275 C 
HETATM   13  C2  UNL     1      27.644   1.678  52.844  1.00  0.00     0.065 C 
HETATM   14  C1  UNL     1      28.537   1.274  53.986  1.00  0.00     0.221 C 
HETATM   15  C18 UNL     1      27.980   0.167  54.826  1.00  0.00     0.065 C 
HETATM   16  C17 UNL     1      26.518   0.118  54.990  1.00  0.00     0.275 C 
BRANCH  14  17
HETATM   17  N1  UNL     1      29.833   0.940  53.423  1.00  0.00     0.083 N 
HETATM   18  H1  UNL     1      30.526   1.715  53.514  1.00  0.00     0.313 HD
HETATM   19  H2  UNL     1      30.238   0.132  53.947  1.00  0.00     0.313 HD
ENDBRANCH  14  17
ENDBRANCH  10  11
ENDBRANCH   1  10
BRANCH   8  20
HETATM   20  N6  UNL     1      23.412   1.478  51.048  1.00  0.00    -0.339 N 
HETATM   21  H13 UNL     1      24.117   0.981  50.473  1.00  0.00     0.167 HD
BRANCH  20  22
HETATM   22  C10 UNL     1      23.544   2.913  51.122  1.00  0.00     0.035 A 
HETATM   23  C11 UNL     1      23.328   3.610  52.297  1.00  0.00     0.029 A 
HETATM   24  C12 UNL     1      23.461   4.997  52.345  1.00  0.00     0.004 A 
HETATM   25  C13 UNL     1      23.810   5.684  51.205  1.00  0.00     0.024 A 
HETATM   26  C14 UNL     1      24.036   5.033  50.003  1.00  0.00     0.036 A 
HETATM   27 CL1  UNL     1      24.474   5.964  48.605  1.00  0.00    -0.084 Cl
HETATM   28  C15 UNL     1      23.890   3.674  50.031  1.00  0.00     0.053 A 
ENDBRANCH  20  22
ENDBRANCH   8  20
TORSDOF 5
ENDMDL
MODEL 3
REMARK VINA RESULT:      -8.1      1.721      4.865
REMARK  5 active torsions:
REMARK  status: ('A' for Active; 'I' for Inactive)
REMARK    1  A    between atoms: N1_1  and  C1_2 
REMARK    2  A    between atoms: N2_5  and  C4_6 
REMARK    3  A    between atoms: C4_6  and  C5_7 
REMARK    4  A    between atoms: C9_14  and  N6_15 
REMARK    5  A    between atoms: N6_15  and  C10_16 
ROOT
HETATM    1  C5  UNL     1      23.170   2.615  51.477  1.00  0.00     0.004 A 
HETATM    2  C6  UNL     1      22.363   3.083  50.435  1.00  0.00     0.030 A 
HETATM    3  C7  UNL     1      23.153   3.578  49.439  1.00  0.00     0.119 A 
HETATM    4  N3  UNL     1      24.441   3.438  49.815  1.00  0.00    -0.240 N 
HETATM    5  N4  UNL     1      25.595   3.756  49.207  1.00  0.00    -0.161 NA
HETATM    6  C8  UNL     1      26.770   3.503  49.808  1.00  0.00     0.258 A 
HETATM    7  N5  UNL     1      26.806   2.922  51.039  1.00  0.00    -0.220 NA
HETATM    8  C9  UNL     1      25.641   2.599  51.657  1.00  0.00     0.159 A 
HETATM    9  C16 UNL     1      24.450   2.862  51.036  1.00  0.00     0.112 A 
ENDROOT
BRANCH   1  10
HETATM   10  C4  UNL     1      22.657   2.008  52.714  1.00  0.00     0.313 C 
BRANCH  10  11
HETATM   11  N2  UNL     1      22.575   0.564  52.643  1.00  0.00     0.092 N 
HETATM   12  C3  UNL     1      21.612   0.093  51.712  1.00  0.00     0.275 C 
HETATM   13  C2  UNL     1      20.210   0.056  52.232  1.00  0.00     0.065 C 
HETATM   14  C1  UNL     1      20.215  -0.883  53.408  1.00  0.00     0.221 C 
HETATM   15  C18 UNL     1      21.255  -0.560  54.435  1.00  0.00     0.065 C 
HETATM   16  C17 UNL     1      22.523   0.010  53.951  1.00  0.00     0.275 C 
BRANCH  14  17
HETATM   17  N1  UNL     1      18.873  -0.885  53.963  1.00  0.00     0.083 N 
HETATM   18  H1  UNL     1      18.144  -1.133  53.260  1.00  0.00     0.313 HD
HETATM   19  H2  UNL     1      18.811  -1.616  54.708  1.00  0.00     0.313 HD
ENDBRANCH  14  17
ENDBRANCH  10  11
ENDBRANCH   1  10
BRANCH   8  20
HETATM   20  N6  UNL     1      25.732   1.996  52.938  1.00  0.00    -0.339 N 
HETATM   21  H13 UNL     1      25.361   2.293  53.858  1.00  0.00     0.167 HD
BRANCH  20  22
HETATM   22  C10 UNL     1      26.474   0.759  52.914  1.00  0.00     0.035 A 
HETATM   23  C11 UNL     1      25.894  -0.437  52.530  1.00  0.00     0.029 A 
HETATM   24  C12 UNL     1      26.631  -1.621  52.516  1.00  0.00     0.004 A 
HETATM   25  C13 UNL     1      27.955  -1.599  52.891  1.00  0.00     0.024 A 
HETATM   26  C14 UNL     1      28.582  -0.427  53.284  1.00  0.00     0.036 A 
HETATM   27 CL1  UNL     1      30.255  -0.475  53.743  1.00  0.00    -0.084 Cl
HETATM   28  C15 UNL     1      27.799   0.693  53.273  1.00  0.00     0.053 A 
ENDBRANCH  20  22
ENDBRANCH   8  20
TORSDOF 5
ENDMDL
MODEL 4
REMARK VINA RESULT:      -8.0      2.775      5.876
REMARK  5 active torsions:
REMARK  status: ('A' for Active; 'I' for Inactive)
REMARK    1  A    between atoms: N1_1  and  C1_2 
REMARK    2  A    between atoms: N2_5  and  C4_6 
REMARK    3  A    between atoms: C4_6  and  C5_7 
REMARK    4  A    between atoms: C9_14  and  N6_15 
REMARK    5  A    between atoms: N6_15  and  C10_16 
ROOT
HETATM    1  C5  UNL     1      23.089   1.021  52.025  1.00  0.00     0.004 A 
HETATM    2  C6  UNL     1      21.977   0.214  52.288  1.00  0.00     0.030 A 
HETATM    3  C7  UNL     1      21.110   0.285  51.238  1.00  0.00     0.119 A 
HETATM    4  N3  UNL     1      21.636   1.112  50.312  1.00  0.00    -0.240 N 
HETATM    5  N4  UNL     1      21.194   1.515  49.110  1.00  0.00    -0.161 NA
HETATM    6  C8  UNL     1      21.927   2.360  48.366  1.00  0.00     0.258 A 
HETATM    7  N5  UNL     1      23.126   2.819  48.821  1.00  0.00    -0.220 NA
HETATM    8  C9  UNL     1      23.576   2.414  50.036  1.00  0.00     0.159 A 
HETATM    9  C16 UNL     1      22.822   1.553  50.785  1.00  0.00     0.112 A 
ENDROOT
BRANCH   1  10
HETATM   10  C4  UNL     1      24.230   1.183  52.939  1.00  0.00     0.313 C 
BRANCH  10  11
HETATM   11  N2  UNL     1      25.100   0.025  52.965  1.00  0.00     0.092 N 
HETATM   12  C3  UNL     1      25.307  -0.503  54.266  1.00  0.00     0.275 C 
HETATM   13  C2  UNL     1      26.364   0.195  55.060  1.00  0.00     0.065 C 
HETATM   14  C1  UNL     1      27.648   0.045  54.290  1.00  0.00     0.221 C 
HETATM   15  C18 UNL     1      27.550   0.479  52.861  1.00  0.00     0.065 C 
HETATM   16  C17 UNL     1      26.261   0.267  52.181  1.00  0.00     0.275 C 
BRANCH  14  17
HETATM   17  N1  UNL     1      28.675   0.770  55.017  1.00  0.00     0.083 N 
HETATM   18  H1  UNL     1      29.445   1.109  54.401  1.00  0.00     0.313 HD
HETATM   19  H2  UNL     1      28.254   1.625  55.446  1.00  0.00     0.313 HD
ENDBRANCH  14  17
ENDBRANCH  10  11
ENDBRANCH   1  10
BRANCH   8  20
HETATM   20  N6  UNL     1      24.830   2.920  50.464  1.00  0.00    -0.339 N 
HETATM   21  H13 UNL     1      25.692   2.435  50.771  1.00  0.00     0.167 HD
BRANCH  20  22
HETATM   22  C10 UNL     1      24.876   4.363  50.455  1.00  0.00     0.035 A 
HETATM   23  C11 UNL     1      24.023   5.128  51.229  1.00  0.00     0.029 A 
HETATM   24  C12 UNL     1      24.085   6.521  51.204  1.00  0.00     0.004 A 
HETATM   25  C13 UNL     1      25.008   7.144  50.396  1.00  0.00     0.024 A 
HETATM   26  C14 UNL     1      25.885   6.422  49.602  1.00  0.00     0.036 A 
HETATM   27 CL1  UNL     1      27.023   7.275  48.607  1.00  0.00    -0.084 Cl
HETATM   28  C15 UNL     1      25.768   5.063  49.678  1.00  0.00     0.053 A 
ENDBRANCH  20  22
ENDBRANCH   8  20
TORSDOF 5
ENDMDL
MODEL 5
REMARK VINA RESULT:      -7.9      2.730      5.595
REMARK  5 active torsions:
REMARK  status: ('A' for Active; 'I' for Inactive)
REMARK    1  A    between atoms: N1_1  and  C1_2 
REMARK    2  A    between atoms: N2_5  and  C4_6 
REMARK    3  A    between atoms: C4_6  and  C5_7 
REMARK    4  A    between atoms: C9_14  and  N6_15 
REMARK    5  A    between atoms: N6_15  and  C10_16 
ROOT
HETATM    1  C5  UNL     1      24.580  -0.138  53.760  1.00  0.00     0.004 A 
HETATM    2  C6  UNL     1      24.963  -0.778  54.944  1.00  0.00     0.030 A 
HETATM    3  C7  UNL     1      26.195  -0.330  55.321  1.00  0.00     0.119 A 
HETATM    4  N3  UNL     1      26.609   0.578  54.413  1.00  0.00    -0.240 N 
HETATM    5  N4  UNL     1      27.731   1.310  54.320  1.00  0.00    -0.161 NA
HETATM    6  C8  UNL     1      27.901   2.164  53.296  1.00  0.00     0.258 A 
HETATM    7  N5  UNL     1      26.939   2.296  52.341  1.00  0.00    -0.220 NA
HETATM    8  C9  UNL     1      25.803   1.558  52.432  1.00  0.00     0.159 A 
HETATM    9  C16 UNL     1      25.641   0.692  53.478  1.00  0.00     0.112 A 
ENDROOT
BRANCH   1  10
HETATM   10  C4  UNL     1      23.305  -0.372  53.067  1.00  0.00     0.313 C 
BRANCH  10  11
HETATM   11  N2  UNL     1      22.217   0.420  53.603  1.00  0.00     0.092 N 
HETATM   12  C3  UNL     1      21.515  -0.217  54.659  1.00  0.00     0.275 C 
HETATM   13  C2  UNL     1      20.468  -1.188  54.214  1.00  0.00     0.065 C 
HETATM   14  C1  UNL     1      19.472  -0.403  53.405  1.00  0.00     0.221 C 
HETATM   15  C18 UNL     1      20.089   0.401  52.303  1.00  0.00     0.065 C 
HETATM   16  C17 UNL     1      21.432   0.954  52.545  1.00  0.00     0.275 C 
BRANCH  14  17
HETATM   17  N1  UNL     1      18.479  -1.341  52.913  1.00  0.00     0.083 N 
HETATM   18  H1  UNL     1      17.912  -1.768  53.678  1.00  0.00     0.313 HD
HETATM   19  H2  UNL     1      17.800  -0.835  52.302  1.00  0.00     0.313 HD
ENDBRANCH  14  17
ENDBRANCH  10  11
ENDBRANCH   1  10
BRANCH   8  20
HETATM   20  N6  UNL     1      24.833   1.733  51.412  1.00  0.00    -0.339 N 
HETATM   21  H13 UNL     1      24.405   1.056  50.755  1.00  0.00     0.167 HD
BRANCH  20  22
HETATM   22  C10 UNL     1      24.387   3.101  51.303  1.00  0.00     0.035 A 
HETATM   23  C11 UNL     1      23.797   3.767  52.362  1.00  0.00     0.029 A 
HETATM   24  C12 UNL     1      23.374   5.090  52.233  1.00  0.00     0.004 A 
HETATM   25  C13 UNL     1      23.544   5.742  51.033  1.00  0.00     0.024 A 
HETATM   26  C14 UNL     1      24.129   5.119  49.943  1.00  0.00     0.036 A 
HETATM   27 CL1  UNL     1      24.312   6.003  48.461  1.00  0.00    -0.084 Cl
HETATM   28  C15 UNL     1      24.520   3.824  50.142  1.00  0.00     0.053 A 
ENDBRANCH  20  22
ENDBRANCH   8  20
TORSDOF 5
ENDMDL
MODEL 6
REMARK VINA RESULT:      -7.9      2.142      5.382
REMARK  5 active torsions:
REMARK  status: ('A' for Active; 'I' for Inactive)
REMARK    1  A    between atoms: N1_1  and  C1_2 
REMARK    2  A    between atoms: N2_5  and  C4_6 
REMARK    3  A    between atoms: C4_6  and  C5_7 
REMARK    4  A    between atoms: C9_14  and  N6_15 
REMARK    5  A    between atoms: N6_15  and  C10_16 
ROOT
HETATM    1  C5  UNL     1      22.058   1.301  50.258  1.00  0.00     0.004 A 
HETATM    2  C6  UNL     1      21.614   1.266  48.931  1.00  0.00     0.030 A 
HETATM    3  C7  UNL     1      22.193   2.286  48.235  1.00  0.00     0.119 A 
HETATM    4  N3  UNL     1      22.994   2.970  49.078  1.00  0.00    -0.240 N 
HETATM    5  N4  UNL     1      23.782   4.043  48.899  1.00  0.00    -0.161 NA
HETATM    6  C8  UNL     1      24.496   4.538  49.923  1.00  0.00     0.258 A 
HETATM    7  N5  UNL     1      24.431   3.960  51.154  1.00  0.00    -0.220 NA
HETATM    8  C9  UNL     1      23.635   2.875  51.339  1.00  0.00     0.159 A 
HETATM    9  C16 UNL     1      22.912   2.379  50.289  1.00  0.00     0.112 A 
ENDROOT
BRANCH   1  10
HETATM   10  C4  UNL     1      21.643   0.345  51.295  1.00  0.00     0.313 C 
BRANCH  10  11
HETATM   11  N2  UNL     1      20.547   0.833  52.107  1.00  0.00     0.092 N 
HETATM   12  C3  UNL     1      20.675   0.520  53.485  1.00  0.00     0.275 C 
HETATM   13  C2  UNL     1      20.218  -0.855  53.856  1.00  0.00     0.065 C 
HETATM   14  C1  UNL     1      18.758  -0.932  53.498  1.00  0.00     0.221 C 
HETATM   15  C18 UNL     1      18.461  -0.533  52.086  1.00  0.00     0.065 C 
HETATM   16  C17 UNL     1      19.305   0.518  51.493  1.00  0.00     0.275 C 
BRANCH  14  17
HETATM   17  N1  UNL     1      18.312  -2.281  53.795  1.00  0.00     0.083 N 
HETATM   18  H1  UNL     1      17.312  -2.442  53.542  1.00  0.00     0.313 HD
HETATM   19  H2  UNL     1      18.863  -2.960  53.224  1.00  0.00     0.313 HD
ENDBRANCH  14  17
ENDBRANCH  10  11
ENDBRANCH   1  10
BRANCH   8  20
HETATM   20  N6  UNL     1      23.601   2.310  52.640  1.00  0.00    -0.339 N 
HETATM   21  H13 UNL     1      22.880   2.351  53.382  1.00  0.00     0.167 HD
BRANCH  20  22
HETATM   22  C10 UNL     1      24.793   1.555  52.945  1.00  0.00     0.035 A 
HETATM   23  C11 UNL     1      24.787   0.174  53.019  1.00  0.00     0.029 A 
HETATM   24  C12 UNL     1      25.951  -0.535  53.316  1.00  0.00     0.004 A 
HETATM   25  C13 UNL     1      27.123   0.151  53.540  1.00  0.00     0.024 A 
HETATM   26  C14 UNL     1      27.181   1.534  53.479  1.00  0.00     0.036 A 
HETATM   27 CL1  UNL     1      28.694   2.331  53.773  1.00  0.00    -0.084 Cl
HETATM   28  C15 UNL     1      26.004   2.161  53.182  1.00  0.00     0.053 A 
ENDBRANCH  20  22
ENDBRANCH   8  20
TORSDOF 5
ENDMDL
MODEL 7
REMARK VINA RESULT:      -7.9      1.576      4.858
REMARK  5 active torsions:
REMARK  status: ('A' for Active; 'I' for Inactive)
REMARK    1  A    between atoms: N1_1  and  C1_2 
REMARK    2  A    between atoms: N2_5  and  C4_6 
REMARK    3  A    between atoms: C4_6  and  C5_7 
REMARK    4  A    between atoms: C9_14  and  N6_15 
REMARK    5  A    between atoms: N6_15  and  C10_16 
ROOT
HETATM    1  C5  UNL     1      22.691   2.533  51.387  1.00  0.00     0.004 A 
HETATM    2  C6  UNL     1      21.825   2.685  50.299  1.00  0.00     0.030 A 
HETATM    3  C7  UNL     1      22.530   3.136  49.221  1.00  0.00     0.119 A 
HETATM    4  N3  UNL     1      23.821   3.274  49.590  1.00  0.00    -0.240 N 
HETATM    5  N4  UNL     1      24.910   3.677  48.916  1.00  0.00    -0.161 NA
HETATM    6  C8  UNL     1      26.106   3.723  49.527  1.00  0.00     0.258 A 
HETATM    7  N5  UNL     1      26.228   3.364  50.835  1.00  0.00    -0.220 NA
HETATM    8  C9  UNL     1      25.128   2.957  51.519  1.00  0.00     0.159 A 
HETATM    9  C16 UNL     1      23.915   2.913  50.888  1.00  0.00     0.112 A 
ENDROOT
BRANCH   1  10
HETATM   10  C4  UNL     1      22.277   2.058  52.716  1.00  0.00     0.313 C 
BRANCH  10  11
HETATM   11  N2  UNL     1      21.606   0.775  52.673  1.00  0.00     0.092 N 
HETATM   12  C3  UNL     1      20.782   0.524  53.802  1.00  0.00     0.275 C 
HETATM   13  C2  UNL     1      21.511   0.001  54.999  1.00  0.00     0.065 C 
HETATM   14  C1  UNL     1      22.136  -1.303  54.583  1.00  0.00     0.221 C 
HETATM   15  C18 UNL     1      22.964  -1.207  53.339  1.00  0.00     0.065 C 
HETATM   16  C17 UNL     1      22.525  -0.247  52.313  1.00  0.00     0.275 C 
BRANCH  14  17
HETATM   17  N1  UNL     1      22.898  -1.797  55.716  1.00  0.00     0.083 N 
HETATM   18  H1  UNL     1      23.862  -1.400  55.760  1.00  0.00     0.313 HD
HETATM   19  H2  UNL     1      22.428  -1.502  56.601  1.00  0.00     0.313 HD
ENDBRANCH  14  17
ENDBRANCH  10  11
ENDBRANCH   1  10
BRANCH   8  20
HETATM   20  N6  UNL     1      25.308   2.593  52.878  1.00  0.00    -0.339 N 
HETATM   21  H13 UNL     1      24.815   2.898  53.737  1.00  0.00     0.167 HD
BRANCH  20  22
HETATM   22  C10 UNL     1      26.369   1.631  53.057  1.00  0.00     0.035 A 
HETATM   23  C11 UNL     1      27.586   1.976  53.615  1.00  0.00     0.029 A 
HETATM   24  C12 UNL     1      28.597   1.029  53.778  1.00  0.00     0.004 A 
HETATM   25  C13 UNL     1      28.379  -0.269  53.376  1.00  0.00     0.024 A 
HETATM   26  C14 UNL     1      27.177  -0.665  52.812  1.00  0.00     0.036 A 
HETATM   27 CL1  UNL     1      26.974  -2.320  52.329  1.00  0.00    -0.084 Cl
HETATM   28  C15 UNL     1      26.234   0.315  52.684  1.00  0.00     0.053 A 
ENDBRANCH  20  22
ENDBRANCH   8  20
TORSDOF 5
ENDMDL
MODEL 8
REMARK VINA RESULT:      -7.8      2.426      5.579
REMARK  5 active torsions:
REMARK  status: ('A' for Active; 'I' for Inactive)
REMARK    1  A    between atoms: N1_1  and  C1_2 
REMARK    2  A    between atoms: N2_5  and  C4_6 
REMARK    3  A    between atoms: C4_6  and  C5_7 
REMARK    4  A    between atoms: C9_14  and  N6_15 
REMARK    5  A    between atoms: N6_15  and  C10_16 
ROOT
HETATM    1  C5  UNL     1      22.751   1.467  52.365  1.00  0.00     0.004 A 
HETATM    2  C6  UNL     1      22.153   0.248  52.025  1.00  0.00     0.030 A 
HETATM    3  C7  UNL     1      20.992   0.488  51.350  1.00  0.00     0.119 A 
HETATM    4  N3  UNL     1      20.832   1.824  51.249  1.00  0.00    -0.240 N 
HETATM    5  N4  UNL     1      19.873   2.574  50.684  1.00  0.00    -0.161 NA
HETATM    6  C8  UNL     1      19.953   3.915  50.718  1.00  0.00     0.258 A 
HETATM    7  N5  UNL     1      21.006   4.529  51.325  1.00  0.00    -0.220 NA
HETATM    8  C9  UNL     1      21.978   3.773  51.898  1.00  0.00     0.159 A 
HETATM    9  C16 UNL     1      21.886   2.409  51.858  1.00  0.00     0.112 A 
ENDROOT
BRANCH   1  10
HETATM   10  C4  UNL     1      24.021   1.591  53.094  1.00  0.00     0.313 C 
BRANCH  10  11
HETATM   11  N2  UNL     1      24.960   0.535  52.777  1.00  0.00     0.092 N 
HETATM   12  C3  UNL     1      25.259  -0.312  53.877  1.00  0.00     0.275 C 
HETATM   13  C2  UNL     1      26.307   0.217  54.803  1.00  0.00     0.065 C 
HETATM   14  C1  UNL     1      27.561   0.373  53.985  1.00  0.00     0.221 C 
HETATM   15  C18 UNL     1      27.370   1.172  52.734  1.00  0.00     0.065 C 
HETATM   16  C17 UNL     1      26.067   1.062  52.058  1.00  0.00     0.275 C 
BRANCH  14  17
HETATM   17  N1  UNL     1      28.574   0.943  54.855  1.00  0.00     0.083 N 
HETATM   18  H1  UNL     1      29.474   1.131  54.360  1.00  0.00     0.313 HD
HETATM   19  H2  UNL     1      28.244   1.870  55.207  1.00  0.00     0.313 HD
ENDBRANCH  14  17
ENDBRANCH  10  11
ENDBRANCH   1  10
BRANCH   8  20
HETATM   20  N6  UNL     1      23.053   4.460  52.518  1.00  0.00    -0.339 N 
HETATM   21  H13 UNL     1      23.291   4.594  53.517  1.00  0.00     0.167 HD
BRANCH  20  22
HETATM   22  C10 UNL     1      23.950   5.062  51.560  1.00  0.00     0.035 A 
HETATM   23  C11 UNL     1      23.925   6.416  51.283  1.00  0.00     0.029 A 
HETATM   24  C12 UNL     1      24.801   6.975  50.352  1.00  0.00     0.004 A 
HETATM   25  C13 UNL     1      25.703   6.167  49.700  1.00  0.00     0.024 A 
HETATM   26  C14 UNL     1      25.767   4.804  49.942  1.00  0.00     0.036 A 
HETATM   27 CL1  UNL     1      26.931   3.845  49.082  1.00  0.00    -0.084 Cl
HETATM   28  C15 UNL     1      24.880   4.326  50.866  1.00  0.00     0.053 A 
ENDBRANCH  20  22
ENDBRANCH   8  20
TORSDOF 5
ENDMDL
MODEL 9
REMARK VINA RESULT:      -7.8      2.054      3.607
REMARK  5 active torsions:
REMARK  status: ('A' for Active; 'I' for Inactive)
REMARK    1  A    between atoms: N1_1  and  C1_2 
REMARK    2  A    between atoms: N2_5  and  C4_6 
REMARK    3  A    between atoms: C4_6  and  C5_7 
REMARK    4  A    between atoms: C9_14  and  N6_15 
REMARK    5  A    between atoms: N6_15  and  C10_16 
ROOT
HETATM    1  C5  UNL     1      23.494   2.772  49.707  1.00  0.00     0.004 A 
HETATM    2  C6  UNL     1      22.655   2.485  48.625  1.00  0.00     0.030 A 
HETATM    3  C7  UNL     1      21.768   1.514  48.987  1.00  0.00     0.119 A 
HETATM    4  N3  UNL     1      22.016   1.174  50.269  1.00  0.00    -0.240 N 
HETATM    5  N4  UNL     1      21.437   0.284  51.091  1.00  0.00    -0.161 NA
HETATM    6  C8  UNL     1      21.880   0.137  52.351  1.00  0.00     0.258 A 
HETATM    7  N5  UNL     1      22.922   0.886  52.808  1.00  0.00    -0.220 NA
HETATM    8  C9  UNL     1      23.510   1.786  51.979  1.00  0.00     0.159 A 
HETATM    9  C16 UNL     1      23.050   1.928  50.698  1.00  0.00     0.112 A 
ENDROOT
BRANCH   1  10
HETATM   10  C4  UNL     1      24.569   3.775  49.679  1.00  0.00     0.313 C 
BRANCH  10  11
HETATM   11  N2  UNL     1      24.097   5.098  49.325  1.00  0.00     0.092 N 
HETATM   12  C3  UNL     1      24.972   5.803  48.457  1.00  0.00     0.275 C 
HETATM   13  C2  UNL     1      26.108   6.491  49.144  1.00  0.00     0.065 C 
HETATM   14  C1  UNL     1      25.496   7.487  50.091  1.00  0.00     0.221 C 
HETATM   15  C18 UNL     1      24.474   6.895  51.012  1.00  0.00     0.065 C 
HETATM   16  C17 UNL     1      23.657   5.789  50.487  1.00  0.00     0.275 C 
BRANCH  14  17
HETATM   17  N1  UNL     1      26.584   8.123  50.812  1.00  0.00     0.083 N 
HETATM   18  H1  UNL     1      27.442   8.238  50.229  1.00  0.00     0.313 HD
HETATM   19  H2  UNL     1      26.296   9.088  51.089  1.00  0.00     0.313 HD
ENDBRANCH  14  17
ENDBRANCH  10  11
ENDBRANCH   1  10
BRANCH   8  20
HETATM   20  N6  UNL     1      24.590   2.541  52.504  1.00  0.00    -0.339 N 
HETATM   21  H13 UNL     1      24.679   3.552  52.709  1.00  0.00     0.167 HD
BRANCH  20  22
HETATM   22  C10 UNL     1      25.747   1.726  52.790  1.00  0.00     0.035 A 
HETATM   23  C11 UNL     1      26.865   2.237  53.424  1.00  0.00     0.029 A 
HETATM   24  C12 UNL     1      27.971   1.430  53.689  1.00  0.00     0.004 A 
HETATM   25  C13 UNL     1      27.950   0.107  53.315  1.00  0.00     0.024 A 
HETATM   26  C14 UNL     1      26.854  -0.453  52.677  1.00  0.00     0.036 A 
HETATM   27 CL1  UNL     1      26.898  -2.130  52.233  1.00  0.00    -0.084 Cl
HETATM   28  C15 UNL     1      25.807   0.396  52.450  1.00  0.00     0.053 A 
ENDBRANCH  20  22
ENDBRANCH   8  20
TORSDOF 5
ENDMDL
