MODEL 1
REMARK VINA RESULT:      -8.5      0.000      0.000
REMARK  7 active torsions:
REMARK  status: ('A' for Active; 'I' for Inactive)
REMARK    1  A    between atoms: O1_2  and  C2_3 
REMARK    2  A    between atoms: C6_9  and  N3_10 
REMARK    3  A    between atoms: N3_10  and  C7_11 
REMARK    4  A    between atoms: C15_21  and  O2_22 
REMARK    5  A    between atoms: O2_22  and  C16_23 
REMARK    6  A    between atoms: C16_23  and  C17_24 
REMARK    7  A    between atoms: C17_24  and  N4_25 
ROOT
HETATM    1  C2  UNL     1      19.929  -0.266  52.763  1.00  0.00     0.103 A 
HETATM    2  C3  UNL     1      20.365  -0.924  53.894  1.00  0.00     0.072 A 
HETATM    3  C4  UNL     1      21.700  -0.905  54.205  1.00  0.00     0.075 A 
HETATM    4  N1  UNL     1      22.167  -1.535  55.304  1.00  0.00    -0.241 NA
HETATM    5  C5  UNL     1      23.478  -1.506  55.595  1.00  0.00     0.236 A 
HETATM    6  N2  UNL     1      24.373  -0.853  54.808  1.00  0.00    -0.224 NA
HETATM    7  C6  UNL     1      23.963  -0.200  53.689  1.00  0.00     0.142 A 
HETATM    8  C13 UNL     1      22.615  -0.234  53.397  1.00  0.00     0.042 A 
HETATM    9  C14 UNL     1      22.177   0.433  52.251  1.00  0.00     0.057 A 
HETATM   10  C15 UNL     1      20.815   0.413  51.934  1.00  0.00     0.103 A 
ENDROOT
BRANCH   7  11
HETATM   11  N3  UNL     1      24.895   0.485  52.864  1.00  0.00    -0.340 N 
HETATM   12  H6  UNL     1      24.442   1.007  52.101  1.00  0.00     0.167 HD
BRANCH  11  13
HETATM   13  C7  UNL     1      26.299   0.439  53.089  1.00  0.00     0.035 A 
HETATM   14  C8  UNL     1      26.945   1.618  53.393  1.00  0.00     0.032 A 
HETATM   15  C9  UNL     1      28.327   1.547  53.608  1.00  0.00     0.046 A 
HETATM   16  C10 UNL     1      28.963   0.318  53.509  1.00  0.00     0.138 A 
HETATM   17  F1  UNL     1      30.306   0.214  53.714  1.00  0.00    -0.204 F 
HETATM   18  C11 UNL     1      28.288  -0.848  53.203  1.00  0.00     0.074 A 
HETATM   19 CL1  UNL     1      29.071  -2.403  53.072  1.00  0.00    -0.081 Cl
HETATM   20  C12 UNL     1      26.927  -0.787  52.988  1.00  0.00     0.056 A 
ENDBRANCH  11  13
ENDBRANCH   7  11
BRANCH  10  21
HETATM   21  O2  UNL     1      20.226   1.021  50.843  1.00  0.00    -0.347 OA
BRANCH  21  22
HETATM   22  C16 UNL     1      20.830   1.319  49.623  1.00  0.00     0.195 C 
BRANCH  22  23
HETATM   23  C17 UNL     1      21.037   2.826  49.488  1.00  0.00     0.143 C 
BRANCH  23  24
HETATM   24  N4  UNL     1      22.195   3.321  50.122  1.00  0.00    -0.406 N 
HETATM   25  C18 UNL     1      22.027   3.937  51.385  1.00  0.00     0.143 C 
HETATM   26  C19 UNL     1      23.285   4.274  52.109  1.00  0.00     0.187 C 
HETATM   27  O3  UNL     1      24.372   3.480  51.826  1.00  0.00    -0.388 OA
HETATM   28  C20 UNL     1      24.546   3.475  50.424  1.00  0.00     0.187 C 
HETATM   29  C21 UNL     1      23.409   2.620  49.904  1.00  0.00     0.143 C 
ENDBRANCH  23  24
ENDBRANCH  22  23
ENDBRANCH  21  22
ENDBRANCH  10  21
BRANCH   1  30
HETATM   30  O1  UNL     1      18.579  -0.317  52.496  1.00  0.00    -0.353 OA
HETATM   31  C1  UNL     1      17.757  -1.270  53.129  1.00  0.00     0.210 C 
ENDBRANCH   1  30
TORSDOF 7
ENDMDL
MODEL 2
REMARK VINA RESULT:      -8.5      0.985      1.321
REMARK  7 active torsions:
REMARK  status: ('A' for Active; 'I' for Inactive)
REMARK    1  A    between atoms: O1_2  and  C2_3 
REMARK    2  A    between atoms: C6_9  and  N3_10 
REMARK    3  A    between atoms: N3_10  and  C7_11 
REMARK    4  A    between atoms: C15_21  and  O2_22 
REMARK    5  A    between atoms: O2_22  and  C16_23 
REMARK    6  A    between atoms: C16_23  and  C17_24 
REMARK    7  A    between atoms: C17_24  and  N4_25 
ROOT
HETATM    1  C2  UNL     1      20.006  -0.242  52.582  1.00  0.00     0.103 A 
HETATM    2  C3  UNL     1      20.354  -0.871  53.759  1.00  0.00     0.072 A 
HETATM    3  C4  UNL     1      21.673  -0.913  54.130  1.00  0.00     0.075 A 
HETATM    4  N1  UNL     1      22.055  -1.518  55.275  1.00  0.00    -0.241 NA
HETATM    5  C5  UNL     1      23.351  -1.549  55.624  1.00  0.00     0.236 A 
HETATM    6  N2  UNL     1      24.316  -0.982  54.852  1.00  0.00    -0.224 NA
HETATM    7  C6  UNL     1      23.993  -0.358  53.689  1.00  0.00     0.142 A 
HETATM    8  C13 UNL     1      22.659  -0.330  53.337  1.00  0.00     0.042 A 
HETATM    9  C14 UNL     1      22.311   0.308  52.145  1.00  0.00     0.057 A 
HETATM   10  C15 UNL     1      20.965   0.350  51.767  1.00  0.00     0.103 A 
ENDROOT
BRANCH   7  11
HETATM   11  N3  UNL     1      24.998   0.237  52.880  1.00  0.00    -0.340 N 
HETATM   12  H6  UNL     1      24.609   0.841  52.144  1.00  0.00     0.167 HD
BRANCH  11  13
HETATM   13  C7  UNL     1      26.386   0.006  53.085  1.00  0.00     0.035 A 
HETATM   14  C8  UNL     1      26.892  -1.235  52.760  1.00  0.00     0.032 A 
HETATM   15  C9  UNL     1      28.260  -1.438  52.973  1.00  0.00     0.046 A 
HETATM   16  C10 UNL     1      29.025  -0.403  53.489  1.00  0.00     0.138 A 
HETATM   17  F1  UNL     1      30.359  -0.568  53.706  1.00  0.00    -0.204 F 
HETATM   18  C11 UNL     1      28.490   0.832  53.805  1.00  0.00     0.074 A 
HETATM   19 CL1  UNL     1      29.435   2.147  54.456  1.00  0.00    -0.081 Cl
HETATM   20  C12 UNL     1      27.143   1.041  53.599  1.00  0.00     0.056 A 
ENDBRANCH  11  13
ENDBRANCH   7  11
BRANCH  10  21
HETATM   21  O2  UNL     1      20.460   0.940  50.625  1.00  0.00    -0.347 OA
BRANCH  21  22
HETATM   22  C16 UNL     1      21.185   1.376  49.517  1.00  0.00     0.195 C 
BRANCH  22  23
HETATM   23  C17 UNL     1      21.123   2.899  49.410  1.00  0.00     0.143 C 
BRANCH  23  24
HETATM   24  N4  UNL     1      22.066   3.584  50.202  1.00  0.00    -0.406 N 
HETATM   25  C18 UNL     1      21.613   4.114  51.433  1.00  0.00     0.143 C 
HETATM   26  C19 UNL     1      22.671   4.661  52.328  1.00  0.00     0.187 C 
HETATM   27  O3  UNL     1      23.920   4.099  52.193  1.00  0.00    -0.388 OA
HETATM   28  C20 UNL     1      24.280   4.175  50.829  1.00  0.00     0.187 C 
HETATM   29  C21 UNL     1      23.411   3.136  50.151  1.00  0.00     0.143 C 
ENDBRANCH  23  24
ENDBRANCH  22  23
ENDBRANCH  21  22
ENDBRANCH  10  21
BRANCH   1  30
HETATM   30  O1  UNL     1      18.668  -0.229  52.256  1.00  0.00    -0.353 OA
HETATM   31  C1  UNL     1      17.753  -1.049  52.944  1.00  0.00     0.210 C 
ENDBRANCH   1  30
TORSDOF 7
ENDMDL
MODEL 3
REMARK VINA RESULT:      -8.1      3.292      5.905
REMARK  7 active torsions:
REMARK  status: ('A' for Active; 'I' for Inactive)
REMARK    1  A    between atoms: O1_2  and  C2_3 
REMARK    2  A    between atoms: C6_9  and  N3_10 
REMARK    3  A    between atoms: N3_10  and  C7_11 
REMARK    4  A    between atoms: C15_21  and  O2_22 
REMARK    5  A    between atoms: O2_22  and  C16_23 
REMARK    6  A    between atoms: C16_23  and  C17_24 
REMARK    7  A    between atoms: C17_24  and  N4_25 
ROOT
HETATM    1  C2  UNL     1      22.182  -0.185  52.578  1.00  0.00     0.103 A 
HETATM    2  C3  UNL     1      21.356   0.182  51.536  1.00  0.00     0.072 A 
HETATM    3  C4  UNL     1      21.575   1.377  50.898  1.00  0.00     0.075 A 
HETATM    4  N1  UNL     1      20.789   1.772  49.874  1.00  0.00    -0.241 NA
HETATM    5  C5  UNL     1      21.018   2.944  49.259  1.00  0.00     0.236 A 
HETATM    6  N2  UNL     1      22.033   3.766  49.637  1.00  0.00    -0.224 NA
HETATM    7  C6  UNL     1      22.856   3.422  50.661  1.00  0.00     0.142 A 
HETATM    8  C13 UNL     1      22.615   2.217  51.287  1.00  0.00     0.042 A 
HETATM    9  C14 UNL     1      23.454   1.848  52.341  1.00  0.00     0.057 A 
HETATM   10  C15 UNL     1      23.230   0.630  52.992  1.00  0.00     0.103 A 
ENDROOT
BRANCH   7  11
HETATM   11  N3  UNL     1      23.919   4.278  51.059  1.00  0.00    -0.340 N 
HETATM   12  H6  UNL     1      23.745   4.730  51.967  1.00  0.00     0.167 HD
BRANCH  11  13
HETATM   13  C7  UNL     1      25.085   4.472  50.269  1.00  0.00     0.035 A 
HETATM   14  C8  UNL     1      25.911   3.390  50.057  1.00  0.00     0.032 A 
HETATM   15  C9  UNL     1      27.054   3.606  49.277  1.00  0.00     0.046 A 
HETATM   16  C10 UNL     1      27.292   4.874  48.766  1.00  0.00     0.138 A 
HETATM   17  F1  UNL     1      28.394   5.117  48.003  1.00  0.00    -0.204 F 
HETATM   18  C11 UNL     1      26.445   5.941  48.996  1.00  0.00     0.074 A 
HETATM   19 CL1  UNL     1      26.728   7.542  48.362  1.00  0.00    -0.081 Cl
HETATM   20  C12 UNL     1      25.318   5.737  49.763  1.00  0.00     0.056 A 
ENDBRANCH  11  13
ENDBRANCH   7  11
BRANCH  10  21
HETATM   21  O2  UNL     1      23.967   0.124  54.045  1.00  0.00    -0.347 OA
BRANCH  21  22
HETATM   22  C16 UNL     1      25.184  -0.550  53.968  1.00  0.00     0.195 C 
BRANCH  22  23
HETATM   23  C17 UNL     1      25.985  -0.061  52.763  1.00  0.00     0.143 C 
BRANCH  23  24
HETATM   24  N4  UNL     1      27.237   0.506  53.079  1.00  0.00    -0.406 N 
HETATM   25  C18 UNL     1      27.335   1.918  53.042  1.00  0.00     0.143 C 
HETATM   26  C19 UNL     1      28.608   2.488  53.564  1.00  0.00     0.187 C 
HETATM   27  O3  UNL     1      29.255   1.738  54.519  1.00  0.00    -0.388 OA
HETATM   28  C20 UNL     1      29.425   0.436  53.999  1.00  0.00     0.187 C 
HETATM   29  C21 UNL     1      28.037  -0.170  54.035  1.00  0.00     0.143 C 
ENDBRANCH  23  24
ENDBRANCH  22  23
ENDBRANCH  21  22
ENDBRANCH  10  21
BRANCH   1  30
HETATM   30  O1  UNL     1      21.919  -1.393  53.184  1.00  0.00    -0.353 OA
HETATM   31  C1  UNL     1      20.926  -1.497  54.178  1.00  0.00     0.210 C 
ENDBRANCH   1  30
TORSDOF 7
ENDMDL
MODEL 4
REMARK VINA RESULT:      -8.0      1.971      2.541
REMARK  7 active torsions:
REMARK  status: ('A' for Active; 'I' for Inactive)
REMARK    1  A    between atoms: O1_2  and  C2_3 
REMARK    2  A    between atoms: C6_9  and  N3_10 
REMARK    3  A    between atoms: N3_10  and  C7_11 
REMARK    4  A    between atoms: C15_21  and  O2_22 
REMARK    5  A    between atoms: O2_22  and  C16_23 
REMARK    6  A    between atoms: C16_23  and  C17_24 
REMARK    7  A    between atoms: C17_24  and  N4_25 
ROOT
HETATM    1  C2  UNL     1      20.450   2.109  52.503  1.00  0.00     0.103 A 
HETATM    2  C3  UNL     1      20.499   1.180  53.521  1.00  0.00     0.072 A 
HETATM    3  C4  UNL     1      21.666   0.496  53.747  1.00  0.00     0.075 A 
HETATM    4  N1  UNL     1      21.755  -0.420  54.734  1.00  0.00    -0.241 NA
HETATM    5  C5  UNL     1      22.907  -1.080  54.942  1.00  0.00     0.236 A 
HETATM    6  N2  UNL     1      24.010  -0.856  54.180  1.00  0.00    -0.224 NA
HETATM    7  C6  UNL     1      23.981   0.055  53.173  1.00  0.00     0.142 A 
HETATM    8  C13 UNL     1      22.795   0.729  52.965  1.00  0.00     0.042 A 
HETATM    9  C14 UNL     1      22.749   1.669  51.933  1.00  0.00     0.057 A 
HETATM   10  C15 UNL     1      21.558   2.366  51.704  1.00  0.00     0.103 A 
ENDROOT
BRANCH   7  11
HETATM   11  N3  UNL     1      25.132   0.293  52.374  1.00  0.00    -0.340 N 
HETATM   12  H6  UNL     1      24.904   0.720  51.466  1.00  0.00     0.167 HD
BRANCH  11  13
HETATM   13  C7  UNL     1      26.448  -0.032  52.807  1.00  0.00     0.035 A 
HETATM   14  C8  UNL     1      26.890  -1.324  52.621  1.00  0.00     0.032 A 
HETATM   15  C9  UNL     1      28.187  -1.620  53.056  1.00  0.00     0.046 A 
HETATM   16  C10 UNL     1      28.948  -0.618  53.641  1.00  0.00     0.138 A 
HETATM   17  F1  UNL     1      30.214  -0.873  54.075  1.00  0.00    -0.204 F 
HETATM   18  C11 UNL     1      28.477   0.669  53.815  1.00  0.00     0.074 A 
HETATM   19 CL1  UNL     1      29.418   1.943  54.549  1.00  0.00    -0.081 Cl
HETATM   20  C12 UNL     1      27.201   0.970  53.389  1.00  0.00     0.056 A 
ENDBRANCH  11  13
ENDBRANCH   7  11
BRANCH  10  21
HETATM   21  O2  UNL     1      21.352   3.323  50.729  1.00  0.00    -0.347 OA
BRANCH  21  22
HETATM   22  C16 UNL     1      22.269   3.755  49.773  1.00  0.00     0.195 C 
BRANCH  22  23
HETATM   23  C17 UNL     1      23.045   4.964  50.292  1.00  0.00     0.143 C 
BRANCH  23  24
HETATM   24  N4  UNL     1      24.434   4.916  50.060  1.00  0.00    -0.406 N 
HETATM   25  C18 UNL     1      25.113   3.736  50.445  1.00  0.00     0.143 C 
HETATM   26  C19 UNL     1      26.536   3.642  50.015  1.00  0.00     0.187 C 
HETATM   27  O3  UNL     1      26.863   4.328  48.867  1.00  0.00    -0.388 OA
HETATM   28  C20 UNL     1      26.440   5.665  49.032  1.00  0.00     0.187 C 
HETATM   29  C21 UNL     1      24.930   5.602  48.923  1.00  0.00     0.143 C 
ENDBRANCH  23  24
ENDBRANCH  22  23
ENDBRANCH  21  22
ENDBRANCH  10  21
BRANCH   1  30
HETATM   30  O1  UNL     1      19.254   2.767  52.319  1.00  0.00    -0.353 OA
HETATM   31  C1  UNL     1      18.235   2.198  51.530  1.00  0.00     0.210 C 
ENDBRANCH   1  30
TORSDOF 7
ENDMDL
MODEL 5
REMARK VINA RESULT:      -7.9      3.584      6.428
REMARK  7 active torsions:
REMARK  status: ('A' for Active; 'I' for Inactive)
REMARK    1  A    between atoms: O1_2  and  C2_3 
REMARK    2  A    between atoms: C6_9  and  N3_10 
REMARK    3  A    between atoms: N3_10  and  C7_11 
REMARK    4  A    between atoms: C15_21  and  O2_22 
REMARK    5  A    between atoms: O2_22  and  C16_23 
REMARK    6  A    between atoms: C16_23  and  C17_24 
REMARK    7  A    between atoms: C17_24  and  N4_25 
ROOT
HETATM    1  C2  UNL     1      22.074   0.356  52.243  1.00  0.00     0.103 A 
HETATM    2  C3  UNL     1      21.337   0.746  51.145  1.00  0.00     0.072 A 
HETATM    3  C4  UNL     1      21.896   1.609  50.237  1.00  0.00     0.075 A 
HETATM    4  N1  UNL     1      21.208   2.015  49.149  1.00  0.00    -0.241 NA
HETATM    5  C5  UNL     1      21.770   2.859  48.269  1.00  0.00     0.236 A 
HETATM    6  N2  UNL     1      23.034   3.332  48.436  1.00  0.00    -0.224 NA
HETATM    7  C6  UNL     1      23.775   2.959  49.511  1.00  0.00     0.142 A 
HETATM    8  C13 UNL     1      23.191   2.091  50.411  1.00  0.00     0.042 A 
HETATM    9  C14 UNL     1      23.941   1.698  51.521  1.00  0.00     0.057 A 
HETATM   10  C15 UNL     1      23.370   0.818  52.447  1.00  0.00     0.103 A 
ENDROOT
BRANCH   7  11
HETATM   11  N3  UNL     1      25.097   3.450  49.689  1.00  0.00    -0.340 N 
HETATM   12  H6  UNL     1      25.792   2.697  49.776  1.00  0.00     0.167 HD
BRANCH  11  13
HETATM   13  C7  UNL     1      25.400   4.839  49.738  1.00  0.00     0.035 A 
HETATM   14  C8  UNL     1      24.687   5.627  50.616  1.00  0.00     0.032 A 
HETATM   15  C9  UNL     1      25.002   6.991  50.644  1.00  0.00     0.046 A 
HETATM   16  C10 UNL     1      25.998   7.471  49.807  1.00  0.00     0.138 A 
HETATM   17  F1  UNL     1      26.330   8.792  49.811  1.00  0.00    -0.204 F 
HETATM   18  C11 UNL     1      26.697   6.656  48.937  1.00  0.00     0.074 A 
HETATM   19 CL1  UNL     1      27.953   7.242  47.875  1.00  0.00    -0.081 Cl
HETATM   20  C12 UNL     1      26.393   5.312  48.902  1.00  0.00     0.056 A 
ENDBRANCH  11  13
ENDBRANCH   7  11
BRANCH  10  21
HETATM   21  O2  UNL     1      23.977   0.335  53.590  1.00  0.00    -0.347 OA
BRANCH  21  22
HETATM   22  C16 UNL     1      25.094  -0.494  53.658  1.00  0.00     0.195 C 
BRANCH  22  23
HETATM   23  C17 UNL     1      25.972  -0.105  54.846  1.00  0.00     0.143 C 
BRANCH  23  24
HETATM   24  N4  UNL     1      27.168   0.557  54.503  1.00  0.00    -0.406 N 
HETATM   25  C18 UNL     1      28.339  -0.232  54.406  1.00  0.00     0.143 C 
HETATM   26  C19 UNL     1      29.538   0.460  53.858  1.00  0.00     0.187 C 
HETATM   27  O3  UNL     1      29.288   1.500  52.993  1.00  0.00    -0.388 OA
HETATM   28  C20 UNL     1      28.403   2.392  53.638  1.00  0.00     0.187 C 
HETATM   29  C21 UNL     1      27.070   1.672  53.633  1.00  0.00     0.143 C 
ENDBRANCH  23  24
ENDBRANCH  22  23
ENDBRANCH  21  22
ENDBRANCH  10  21
BRANCH   1  30
HETATM   30  O1  UNL     1      21.466  -0.511  53.124  1.00  0.00    -0.353 OA
HETATM   31  C1  UNL     1      20.699  -0.022  54.199  1.00  0.00     0.210 C 
ENDBRANCH   1  30
TORSDOF 7
ENDMDL
MODEL 6
REMARK VINA RESULT:      -7.7      5.451      8.591
REMARK  7 active torsions:
REMARK  status: ('A' for Active; 'I' for Inactive)
REMARK    1  A    between atoms: O1_2  and  C2_3 
REMARK    2  A    between atoms: C6_9  and  N3_10 
REMARK    3  A    between atoms: N3_10  and  C7_11 
REMARK    4  A    between atoms: C15_21  and  O2_22 
REMARK    5  A    between atoms: O2_22  and  C16_23 
REMARK    6  A    between atoms: C16_23  and  C17_24 
REMARK    7  A    between atoms: C17_24  and  N4_25 
ROOT
HETATM    1  C2  UNL     1      27.006   6.671  48.531  1.00  0.00     0.103 A 
HETATM    2  C3  UNL     1      25.785   6.756  49.167  1.00  0.00     0.072 A 
HETATM    3  C4  UNL     1      25.301   5.660  49.835  1.00  0.00     0.075 A 
HETATM    4  N1  UNL     1      24.111   5.703  50.471  1.00  0.00    -0.241 NA
HETATM    5  C5  UNL     1      23.652   4.621  51.121  1.00  0.00     0.236 A 
HETATM    6  N2  UNL     1      24.356   3.458  51.164  1.00  0.00    -0.224 NA
HETATM    7  C6  UNL     1      25.559   3.355  50.544  1.00  0.00     0.142 A 
HETATM    8  C13 UNL     1      26.024   4.471  49.878  1.00  0.00     0.042 A 
HETATM    9  C14 UNL     1      27.261   4.381  49.235  1.00  0.00     0.057 A 
HETATM   10  C15 UNL     1      27.754   5.499  48.554  1.00  0.00     0.103 A 
ENDROOT
BRANCH   7  11
HETATM   11  N3  UNL     1      26.299   2.142  50.587  1.00  0.00    -0.340 N 
HETATM   12  H6  UNL     1      26.512   1.773  49.650  1.00  0.00     0.167 HD
BRANCH  11  13
HETATM   13  C7  UNL     1      26.689   1.524  51.807  1.00  0.00     0.035 A 
HETATM   14  C8  UNL     1      25.992   0.410  52.221  1.00  0.00     0.032 A 
HETATM   15  C9  UNL     1      26.394  -0.179  53.426  1.00  0.00     0.046 A 
HETATM   16  C10 UNL     1      27.453   0.376  54.128  1.00  0.00     0.138 A 
HETATM   17  F1  UNL     1      27.870  -0.173  55.303  1.00  0.00    -0.204 F 
HETATM   18  C11 UNL     1      28.134   1.495  53.688  1.00  0.00     0.074 A 
HETATM   19 CL1  UNL     1      29.469   2.209  54.557  1.00  0.00    -0.081 Cl
HETATM   20  C12 UNL     1      27.745   2.082  52.503  1.00  0.00     0.056 A 
ENDBRANCH  11  13
ENDBRANCH   7  11
BRANCH  10  21
HETATM   21  O2  UNL     1      28.953   5.572  47.873  1.00  0.00    -0.347 OA
BRANCH  21  22
HETATM   22  C16 UNL     1      30.227   5.668  48.429  1.00  0.00     0.195 C 
BRANCH  22  23
HETATM   23  C17 UNL     1      31.290   5.583  47.336  1.00  0.00     0.143 C 
BRANCH  23  24
HETATM   24  N4  UNL     1      32.500   4.979  47.737  1.00  0.00    -0.406 N 
HETATM   25  C18 UNL     1      32.630   3.587  47.521  1.00  0.00     0.143 C 
HETATM   26  C19 UNL     1      33.984   3.020  47.778  1.00  0.00     0.187 C 
HETATM   27  O3  UNL     1      35.040   3.885  47.606  1.00  0.00    -0.388 OA
HETATM   28  C20 UNL     1      34.784   5.034  48.386  1.00  0.00     0.187 C 
HETATM   29  C21 UNL     1      33.681   5.759  47.642  1.00  0.00     0.143 C 
ENDBRANCH  23  24
ENDBRANCH  22  23
ENDBRANCH  21  22
ENDBRANCH  10  21
BRANCH   1  30
HETATM   30  O1  UNL     1      27.445   7.799  47.875  1.00  0.00    -0.353 OA
HETATM   31  C1  UNL     1      27.693   8.992  48.584  1.00  0.00     0.210 C 
ENDBRANCH   1  30
TORSDOF 7
ENDMDL
MODEL 7
REMARK VINA RESULT:      -7.7      1.932      4.791
REMARK  7 active torsions:
REMARK  status: ('A' for Active; 'I' for Inactive)
REMARK    1  A    between atoms: O1_2  and  C2_3 
REMARK    2  A    between atoms: C6_9  and  N3_10 
REMARK    3  A    between atoms: N3_10  and  C7_11 
REMARK    4  A    between atoms: C15_21  and  O2_22 
REMARK    5  A    between atoms: O2_22  and  C16_23 
REMARK    6  A    between atoms: C16_23  and  C17_24 
REMARK    7  A    between atoms: C17_24  and  N4_25 
ROOT
HETATM    1  C2  UNL     1      22.217   2.641  49.193  1.00  0.00     0.103 A 
HETATM    2  C3  UNL     1      23.321   3.341  48.753  1.00  0.00     0.072 A 
HETATM    3  C4  UNL     1      24.486   3.273  49.473  1.00  0.00     0.075 A 
HETATM    4  N1  UNL     1      25.589   3.943  49.077  1.00  0.00    -0.241 NA
HETATM    5  C5  UNL     1      26.722   3.864  49.793  1.00  0.00     0.236 A 
HETATM    6  N2  UNL     1      26.804   3.119  50.928  1.00  0.00    -0.224 NA
HETATM    7  C6  UNL     1      25.727   2.423  51.376  1.00  0.00     0.142 A 
HETATM    8  C13 UNL     1      24.567   2.509  50.635  1.00  0.00     0.042 A 
HETATM    9  C14 UNL     1      23.451   1.797  51.082  1.00  0.00     0.057 A 
HETATM   10  C15 UNL     1      22.262   1.868  50.347  1.00  0.00     0.103 A 
ENDROOT
BRANCH   7  11
HETATM   11  N3  UNL     1      25.808   1.642  52.561  1.00  0.00    -0.340 N 
HETATM   12  H6  UNL     1      24.924   1.626  53.087  1.00  0.00     0.167 HD
BRANCH  11  13
HETATM   13  C7  UNL     1      26.995   0.966  52.955  1.00  0.00     0.035 A 
HETATM   14  C8  UNL     1      28.007   1.709  53.524  1.00  0.00     0.032 A 
HETATM   15  C9  UNL     1      29.166   1.021  53.901  1.00  0.00     0.046 A 
HETATM   16  C10 UNL     1      29.237  -0.348  53.690  1.00  0.00     0.138 A 
HETATM   17  F1  UNL     1      30.350  -1.048  54.048  1.00  0.00    -0.204 F 
HETATM   18  C11 UNL     1      28.205  -1.068  53.118  1.00  0.00     0.074 A 
HETATM   19 CL1  UNL     1      28.276  -2.790  52.844  1.00  0.00    -0.081 Cl
HETATM   20  C12 UNL     1      27.061  -0.398  52.742  1.00  0.00     0.056 A 
ENDBRANCH  11  13
ENDBRANCH   7  11
BRANCH  10  21
HETATM   21  O2  UNL     1      21.078   1.227  50.655  1.00  0.00    -0.347 OA
BRANCH  21  22
HETATM   22  C16 UNL     1      20.076   1.685  51.507  1.00  0.00     0.195 C 
BRANCH  22  23
HETATM   23  C17 UNL     1      20.620   1.852  52.924  1.00  0.00     0.143 C 
BRANCH  23  24
HETATM   24  N4  UNL     1      20.778   0.648  53.641  1.00  0.00    -0.406 N 
HETATM   25  C18 UNL     1      19.811  -0.362  53.428  1.00  0.00     0.143 C 
HETATM   26  C19 UNL     1      20.112  -1.682  54.049  1.00  0.00     0.187 C 
HETATM   27  O3  UNL     1      21.445  -1.975  54.221  1.00  0.00    -0.388 OA
HETATM   28  C20 UNL     1      22.032  -0.903  54.930  1.00  0.00     0.187 C 
HETATM   29  C21 UNL     1      22.102   0.224  53.920  1.00  0.00     0.143 C 
ENDBRANCH  23  24
ENDBRANCH  22  23
ENDBRANCH  21  22
ENDBRANCH  10  21
BRANCH   1  30
HETATM   30  O1  UNL     1      21.073   2.744  48.433  1.00  0.00    -0.353 OA
HETATM   31  C1  UNL     1      20.273   3.902  48.493  1.00  0.00     0.210 C 
ENDBRANCH   1  30
TORSDOF 7
ENDMDL
MODEL 8
REMARK VINA RESULT:      -7.6      5.917      9.369
REMARK  7 active torsions:
REMARK  status: ('A' for Active; 'I' for Inactive)
REMARK    1  A    between atoms: O1_2  and  C2_3 
REMARK    2  A    between atoms: C6_9  and  N3_10 
REMARK    3  A    between atoms: N3_10  and  C7_11 
REMARK    4  A    between atoms: C15_21  and  O2_22 
REMARK    5  A    between atoms: O2_22  and  C16_23 
REMARK    6  A    between atoms: C16_23  and  C17_24 
REMARK    7  A    between atoms: C17_24  and  N4_25 
ROOT
HETATM    1  C2  UNL     1      27.846   7.835  48.717  1.00  0.00     0.103 A 
HETATM    2  C3  UNL     1      26.790   8.297  49.474  1.00  0.00     0.072 A 
HETATM    3  C4  UNL     1      25.827   7.413  49.888  1.00  0.00     0.075 A 
HETATM    4  N1  UNL     1      24.778   7.825  50.632  1.00  0.00    -0.241 NA
HETATM    5  C5  UNL     1      23.844   6.946  51.030  1.00  0.00     0.236 A 
HETATM    6  N2  UNL     1      23.915   5.627  50.705  1.00  0.00    -0.224 NA
HETATM    7  C6  UNL     1      24.947   5.154  49.959  1.00  0.00     0.142 A 
HETATM    8  C13 UNL     1      25.903   6.063  49.554  1.00  0.00     0.042 A 
HETATM    9  C14 UNL     1      26.971   5.592  48.787  1.00  0.00     0.057 A 
HETATM   10  C15 UNL     1      27.953   6.495  48.365  1.00  0.00     0.103 A 
ENDROOT
BRANCH   7  11
HETATM   11  N3  UNL     1      25.026   3.777  49.618  1.00  0.00    -0.340 N 
HETATM   12  H6  UNL     1      24.915   3.611  48.609  1.00  0.00     0.167 HD
BRANCH  11  13
HETATM   13  C7  UNL     1      25.236   2.757  50.587  1.00  0.00     0.035 A 
HETATM   14  C8  UNL     1      26.535   2.433  50.916  1.00  0.00     0.032 A 
HETATM   15  C9  UNL     1      26.716   1.426  51.870  1.00  0.00     0.046 A 
HETATM   16  C10 UNL     1      25.602   0.816  52.428  1.00  0.00     0.138 A 
HETATM   17  F1  UNL     1      25.743  -0.167  53.360  1.00  0.00    -0.204 F 
HETATM   18  C11 UNL     1      24.310   1.162  52.078  1.00  0.00     0.074 A 
HETATM   19 CL1  UNL     1      22.896   0.406  52.767  1.00  0.00    -0.081 Cl
HETATM   20  C12 UNL     1      24.123   2.153  51.138  1.00  0.00     0.056 A 
ENDBRANCH  11  13
ENDBRANCH   7  11
BRANCH  10  21
HETATM   21  O2  UNL     1      29.065   6.188  47.606  1.00  0.00    -0.347 OA
BRANCH  21  22
HETATM   22  C16 UNL     1      30.068   5.274  47.923  1.00  0.00     0.195 C 
BRANCH  22  23
HETATM   23  C17 UNL     1      31.257   5.991  48.560  1.00  0.00     0.143 C 
BRANCH  23  24
HETATM   24  N4  UNL     1      32.519   5.497  48.173  1.00  0.00    -0.406 N 
HETATM   25  C18 UNL     1      33.644   5.960  48.897  1.00  0.00     0.143 C 
HETATM   26  C19 UNL     1      34.932   5.278  48.590  1.00  0.00     0.187 C 
HETATM   27  O3  UNL     1      34.833   3.977  48.152  1.00  0.00    -0.388 OA
HETATM   28  C20 UNL     1      33.944   3.960  47.055  1.00  0.00     0.187 C 
HETATM   29  C21 UNL     1      32.577   4.172  47.673  1.00  0.00     0.143 C 
ENDBRANCH  23  24
ENDBRANCH  22  23
ENDBRANCH  21  22
ENDBRANCH  10  21
BRANCH   1  30
HETATM   30  O1  UNL     1      28.785   8.765  48.327  1.00  0.00    -0.353 OA
HETATM   31  C1  UNL     1      29.656   9.345  49.270  1.00  0.00     0.210 C 
ENDBRANCH   1  30
TORSDOF 7
ENDMDL
MODEL 9
REMARK VINA RESULT:      -7.5      2.999      5.571
REMARK  7 active torsions:
REMARK  status: ('A' for Active; 'I' for Inactive)
REMARK    1  A    between atoms: O1_2  and  C2_3 
REMARK    2  A    between atoms: C6_9  and  N3_10 
REMARK    3  A    between atoms: N3_10  and  C7_11 
REMARK    4  A    between atoms: C15_21  and  O2_22 
REMARK    5  A    between atoms: O2_22  and  C16_23 
REMARK    6  A    between atoms: C16_23  and  C17_24 
REMARK    7  A    between atoms: C17_24  and  N4_25 
ROOT
HETATM    1  C2  UNL     1      19.594  -0.266  53.006  1.00  0.00     0.103 A 
HETATM    2  C3  UNL     1      18.933   0.160  51.874  1.00  0.00     0.072 A 
HETATM    3  C4  UNL     1      19.342   1.313  51.254  1.00  0.00     0.075 A 
HETATM    4  N1  UNL     1      18.721   1.764  50.144  1.00  0.00    -0.241 NA
HETATM    5  C5  UNL     1      19.135   2.895  49.549  1.00  0.00     0.236 A 
HETATM    6  N2  UNL     1      20.179   3.619  50.033  1.00  0.00    -0.224 NA
HETATM    7  C6  UNL     1      20.843   3.216  51.147  1.00  0.00     0.142 A 
HETATM    8  C13 UNL     1      20.411   2.053  51.753  1.00  0.00     0.042 A 
HETATM    9  C14 UNL     1      21.085   1.624  52.899  1.00  0.00     0.057 A 
HETATM   10  C15 UNL     1      20.666   0.448  53.530  1.00  0.00     0.103 A 
ENDROOT
BRANCH   7  11
HETATM   11  N3  UNL     1      21.935   3.969  51.657  1.00  0.00    -0.340 N 
HETATM   12  H6  UNL     1      21.753   4.345  52.597  1.00  0.00     0.167 HD
BRANCH  11  13
HETATM   13  C7  UNL     1      23.138   4.169  50.924  1.00  0.00     0.035 A 
HETATM   14  C8  UNL     1      23.640   3.108  50.202  1.00  0.00     0.032 A 
HETATM   15  C9  UNL     1      24.826   3.329  49.491  1.00  0.00     0.046 A 
HETATM   16  C10 UNL     1      25.423   4.579  49.547  1.00  0.00     0.138 A 
HETATM   17  F1  UNL     1      26.577   4.827  48.866  1.00  0.00    -0.204 F 
HETATM   18  C11 UNL     1      24.896   5.625  50.280  1.00  0.00     0.074 A 
HETATM   19 CL1  UNL     1      25.633   7.205  50.363  1.00  0.00    -0.081 Cl
HETATM   20  C12 UNL     1      23.729   5.416  50.984  1.00  0.00     0.056 A 
ENDBRANCH  11  13
ENDBRANCH   7  11
BRANCH  10  21
HETATM   21  O2  UNL     1      21.224  -0.107  54.665  1.00  0.00    -0.347 OA
BRANCH  21  22
HETATM   22  C16 UNL     1      22.368  -0.899  54.734  1.00  0.00     0.195 C 
BRANCH  22  23
HETATM   23  C17 UNL     1      23.182  -0.768  53.448  1.00  0.00     0.143 C 
BRANCH  23  24
HETATM   24  N4  UNL     1      24.447  -0.168  53.609  1.00  0.00    -0.406 N 
HETATM   25  C18 UNL     1      24.579   1.181  53.202  1.00  0.00     0.143 C 
HETATM   26  C19 UNL     1      25.866   1.839  53.562  1.00  0.00     0.187 C 
HETATM   27  O3  UNL     1      26.496   1.353  54.684  1.00  0.00    -0.388 OA
HETATM   28  C20 UNL     1      26.634  -0.044  54.527  1.00  0.00     0.187 C 
HETATM   29  C21 UNL     1      25.232  -0.586  54.714  1.00  0.00     0.143 C 
ENDBRANCH  23  24
ENDBRANCH  22  23
ENDBRANCH  21  22
ENDBRANCH  10  21
BRANCH   1  30
HETATM   30  O1  UNL     1      19.143  -1.430  53.589  1.00  0.00    -0.353 OA
HETATM   31  C1  UNL     1      17.815  -1.859  53.401  1.00  0.00     0.210 C 
ENDBRANCH   1  30
TORSDOF 7
ENDMDL
