MODEL 1
REMARK VINA RESULT:      -6.6      0.000      0.000
REMARK  1 active torsions:
REMARK  status: ('A' for Active; 'I' for Inactive)
REMARK    1  A    between atoms: C10_16  and  C11_17 
ROOT
HETATM    1  C1  UNL     1      25.580   1.672  52.937  1.00  0.00     0.074 C 
HETATM    2  C2  UNL     1      25.617   2.426  51.647  1.00  0.00     0.069 A 
HETATM    3  N1  UNL     1      26.827   2.559  51.159  1.00  0.00    -0.212 NA
HETATM    4  S1  UNL     1      26.507   3.526  49.633  1.00  0.00     0.032 SA
HETATM    5  C3  UNL     1      24.713   3.524  50.035  1.00  0.00     0.123 A 
HETATM    6  C4  UNL     1      24.437   2.832  51.236  1.00  0.00     0.097 A 
HETATM    7  N2  UNL     1      23.049   2.751  51.655  1.00  0.00    -0.318 N 
HETATM    8  C5  UNL     1      22.356   3.853  52.371  1.00  0.00     0.279 C 
HETATM    9  N3  UNL     1      21.573   4.612  51.367  1.00  0.00    -0.278 NA
HETATM   10  C6  UNL     1      21.607   4.732  50.051  1.00  0.00     0.162 C 
HETATM   11  C7  UNL     1      22.571   4.016  49.154  1.00  0.00     0.141 C 
HETATM   12  N4  UNL     1      22.368   2.882  48.481  1.00  0.00    -0.262 NA
HETATM   13  C8  UNL     1      21.046   2.265  48.657  1.00  0.00     0.220 C 
HETATM   14  S2  UNL     1      21.055   1.245  50.211  1.00  0.00    -0.153 SA
HETATM   15  C9  UNL     1      19.510   0.389  50.675  1.00  0.00     0.087 C 
HETATM   16  C10 UNL     1      22.068   1.671  51.455  1.00  0.00     0.078 C 
HETATM   17  N6  UNL     1      23.982   4.302  48.925  1.00  0.00    -0.331 N 
HETATM   18  H14 UNL     1      24.648   4.794  48.344  1.00  0.00     0.168 HD
ENDROOT
BRANCH  16  19
HETATM   19  C11 UNL     1      22.014   0.796  52.645  1.00  0.00     0.027 C 
HETATM   20  C12 UNL     1      21.429   0.736  53.833  1.00  0.00     0.008 C 
HETATM   21  C13 UNL     1      20.737  -0.384  53.983  1.00  0.00     0.129 C 
HETATM   22  N5  UNL     1      21.881  -1.190  53.684  1.00  0.00    -0.271 NA
HETATM   23  C14 UNL     1      22.668  -0.513  52.885  1.00  0.00     0.131 C 
ENDBRANCH  16  19
TORSDOF 1
ENDMDL
MODEL 2
REMARK VINA RESULT:      -6.5      2.233      5.051
REMARK  1 active torsions:
REMARK  status: ('A' for Active; 'I' for Inactive)
REMARK    1  A    between atoms: C10_16  and  C11_17 
ROOT
HETATM    1  C1  UNL     1      24.713   0.982  52.254  1.00  0.00     0.074 C 
HETATM    2  C2  UNL     1      23.374   0.540  52.751  1.00  0.00     0.069 A 
HETATM    3  N1  UNL     1      23.442  -0.218  53.819  1.00  0.00    -0.212 NA
HETATM    4  S1  UNL     1      21.671  -0.584  54.126  1.00  0.00     0.032 SA
HETATM    5  C3  UNL     1      21.229   0.429  52.658  1.00  0.00     0.123 A 
HETATM    6  C4  UNL     1      22.369   0.976  52.026  1.00  0.00     0.097 A 
HETATM    7  N2  UNL     1      22.149   1.808  50.856  1.00  0.00    -0.318 N 
HETATM    8  C5  UNL     1      21.919   1.249  49.499  1.00  0.00     0.279 C 
HETATM    9  N3  UNL     1      20.456   1.251  49.260  1.00  0.00    -0.278 NA
HETATM   10  C6  UNL     1      19.383   1.317  50.029  1.00  0.00     0.162 C 
HETATM   11  C7  UNL     1      19.411   1.434  51.523  1.00  0.00     0.141 C 
HETATM   12  N4  UNL     1      19.310   2.546  52.254  1.00  0.00    -0.262 NA
HETATM   13  C8  UNL     1      19.170   3.797  51.495  1.00  0.00     0.220 C 
HETATM   14  S2  UNL     1      20.855   4.386  50.980  1.00  0.00    -0.153 SA
HETATM   15  C9  UNL     1      20.956   5.918  49.993  1.00  0.00     0.087 C 
HETATM   16  C10 UNL     1      22.067   3.275  50.748  1.00  0.00     0.078 C 
HETATM   17  N6  UNL     1      19.697   0.400  52.510  1.00  0.00    -0.331 N 
HETATM   18  H14 UNL     1      19.299  -0.306  53.115  1.00  0.00     0.168 HD
ENDROOT
BRANCH  16  19
HETATM   19  C11 UNL     1      23.375   3.836  50.349  1.00  0.00     0.027 C 
HETATM   20  C12 UNL     1      24.172   3.897  49.292  1.00  0.00     0.008 C 
HETATM   21  C13 UNL     1      24.446   5.149  48.955  1.00  0.00     0.129 C 
HETATM   22  N5  UNL     1      24.937   5.447  50.266  1.00  0.00    -0.271 NA
HETATM   23  C14 UNL     1      24.317   4.677  51.126  1.00  0.00     0.131 C 
ENDBRANCH  16  19
TORSDOF 1
ENDMDL
MODEL 3
REMARK VINA RESULT:      -6.4      2.226      4.987
REMARK  1 active torsions:
REMARK  status: ('A' for Active; 'I' for Inactive)
REMARK    1  A    between atoms: C10_16  and  C11_17 
ROOT
HETATM    1  C1  UNL     1      23.126  -0.473  53.562  1.00  0.00     0.074 C 
HETATM    2  C2  UNL     1      21.643  -0.525  53.381  1.00  0.00     0.069 A 
HETATM    3  N1  UNL     1      21.055  -1.395  54.167  1.00  0.00    -0.212 NA
HETATM    4  S1  UNL     1      19.298  -1.214  53.671  1.00  0.00     0.032 SA
HETATM    5  C3  UNL     1      19.797   0.065  52.450  1.00  0.00     0.123 A 
HETATM    6  C4  UNL     1      21.192   0.297  52.460  1.00  0.00     0.097 A 
HETATM    7  N2  UNL     1      21.708   1.298  51.544  1.00  0.00    -0.318 N 
HETATM    8  C5  UNL     1      21.973   1.018  50.110  1.00  0.00     0.279 C 
HETATM    9  N3  UNL     1      20.810   1.517  49.338  1.00  0.00    -0.278 NA
HETATM   10  C6  UNL     1      19.558   1.822  49.628  1.00  0.00     0.162 C 
HETATM   11  C7  UNL     1      18.953   1.733  50.996  1.00  0.00     0.141 C 
HETATM   12  N4  UNL     1      18.806   2.716  51.886  1.00  0.00    -0.262 NA
HETATM   13  C8  UNL     1      19.310   4.032  51.471  1.00  0.00     0.220 C 
HETATM   14  S2  UNL     1      21.136   4.115  51.805  1.00  0.00    -0.153 SA
HETATM   15  C9  UNL     1      22.015   5.649  51.349  1.00  0.00     0.087 C 
HETATM   16  C10 UNL     1      22.029   2.716  51.783  1.00  0.00     0.078 C 
HETATM   17  N6  UNL     1      18.526   0.545  51.725  1.00  0.00    -0.331 N 
HETATM   18  H14 UNL     1      17.750  -0.069  51.934  1.00  0.00     0.168 HD
ENDROOT
BRANCH  16  19
HETATM   19  C11 UNL     1      23.470   2.877  52.070  1.00  0.00     0.027 C 
HETATM   20  C12 UNL     1      24.291   2.998  53.103  1.00  0.00     0.008 C 
HETATM   21  C13 UNL     1      25.226   2.058  53.100  1.00  0.00     0.129 C 
HETATM   22  N5  UNL     1      25.648   2.411  51.779  1.00  0.00    -0.271 NA
HETATM   23  C14 UNL     1      24.620   2.906  51.134  1.00  0.00     0.131 C 
ENDBRANCH  16  19
TORSDOF 1
ENDMDL
MODEL 4
REMARK VINA RESULT:      -6.4      2.025      2.934
REMARK  1 active torsions:
REMARK  status: ('A' for Active; 'I' for Inactive)
REMARK    1  A    between atoms: C10_16  and  C11_17 
ROOT
HETATM    1  C1  UNL     1      23.308   0.616  53.064  1.00  0.00     0.074 C 
HETATM    2  C2  UNL     1      24.503   1.240  52.418  1.00  0.00     0.069 A 
HETATM    3  N1  UNL     1      25.579   0.494  52.489  1.00  0.00    -0.212 NA
HETATM    4  S1  UNL     1      26.818   1.551  51.644  1.00  0.00     0.032 SA
HETATM    5  C3  UNL     1      25.520   2.824  51.379  1.00  0.00     0.123 A 
HETATM    6  C4  UNL     1      24.270   2.428  51.907  1.00  0.00     0.097 A 
HETATM    7  N2  UNL     1      23.157   3.348  51.749  1.00  0.00    -0.318 N 
HETATM    8  C5  UNL     1      22.937   4.509  52.648  1.00  0.00     0.279 C 
HETATM    9  N3  UNL     1      23.481   5.708  51.967  1.00  0.00    -0.278 NA
HETATM   10  C6  UNL     1      24.339   5.915  50.983  1.00  0.00     0.162 C 
HETATM   11  C7  UNL     1      25.039   4.831  50.219  1.00  0.00     0.141 C 
HETATM   12  N4  UNL     1      24.685   4.303  49.046  1.00  0.00    -0.262 NA
HETATM   13  C8  UNL     1      23.458   4.846  48.447  1.00  0.00     0.220 C 
HETATM   14  S2  UNL     1      21.989   3.980  49.187  1.00  0.00    -0.153 SA
HETATM   15  C9  UNL     1      20.329   4.493  48.627  1.00  0.00     0.087 C 
HETATM   16  C10 UNL     1      22.096   3.373  50.728  1.00  0.00     0.078 C 
HETATM   17  N6  UNL     1      26.167   4.009  50.639  1.00  0.00    -0.331 N 
HETATM   18  H14 UNL     1      27.174   3.914  50.637  1.00  0.00     0.168 HD
ENDROOT
BRANCH  16  19
HETATM   19  C11 UNL     1      20.883   2.693  51.229  1.00  0.00     0.027 C 
HETATM   20  C12 UNL     1      19.904   2.878  52.102  1.00  0.00     0.008 C 
HETATM   21  C13 UNL     1      18.713   2.821  51.525  1.00  0.00     0.129 C 
HETATM   22  N5  UNL     1      18.981   1.524  50.985  1.00  0.00    -0.271 NA
HETATM   23  C14 UNL     1      20.273   1.412  50.796  1.00  0.00     0.131 C 
ENDBRANCH  16  19
TORSDOF 1
ENDMDL
MODEL 5
REMARK VINA RESULT:      -6.2      2.107      5.227
REMARK  1 active torsions:
REMARK  status: ('A' for Active; 'I' for Inactive)
REMARK    1  A    between atoms: C10_16  and  C11_17 
ROOT
HETATM    1  C1  UNL     1      26.539   4.191  49.357  1.00  0.00     0.074 C 
HETATM    2  C2  UNL     1      26.069   3.225  50.397  1.00  0.00     0.069 A 
HETATM    3  N1  UNL     1      27.034   2.784  51.168  1.00  0.00    -0.212 NA
HETATM    4  S1  UNL     1      26.126   1.637  52.276  1.00  0.00     0.032 SA
HETATM    5  C3  UNL     1      24.570   2.044  51.387  1.00  0.00     0.123 A 
HETATM    6  C4  UNL     1      24.779   2.979  50.347  1.00  0.00     0.097 A 
HETATM    7  N2  UNL     1      23.619   3.390  49.577  1.00  0.00    -0.318 N 
HETATM    8  C5  UNL     1      23.064   2.582  48.461  1.00  0.00     0.279 C 
HETATM    9  N3  UNL     1      21.914   1.815  48.997  1.00  0.00    -0.278 NA
HETATM   10  C6  UNL     1      21.510   1.458  50.204  1.00  0.00     0.162 C 
HETATM   11  C7  UNL     1      22.216   1.811  51.478  1.00  0.00     0.141 C 
HETATM   12  N4  UNL     1      21.947   2.824  52.304  1.00  0.00    -0.262 NA
HETATM   13  C8  UNL     1      20.837   3.698  51.900  1.00  0.00     0.220 C 
HETATM   14  S2  UNL     1      21.467   4.959  50.689  1.00  0.00    -0.153 SA
HETATM   15  C9  UNL     1      20.269   6.156  50.008  1.00  0.00     0.087 C 
HETATM   16  C10 UNL     1      22.765   4.581  49.727  1.00  0.00     0.078 C 
HETATM   17  N6  UNL     1      23.433   1.231  52.032  1.00  0.00    -0.331 N 
HETATM   18  H14 UNL     1      23.813   0.528  52.652  1.00  0.00     0.168 HD
ENDROOT
BRANCH  16  19
HETATM   19  C11 UNL     1      23.203   5.648  48.802  1.00  0.00     0.027 C 
HETATM   20  C12 UNL     1      23.095   5.991  47.527  1.00  0.00     0.008 C 
HETATM   21  C13 UNL     1      22.575   7.202  47.386  1.00  0.00     0.129 C 
HETATM   22  N5  UNL     1      23.578   7.785  48.223  1.00  0.00    -0.271 NA
HETATM   23  C14 UNL     1      23.978   6.881  49.083  1.00  0.00     0.131 C 
ENDBRANCH  16  19
TORSDOF 1
ENDMDL
MODEL 6
REMARK VINA RESULT:      -6.1      9.509     12.573
REMARK  1 active torsions:
REMARK  status: ('A' for Active; 'I' for Inactive)
REMARK    1  A    between atoms: C10_16  and  C11_17 
ROOT
HETATM    1  C1  UNL     1      30.109   8.653  44.819  1.00  0.00     0.074 C 
HETATM    2  C2  UNL     1      29.717   7.992  46.102  1.00  0.00     0.069 A 
HETATM    3  N1  UNL     1      28.437   8.097  46.369  1.00  0.00    -0.212 NA
HETATM    4  S1  UNL     1      28.322   7.221  47.977  1.00  0.00     0.032 SA
HETATM    5  C3  UNL     1      30.130   6.900  47.907  1.00  0.00     0.123 A 
HETATM    6  C4  UNL     1      30.722   7.434  46.739  1.00  0.00     0.097 A 
HETATM    7  N2  UNL     1      32.149   7.235  46.564  1.00  0.00    -0.318 N 
HETATM    8  C5  UNL     1      33.170   8.089  47.223  1.00  0.00     0.279 C 
HETATM    9  N3  UNL     1      33.641   7.367  48.429  1.00  0.00    -0.278 NA
HETATM   10  C6  UNL     1      33.169   6.381  49.172  1.00  0.00     0.162 C 
HETATM   11  C7  UNL     1      31.879   5.663  48.916  1.00  0.00     0.141 C 
HETATM   12  N4  UNL     1      31.703   4.508  48.272  1.00  0.00    -0.262 NA
HETATM   13  C8  UNL     1      32.922   3.882  47.743  1.00  0.00     0.220 C 
HETATM   14  S2  UNL     1      33.331   4.643  46.098  1.00  0.00    -0.153 SA
HETATM   15  C9  UNL     1      34.829   4.054  45.237  1.00  0.00     0.087 C 
HETATM   16  C10 UNL     1      32.867   6.207  45.790  1.00  0.00     0.078 C 
HETATM   17  N6  UNL     1      30.519   6.120  49.176  1.00  0.00    -0.331 N 
HETATM   18  H14 UNL     1      29.756   6.128  49.841  1.00  0.00     0.168 HD
ENDROOT
BRANCH  16  19
HETATM   19  C11 UNL     1      33.226   6.725  44.453  1.00  0.00     0.027 C 
HETATM   20  C12 UNL     1      34.117   7.520  43.880  1.00  0.00     0.008 C 
HETATM   21  C13 UNL     1      34.791   6.896  42.925  1.00  0.00     0.129 C 
HETATM   22  N5  UNL     1      33.586   6.530  42.245  1.00  0.00    -0.271 NA
HETATM   23  C14 UNL     1      32.627   6.420  43.132  1.00  0.00     0.131 C 
ENDBRANCH  16  19
TORSDOF 1
ENDMDL
MODEL 7
REMARK VINA RESULT:      -5.9      1.918      4.826
REMARK  1 active torsions:
REMARK  status: ('A' for Active; 'I' for Inactive)
REMARK    1  A    between atoms: C10_16  and  C11_17 
ROOT
HETATM    1  C1  UNL     1      20.112   0.330  51.448  1.00  0.00     0.074 C 
HETATM    2  C2  UNL     1      21.443   0.425  52.123  1.00  0.00     0.069 A 
HETATM    3  N1  UNL     1      21.810  -0.693  52.703  1.00  0.00    -0.212 NA
HETATM    4  S1  UNL     1      23.427  -0.217  53.429  1.00  0.00     0.032 SA
HETATM    5  C3  UNL     1      23.214   1.474  52.741  1.00  0.00     0.123 A 
HETATM    6  C4  UNL     1      22.001   1.610  52.028  1.00  0.00     0.097 A 
HETATM    7  N2  UNL     1      21.724   2.902  51.425  1.00  0.00    -0.318 N 
HETATM    8  C5  UNL     1      21.165   4.046  52.191  1.00  0.00     0.279 C 
HETATM    9  N3  UNL     1      22.296   4.929  52.559  1.00  0.00    -0.278 NA
HETATM   10  C6  UNL     1      23.606   4.782  52.648  1.00  0.00     0.162 C 
HETATM   11  C7  UNL     1      24.345   3.515  52.339  1.00  0.00     0.141 C 
HETATM   12  N4  UNL     1      24.952   3.184  51.197  1.00  0.00    -0.262 NA
HETATM   13  C8  UNL     1      24.870   4.181  50.121  1.00  0.00     0.220 C 
HETATM   14  S2  UNL     1      23.254   3.974  49.225  1.00  0.00    -0.153 SA
HETATM   15  C9  UNL     1      22.892   5.118  47.850  1.00  0.00     0.087 C 
HETATM   16  C10 UNL     1      21.946   3.362  50.044  1.00  0.00     0.078 C 
HETATM   17  N6  UNL     1      24.447   2.304  53.144  1.00  0.00    -0.331 N 
HETATM   18  H14 UNL     1      24.990   1.811  53.841  1.00  0.00     0.168 HD
ENDROOT
BRANCH  16  19
HETATM   19  C11 UNL     1      20.707   3.224  49.249  1.00  0.00     0.027 C 
HETATM   20  C12 UNL     1      19.493   3.746  49.167  1.00  0.00     0.008 C 
HETATM   21  C13 UNL     1      19.248   4.234  47.959  1.00  0.00     0.129 C 
HETATM   22  N5  UNL     1      19.555   2.982  47.337  1.00  0.00    -0.271 NA
HETATM   23  C14 UNL     1      20.426   2.350  48.085  1.00  0.00     0.131 C 
ENDBRANCH  16  19
TORSDOF 1
ENDMDL
MODEL 8
REMARK VINA RESULT:      -5.7      6.724      9.955
REMARK  1 active torsions:
REMARK  status: ('A' for Active; 'I' for Inactive)
REMARK    1  A    between atoms: C10_16  and  C11_17 
ROOT
HETATM    1  C1  UNL     1      27.735   5.110  48.576  1.00  0.00     0.074 C 
HETATM    2  C2  UNL     1      26.708   6.124  48.964  1.00  0.00     0.069 A 
HETATM    3  N1  UNL     1      25.771   5.641  49.744  1.00  0.00    -0.212 NA
HETATM    4  S1  UNL     1      24.702   7.111  49.992  1.00  0.00     0.032 SA
HETATM    5  C3  UNL     1      25.833   8.088  48.924  1.00  0.00     0.123 A 
HETATM    6  C4  UNL     1      26.916   7.314  48.447  1.00  0.00     0.097 A 
HETATM    7  N2  UNL     1      27.889   7.980  47.598  1.00  0.00    -0.318 N 
HETATM    8  C5  UNL     1      27.674   8.202  46.145  1.00  0.00     0.279 C 
HETATM    9  N3  UNL     1      27.194   9.594  45.974  1.00  0.00    -0.278 NA
HETATM   10  C6  UNL     1      26.643  10.496  46.767  1.00  0.00     0.162 C 
HETATM   11  C7  UNL     1      26.353  10.289  48.223  1.00  0.00     0.141 C 
HETATM   12  N4  UNL     1      27.103  10.657  49.263  1.00  0.00    -0.262 NA
HETATM   13  C8  UNL     1      28.366  11.331  48.931  1.00  0.00     0.220 C 
HETATM   14  S2  UNL     1      29.658  10.049  48.557  1.00  0.00    -0.153 SA
HETATM   15  C9  UNL     1      31.322  10.632  48.085  1.00  0.00     0.087 C 
HETATM   16  C10 UNL     1      29.189   8.578  47.948  1.00  0.00     0.078 C 
HETATM   17  N6  UNL     1      25.275   9.520  48.833  1.00  0.00    -0.331 N 
HETATM   18  H14 UNL     1      24.336   9.555  49.207  1.00  0.00     0.168 HD
ENDROOT
BRANCH  16  19
HETATM   19  C11 UNL     1      30.283   7.618  47.691  1.00  0.00     0.027 C 
HETATM   20  C12 UNL     1      30.994   7.139  46.681  1.00  0.00     0.008 C 
HETATM   21  C13 UNL     1      32.293   7.327  46.861  1.00  0.00     0.129 C 
HETATM   22  N5  UNL     1      32.266   6.657  48.125  1.00  0.00    -0.271 NA
HETATM   23  C14 UNL     1      31.075   6.811  48.650  1.00  0.00     0.131 C 
ENDBRANCH  16  19
TORSDOF 1
ENDMDL
MODEL 9
REMARK VINA RESULT:      -5.6     23.136     25.505
REMARK  1 active torsions:
REMARK  status: ('A' for Active; 'I' for Inactive)
REMARK    1  A    between atoms: C10_16  and  C11_17 
ROOT
HETATM    1  C1  UNL     1      37.575  -0.194  67.927  1.00  0.00     0.074 C 
HETATM    2  C2  UNL     1      38.564   0.443  68.849  1.00  0.00     0.069 A 
HETATM    3  N1  UNL     1      38.122   1.547  69.401  1.00  0.00    -0.212 NA
HETATM    4  S1  UNL     1      39.562   2.055  70.418  1.00  0.00     0.032 SA
HETATM    5  C3  UNL     1      40.476   0.575  69.824  1.00  0.00     0.123 A 
HETATM    6  C4  UNL     1      39.704  -0.205  68.932  1.00  0.00     0.097 A 
HETATM    7  N2  UNL     1      40.315  -1.411  68.402  1.00  0.00    -0.318 N 
HETATM    8  C5  UNL     1      41.257  -1.401  67.253  1.00  0.00     0.279 C 
HETATM    9  N3  UNL     1      42.631  -1.449  67.805  1.00  0.00    -0.278 NA
HETATM   10  C6  UNL     1      43.176  -1.187  68.980  1.00  0.00     0.162 C 
HETATM   11  C7  UNL     1      42.417  -0.730  70.190  1.00  0.00     0.141 C 
HETATM   12  N4  UNL     1      41.967  -1.479  71.198  1.00  0.00    -0.262 NA
HETATM   13  C8  UNL     1      42.241  -2.919  71.095  1.00  0.00     0.220 C 
HETATM   14  S2  UNL     1      40.936  -3.710  70.033  1.00  0.00    -0.153 SA
HETATM   15  C9  UNL     1      41.065  -5.504  69.723  1.00  0.00     0.087 C 
HETATM   16  C10 UNL     1      40.191  -2.806  68.857  1.00  0.00     0.078 C 
HETATM   17  N6  UNL     1      41.872   0.591  70.474  1.00  0.00    -0.331 N 
HETATM   18  H14 UNL     1      42.043   1.486  70.914  1.00  0.00     0.168 HD
ENDROOT
BRANCH  16  19
HETATM   19  C11 UNL     1      39.160  -3.516  68.069  1.00  0.00     0.027 C 
HETATM   20  C12 UNL     1      38.998  -4.068  66.876  1.00  0.00     0.008 C 
HETATM   21  C13 UNL     1      38.645  -5.342  66.968  1.00  0.00     0.129 C 
HETATM   22  N5  UNL     1      37.518  -5.022  67.790  1.00  0.00    -0.271 NA
HETATM   23  C14 UNL     1      37.792  -3.932  68.463  1.00  0.00     0.131 C 
ENDBRANCH  16  19
TORSDOF 1
ENDMDL
