MODEL 1
REMARK VINA RESULT:      -8.3      0.000      0.000
REMARK  6 active torsions:
REMARK  status: ('A' for Active; 'I' for Inactive)
REMARK    1  A    between atoms: N1_2  and  C3_4 
REMARK    2  A    between atoms: C3_4  and  C4_5 
REMARK    3  A    between atoms: C5_6  and  N2_7 
REMARK    4  A    between atoms: N2_7  and  C6_8 
REMARK    5  A    between atoms: C11_15  and  C12_16 
REMARK    6  A    between atoms: C20_26  and  N3_27 
ROOT
HETATM    1  C12 UNL     1      22.857   1.388  51.984  1.00  0.00     0.067 C 
HETATM    2  C13 UNL     1      23.247   0.332  52.679  1.00  0.00     0.017 C 
HETATM    3  C14 UNL     1      24.674  -0.096  52.717  1.00  0.00     0.068 C 
HETATM    4  C15 UNL     1      24.943  -0.721  54.045  1.00  0.00     0.182 C 
HETATM    5  O1  UNL     1      26.284  -0.946  54.293  1.00  0.00    -0.374 OA
HETATM    6  C16 UNL     1      27.101   0.134  54.105  1.00  0.00     0.118 C 
HETATM    7  C17 UNL     1      28.052  -0.163  52.975  1.00  0.00     0.069 C 
HETATM    8  C18 UNL     1      29.403  -0.267  53.641  1.00  0.00     0.170 C 
HETATM    9  O2  UNL     1      29.101  -0.602  54.958  1.00  0.00    -0.388 OA
HETATM   10  C19 UNL     1      28.034   0.232  55.292  1.00  0.00     0.208 C 
HETATM   11  C20 UNL     1      26.356   1.408  53.851  1.00  0.00     0.286 C 
HETATM   12  C21 UNL     1      25.458   1.186  52.688  1.00  0.00    -0.003 C 
HETATM   13  C22 UNL     1      25.120   1.806  51.579  1.00  0.00     0.092 C 
HETATM   14  N4  UNL     1      23.914   2.041  51.301  1.00  0.00    -0.246 NA
ENDROOT
BRANCH   1  15
HETATM   15  C11 UNL     1      21.474   1.837  51.923  1.00  0.00     0.021 A 
HETATM   16  C6  UNL     1      21.102   3.158  52.010  1.00  0.00     0.047 A 
HETATM   17  C7  UNL     1      19.804   3.607  51.958  1.00  0.00     0.074 A 
HETATM   18  C8  UNL     1      18.781   2.699  51.807  1.00  0.00     0.140 A 
HETATM   19  F1  UNL     1      17.489   3.102  51.751  1.00  0.00    -0.204 F 
HETATM   20  C9  UNL     1      19.122   1.388  51.719  1.00  0.00     0.073 A 
HETATM   21 CL1  UNL     1      17.798   0.236  51.526  1.00  0.00    -0.081 Cl
HETATM   22  C10 UNL     1      20.435   0.945  51.773  1.00  0.00     0.043 A 
BRANCH  16  23
HETATM   23  N2  UNL     1      22.075   4.179  52.169  1.00  0.00    -0.365 N 
HETATM   24  H11 UNL     1      22.975   4.468  52.565  1.00  0.00     0.165 HD
BRANCH  23  25
HETATM   25  C5  UNL     1      21.901   5.461  51.583  1.00  0.00     0.086 C 
HETATM   26  C4  UNL     1      22.578   5.953  50.559  1.00  0.00     0.020 C 
BRANCH  26  27
HETATM   27  C3  UNL     1      23.661   5.326  49.775  1.00  0.00     0.300 C 
BRANCH  27  28
HETATM   28  N1  UNL     1      24.970   5.591  50.287  1.00  0.00     0.083 N 
HETATM   29  C1  UNL     1      25.292   6.974  50.458  1.00  0.00     0.309 C 
HETATM   30  C2  UNL     1      25.936   4.863  49.493  1.00  0.00     0.309 C 
ENDBRANCH  27  28
ENDBRANCH  26  27
ENDBRANCH  23  25
ENDBRANCH  16  23
ENDBRANCH   1  15
BRANCH  11  31
HETATM   31  N3  UNL     1      27.247   2.487  53.530  1.00  0.00     0.090 N 
HETATM   32  H25 UNL     1      28.124   2.160  53.074  1.00  0.00     0.313 HD
HETATM   33  H26 UNL     1      26.826   3.318  53.106  1.00  0.00     0.313 HD
ENDBRANCH  11  31
TORSDOF 6
ENDMDL
MODEL 2
REMARK VINA RESULT:      -8.3      3.256      6.507
REMARK  6 active torsions:
REMARK  status: ('A' for Active; 'I' for Inactive)
REMARK    1  A    between atoms: N1_2  and  C3_4 
REMARK    2  A    between atoms: C3_4  and  C4_5 
REMARK    3  A    between atoms: C5_6  and  N2_7 
REMARK    4  A    between atoms: N2_7  and  C6_8 
REMARK    5  A    between atoms: C11_15  and  C12_16 
REMARK    6  A    between atoms: C20_26  and  N3_27 
ROOT
HETATM    1  C12 UNL     1      22.446   2.644  51.835  1.00  0.00     0.067 C 
HETATM    2  C13 UNL     1      23.061   2.766  50.670  1.00  0.00     0.017 C 
HETATM    3  C14 UNL     1      23.175   4.082  49.981  1.00  0.00     0.068 C 
HETATM    4  C15 UNL     1      24.452   4.100  49.208  1.00  0.00     0.182 C 
HETATM    5  O1  UNL     1      24.787   5.346  48.715  1.00  0.00    -0.374 OA
HETATM    6  C16 UNL     1      24.777   6.359  49.634  1.00  0.00     0.118 C 
HETATM    7  C17 UNL     1      23.706   7.350  49.259  1.00  0.00     0.069 C 
HETATM    8  C18 UNL     1      24.469   8.586  48.848  1.00  0.00     0.170 C 
HETATM    9  O2  UNL     1      25.716   8.098  48.468  1.00  0.00    -0.388 OA
HETATM   10  C19 UNL     1      26.042   7.170  49.457  1.00  0.00     0.208 C 
HETATM   11  C20 UNL     1      24.591   5.883  51.042  1.00  0.00     0.286 C 
HETATM   12  C21 UNL     1      23.341   5.082  51.091  1.00  0.00    -0.003 C 
HETATM   13  C22 UNL     1      22.275   4.974  51.853  1.00  0.00     0.092 C 
HETATM   14  N4  UNL     1      21.922   3.864  52.333  1.00  0.00    -0.246 NA
ENDROOT
BRANCH   1  15
HETATM   15  C11 UNL     1      22.314   1.377  52.540  1.00  0.00     0.021 A 
HETATM   16  C6  UNL     1      23.371   0.723  53.126  1.00  0.00     0.047 A 
HETATM   17  C7  UNL     1      23.274  -0.475  53.794  1.00  0.00     0.074 A 
HETATM   18  C8  UNL     1      22.047  -1.089  53.902  1.00  0.00     0.140 A 
HETATM   19  F1  UNL     1      21.911  -2.269  54.553  1.00  0.00    -0.204 F 
HETATM   20  C9  UNL     1      20.986  -0.463  53.332  1.00  0.00     0.073 A 
HETATM   21 CL1  UNL     1      19.421  -1.264  53.481  1.00  0.00    -0.081 Cl
HETATM   22  C10 UNL     1      21.096   0.745  52.661  1.00  0.00     0.043 A 
BRANCH  16  23
HETATM   23  N2  UNL     1      24.682   1.265  53.073  1.00  0.00    -0.365 N 
HETATM   24  H11 UNL     1      25.326   2.013  53.351  1.00  0.00     0.165 HD
BRANCH  23  25
HETATM   25  C5  UNL     1      25.719   0.616  52.351  1.00  0.00     0.086 C 
HETATM   26  C4  UNL     1      26.797   0.050  52.867  1.00  0.00     0.020 C 
BRANCH  26  27
HETATM   27  C3  UNL     1      27.202  -0.058  54.282  1.00  0.00     0.300 C 
BRANCH  27  28
HETATM   28  N1  UNL     1      28.595   0.182  54.503  1.00  0.00     0.083 N 
HETATM   29  C1  UNL     1      29.042   1.508  54.208  1.00  0.00     0.309 C 
HETATM   30  C2  UNL     1      29.356  -0.850  53.833  1.00  0.00     0.309 C 
ENDBRANCH  27  28
ENDBRANCH  26  27
ENDBRANCH  23  25
ENDBRANCH  16  23
ENDBRANCH   1  15
BRANCH  11  31
HETATM   31  N3  UNL     1      24.456   6.981  51.958  1.00  0.00     0.090 N 
HETATM   32  H25 UNL     1      24.163   7.862  51.486  1.00  0.00     0.313 HD
HETATM   33  H26 UNL     1      23.975   6.786  52.840  1.00  0.00     0.313 HD
ENDBRANCH  11  31
TORSDOF 6
ENDMDL
MODEL 3
REMARK VINA RESULT:      -8.0      2.729      3.794
REMARK  6 active torsions:
REMARK  status: ('A' for Active; 'I' for Inactive)
REMARK    1  A    between atoms: N1_2  and  C3_4 
REMARK    2  A    between atoms: C3_4  and  C4_5 
REMARK    3  A    between atoms: C5_6  and  N2_7 
REMARK    4  A    between atoms: N2_7  and  C6_8 
REMARK    5  A    between atoms: C11_15  and  C12_16 
REMARK    6  A    between atoms: C20_26  and  N3_27 
ROOT
HETATM    1  C12 UNL     1      24.010   4.172  50.806  1.00  0.00     0.067 C 
HETATM    2  C13 UNL     1      23.605   3.112  51.487  1.00  0.00     0.017 C 
HETATM    3  C14 UNL     1      24.483   1.924  51.678  1.00  0.00     0.068 C 
HETATM    4  C15 UNL     1      24.154   1.303  52.995  1.00  0.00     0.182 C 
HETATM    5  O1  UNL     1      25.055   0.335  53.395  1.00  0.00    -0.374 OA
HETATM    6  C16 UNL     1      26.369   0.714  53.367  1.00  0.00     0.118 C 
HETATM    7  C17 UNL     1      27.099  -0.124  52.349  1.00  0.00     0.069 C 
HETATM    8  C18 UNL     1      28.025  -0.987  53.171  1.00  0.00     0.170 C 
HETATM    9  O2  UNL     1      27.414  -1.036  54.421  1.00  0.00    -0.388 OA
HETATM   10  C19 UNL     1      27.014   0.278  54.664  1.00  0.00     0.208 C 
HETATM   11  C20 UNL     1      26.562   2.174  53.090  1.00  0.00     0.286 C 
HETATM   12  C21 UNL     1      25.869   2.491  51.815  1.00  0.00    -0.003 C 
HETATM   13  C22 UNL     1      26.111   3.155  50.706  1.00  0.00     0.092 C 
HETATM   14  N4  UNL     1      25.327   4.050  50.294  1.00  0.00    -0.246 NA
ENDROOT
BRANCH   1  15
HETATM   15  C11 UNL     1      23.183   5.351  50.597  1.00  0.00     0.021 A 
HETATM   16  C6  UNL     1      23.654   6.638  50.713  1.00  0.00     0.047 A 
HETATM   17  C7  UNL     1      22.893   7.767  50.525  1.00  0.00     0.074 A 
HETATM   18  C8  UNL     1      21.563   7.637  50.194  1.00  0.00     0.140 A 
HETATM   19  F1  UNL     1      20.781   8.725  50.000  1.00  0.00    -0.204 F 
HETATM   20  C9  UNL     1      21.073   6.377  50.073  1.00  0.00     0.073 A 
HETATM   21 CL1  UNL     1      19.366   6.228  49.648  1.00  0.00    -0.081 Cl
HETATM   22  C10 UNL     1      21.850   5.244  50.265  1.00  0.00     0.043 A 
BRANCH  16  23
HETATM   23  N2  UNL     1      25.009   6.888  51.053  1.00  0.00    -0.365 N 
HETATM   24  H11 UNL     1      25.825   6.635  51.621  1.00  0.00     0.165 HD
BRANCH  23  25
HETATM   25  C5  UNL     1      25.747   7.925  50.424  1.00  0.00     0.086 C 
HETATM   26  C4  UNL     1      26.554   7.794  49.384  1.00  0.00     0.020 C 
BRANCH  26  27
HETATM   27  C3  UNL     1      26.895   6.577  48.622  1.00  0.00     0.300 C 
BRANCH  27  28
HETATM   28  N1  UNL     1      28.203   6.608  48.043  1.00  0.00     0.083 N 
HETATM   29  C1  UNL     1      28.999   5.440  48.266  1.00  0.00     0.309 C 
HETATM   30  C2  UNL     1      28.856   7.838  48.434  1.00  0.00     0.309 C 
ENDBRANCH  27  28
ENDBRANCH  26  27
ENDBRANCH  23  25
ENDBRANCH  16  23
ENDBRANCH   1  15
BRANCH  11  31
HETATM   31  N3  UNL     1      27.951   2.504  52.940  1.00  0.00     0.090 N 
HETATM   32  H25 UNL     1      28.204   3.396  53.414  1.00  0.00     0.313 HD
HETATM   33  H26 UNL     1      28.620   1.741  53.073  1.00  0.00     0.313 HD
ENDBRANCH  11  31
TORSDOF 6
ENDMDL
MODEL 4
REMARK VINA RESULT:      -8.0      4.445      7.810
REMARK  6 active torsions:
REMARK  status: ('A' for Active; 'I' for Inactive)
REMARK    1  A    between atoms: N1_2  and  C3_4 
REMARK    2  A    between atoms: C3_4  and  C4_5 
REMARK    3  A    between atoms: C5_6  and  N2_7 
REMARK    4  A    between atoms: N2_7  and  C6_8 
REMARK    5  A    between atoms: C11_15  and  C12_16 
REMARK    6  A    between atoms: C20_26  and  N3_27 
ROOT
HETATM    1  C12 UNL     1      25.484   3.467  50.664  1.00  0.00     0.067 C 
HETATM    2  C13 UNL     1      26.381   3.783  49.744  1.00  0.00     0.017 C 
HETATM    3  C14 UNL     1      26.218   4.979  48.871  1.00  0.00     0.068 C 
HETATM    4  C15 UNL     1      27.574   5.508  48.540  1.00  0.00     0.182 C 
HETATM    5  O1  UNL     1      27.554   6.749  47.932  1.00  0.00    -0.374 OA
HETATM    6  C16 UNL     1      26.820   7.704  48.580  1.00  0.00     0.118 C 
HETATM    7  C17 UNL     1      25.665   8.112  47.703  1.00  0.00     0.069 C 
HETATM    8  C18 UNL     1      25.982   9.533  47.305  1.00  0.00     0.170 C 
HETATM    9  O2  UNL     1      27.365   9.614  47.431  1.00  0.00    -0.388 OA
HETATM   10  C19 UNL     1      27.642   8.973  48.638  1.00  0.00     0.208 C 
HETATM   11  C20 UNL     1      26.335   7.269  49.929  1.00  0.00     0.286 C 
HETATM   12  C21 UNL     1      25.569   6.009  49.753  1.00  0.00    -0.003 C 
HETATM   13  C22 UNL     1      24.430   5.490  50.157  1.00  0.00     0.092 C 
HETATM   14  N4  UNL     1      24.387   4.364  50.720  1.00  0.00    -0.246 NA
ENDROOT
BRANCH   1  15
HETATM   15  C11 UNL     1      25.607   2.307  51.534  1.00  0.00     0.021 A 
HETATM   16  C6  UNL     1      24.529   1.591  52.000  1.00  0.00     0.047 A 
HETATM   17  C7  UNL     1      24.619   0.496  52.825  1.00  0.00     0.074 A 
HETATM   18  C8  UNL     1      25.858   0.056  53.232  1.00  0.00     0.140 A 
HETATM   19  F1  UNL     1      25.987  -1.019  54.044  1.00  0.00    -0.204 F 
HETATM   20  C9  UNL     1      26.939   0.746  52.785  1.00  0.00     0.073 A 
HETATM   21 CL1  UNL     1      28.520   0.169  53.316  1.00  0.00    -0.081 Cl
HETATM   22  C10 UNL     1      26.837   1.850  51.953  1.00  0.00     0.043 A 
BRANCH  16  23
HETATM   23  N2  UNL     1      23.205   1.958  51.646  1.00  0.00    -0.365 N 
HETATM   24  H11 UNL     1      22.489   2.691  51.594  1.00  0.00     0.165 HD
BRANCH  23  25
HETATM   25  C5  UNL     1      22.301   1.013  51.093  1.00  0.00     0.086 C 
HETATM   26  C4  UNL     1      21.180   0.583  51.646  1.00  0.00     0.020 C 
BRANCH  26  27
HETATM   27  C3  UNL     1      20.584   0.955  52.944  1.00  0.00     0.300 C 
BRANCH  27  28
HETATM   28  N1  UNL     1      20.201  -0.168  53.745  1.00  0.00     0.083 N 
HETATM   29  C1  UNL     1      21.232  -1.130  53.983  1.00  0.00     0.309 C 
HETATM   30  C2  UNL     1      18.990  -0.739  53.197  1.00  0.00     0.309 C 
ENDBRANCH  27  28
ENDBRANCH  26  27
ENDBRANCH  23  25
ENDBRANCH  16  23
ENDBRANCH   1  15
BRANCH  11  31
HETATM   31  N3  UNL     1      25.463   8.246  50.517  1.00  0.00     0.090 N 
HETATM   32  H25 UNL     1      25.892   8.724  51.337  1.00  0.00     0.313 HD
HETATM   33  H26 UNL     1      24.966   8.865  49.871  1.00  0.00     0.313 HD
ENDBRANCH  11  31
TORSDOF 6
ENDMDL
MODEL 5
REMARK VINA RESULT:      -8.0      3.567      6.980
REMARK  6 active torsions:
REMARK  status: ('A' for Active; 'I' for Inactive)
REMARK    1  A    between atoms: N1_2  and  C3_4 
REMARK    2  A    between atoms: C3_4  and  C4_5 
REMARK    3  A    between atoms: C5_6  and  N2_7 
REMARK    4  A    between atoms: N2_7  and  C6_8 
REMARK    5  A    between atoms: C11_15  and  C12_16 
REMARK    6  A    between atoms: C20_26  and  N3_27 
ROOT
HETATM    1  C12 UNL     1      23.073   2.343  51.894  1.00  0.00     0.067 C 
HETATM    2  C13 UNL     1      22.658   3.562  52.199  1.00  0.00     0.017 C 
HETATM    3  C14 UNL     1      23.096   4.754  51.421  1.00  0.00     0.068 C 
HETATM    4  C15 UNL     1      21.993   5.759  51.439  1.00  0.00     0.182 C 
HETATM    5  O1  UNL     1      22.182   6.809  50.561  1.00  0.00    -0.374 OA
HETATM    6  C16 UNL     1      22.470   6.448  49.273  1.00  0.00     0.118 C 
HETATM    7  C17 UNL     1      23.859   6.924  48.932  1.00  0.00     0.069 C 
HETATM    8  C18 UNL     1      23.639   8.008  47.905  1.00  0.00     0.170 C 
HETATM    9  O2  UNL     1      22.343   8.448  48.155  1.00  0.00    -0.388 OA
HETATM   10  C19 UNL     1      21.609   7.277  48.346  1.00  0.00     0.208 C 
HETATM   11  C20 UNL     1      22.336   4.978  49.023  1.00  0.00     0.286 C 
HETATM   12  C21 UNL     1      23.199   4.268  50.002  1.00  0.00    -0.003 C 
HETATM   13  C22 UNL     1      24.076   3.288  50.007  1.00  0.00     0.092 C 
HETATM   14  N4  UNL     1      23.954   2.304  50.783  1.00  0.00    -0.246 NA
ENDROOT
BRANCH   1  15
HETATM   15  C11 UNL     1      22.668   1.154  52.629  1.00  0.00     0.021 A 
HETATM   16  C6  UNL     1      23.547   0.357  53.325  1.00  0.00     0.047 A 
HETATM   17  C7  UNL     1      23.191  -0.771  54.023  1.00  0.00     0.074 A 
HETATM   18  C8  UNL     1      21.870  -1.159  54.051  1.00  0.00     0.140 A 
HETATM   19  F1  UNL     1      21.480  -2.265  54.729  1.00  0.00    -0.204 F 
HETATM   20  C9  UNL     1      20.982  -0.389  53.372  1.00  0.00     0.073 A 
HETATM   21 CL1  UNL     1      19.294  -0.901  53.418  1.00  0.00    -0.081 Cl
HETATM   22  C10 UNL     1      21.352   0.748  52.670  1.00  0.00     0.043 A 
BRANCH  16  23
HETATM   23  N2  UNL     1      24.932   0.662  53.361  1.00  0.00    -0.365 N 
HETATM   24  H11 UNL     1      25.668   1.343  53.580  1.00  0.00     0.165 HD
BRANCH  23  25
HETATM   25  C5  UNL     1      25.907  -0.282  52.943  1.00  0.00     0.086 C 
HETATM   26  C4  UNL     1      27.093  -0.481  53.492  1.00  0.00     0.020 C 
BRANCH  26  27
HETATM   27  C3  UNL     1      27.705   0.201  54.650  1.00  0.00     0.300 C 
BRANCH  27  28
HETATM   28  N1  UNL     1      28.909   0.906  54.332  1.00  0.00     0.083 N 
HETATM   29  C1  UNL     1      28.727   2.159  53.666  1.00  0.00     0.309 C 
HETATM   30  C2  UNL     1      29.807   0.006  53.641  1.00  0.00     0.309 C 
ENDBRANCH  27  28
ENDBRANCH  26  27
ENDBRANCH  23  25
ENDBRANCH  16  23
ENDBRANCH   1  15
BRANCH  11  31
HETATM   31  N3  UNL     1      22.773   4.624  47.702  1.00  0.00     0.090 N 
HETATM   32  H25 UNL     1      23.045   3.622  47.624  1.00  0.00     0.313 HD
HETATM   33  H26 UNL     1      22.211   4.979  46.923  1.00  0.00     0.313 HD
ENDBRANCH  11  31
TORSDOF 6
ENDMDL
MODEL 6
REMARK VINA RESULT:      -8.0      4.138      6.668
REMARK  6 active torsions:
REMARK  status: ('A' for Active; 'I' for Inactive)
REMARK    1  A    between atoms: N1_2  and  C3_4 
REMARK    2  A    between atoms: C3_4  and  C4_5 
REMARK    3  A    between atoms: C5_6  and  N2_7 
REMARK    4  A    between atoms: N2_7  and  C6_8 
REMARK    5  A    between atoms: C11_15  and  C12_16 
REMARK    6  A    between atoms: C20_26  and  N3_27 
ROOT
HETATM    1  C12 UNL     1      24.257   3.175  50.835  1.00  0.00     0.067 C 
HETATM    2  C13 UNL     1      25.309   3.300  50.042  1.00  0.00     0.017 C 
HETATM    3  C14 UNL     1      25.463   4.466  49.127  1.00  0.00     0.068 C 
HETATM    4  C15 UNL     1      26.920   4.755  48.975  1.00  0.00     0.182 C 
HETATM    5  O1  UNL     1      27.186   5.953  48.340  1.00  0.00    -0.374 OA
HETATM    6  C16 UNL     1      26.540   7.043  48.856  1.00  0.00     0.118 C 
HETATM    7  C17 UNL     1      25.595   7.588  47.817  1.00  0.00     0.069 C 
HETATM    8  C18 UNL     1      26.193   8.920  47.433  1.00  0.00     0.170 C 
HETATM    9  O2  UNL     1      27.541   8.785  47.748  1.00  0.00    -0.388 OA
HETATM   10  C19 UNL     1      27.545   8.165  48.998  1.00  0.00     0.208 C 
HETATM   11  C20 UNL     1      25.815   6.755  50.134  1.00  0.00     0.286 C 
HETATM   12  C21 UNL     1      24.881   5.626  49.884  1.00  0.00    -0.003 C 
HETATM   13  C22 UNL     1      23.629   5.315  50.138  1.00  0.00     0.092 C 
HETATM   14  N4  UNL     1      23.326   4.238  50.717  1.00  0.00    -0.246 NA
ENDROOT
BRANCH   1  15
HETATM   15  C11 UNL     1      24.070   2.053  51.743  1.00  0.00     0.021 A 
HETATM   16  C6  UNL     1      22.903   1.331  51.825  1.00  0.00     0.047 A 
HETATM   17  C7  UNL     1      22.700   0.270  52.675  1.00  0.00     0.074 A 
HETATM   18  C8  UNL     1      23.716  -0.125  53.515  1.00  0.00     0.140 A 
HETATM   19  F1  UNL     1      23.555  -1.166  54.366  1.00  0.00    -0.204 F 
HETATM   20  C9  UNL     1      24.880   0.571  53.453  1.00  0.00     0.073 A 
HETATM   21 CL1  UNL     1      26.172   0.050  54.537  1.00  0.00    -0.081 Cl
HETATM   22  C10 UNL     1      25.074   1.640  52.592  1.00  0.00     0.043 A 
BRANCH  16  23
HETATM   23  N2  UNL     1      21.789   1.654  51.006  1.00  0.00    -0.365 N 
HETATM   24  H11 UNL     1      21.026   2.305  50.793  1.00  0.00     0.165 HD
BRANCH  23  25
HETATM   25  C5  UNL     1      21.391   0.810  49.936  1.00  0.00     0.086 C 
HETATM   26  C4  UNL     1      21.574   1.040  48.647  1.00  0.00     0.020 C 
BRANCH  26  27
HETATM   27  C3  UNL     1      22.219   2.195  47.992  1.00  0.00     0.300 C 
BRANCH  27  28
HETATM   28  N1  UNL     1      21.311   3.018  47.253  1.00  0.00     0.083 N 
HETATM   29  C1  UNL     1      21.859   3.641  46.088  1.00  0.00     0.309 C 
HETATM   30  C2  UNL     1      20.677   3.946  48.164  1.00  0.00     0.309 C 
ENDBRANCH  27  28
ENDBRANCH  26  27
ENDBRANCH  23  25
ENDBRANCH  16  23
ENDBRANCH   1  15
BRANCH  11  31
HETATM   31  N3  UNL     1      25.045   7.885  50.572  1.00  0.00     0.090 N 
HETATM   32  H25 UNL     1      25.605   8.762  50.605  1.00  0.00     0.313 HD
HETATM   33  H26 UNL     1      24.110   7.986  50.168  1.00  0.00     0.313 HD
ENDBRANCH  11  31
TORSDOF 6
ENDMDL
MODEL 7
REMARK VINA RESULT:      -7.9      4.052      7.022
REMARK  6 active torsions:
REMARK  status: ('A' for Active; 'I' for Inactive)
REMARK    1  A    between atoms: N1_2  and  C3_4 
REMARK    2  A    between atoms: C3_4  and  C4_5 
REMARK    3  A    between atoms: C5_6  and  N2_7 
REMARK    4  A    between atoms: N2_7  and  C6_8 
REMARK    5  A    between atoms: C11_15  and  C12_16 
REMARK    6  A    between atoms: C20_26  and  N3_27 
ROOT
HETATM    1  C12 UNL     1      24.931   2.970  51.126  1.00  0.00     0.067 C 
HETATM    2  C13 UNL     1      25.882   3.200  50.234  1.00  0.00     0.017 C 
HETATM    3  C14 UNL     1      25.784   4.323  49.260  1.00  0.00     0.068 C 
HETATM    4  C15 UNL     1      27.163   4.809  48.962  1.00  0.00     0.182 C 
HETATM    5  O1  UNL     1      27.195   5.996  48.255  1.00  0.00    -0.374 OA
HETATM    6  C16 UNL     1      26.442   7.009  48.783  1.00  0.00     0.118 C 
HETATM    7  C17 UNL     1      25.341   7.356  47.813  1.00  0.00     0.069 C 
HETATM    8  C18 UNL     1      25.701   8.736  47.319  1.00  0.00     0.170 C 
HETATM    9  O2  UNL     1      27.077   8.813  47.514  1.00  0.00    -0.388 OA
HETATM   10  C19 UNL     1      27.279   8.269  48.783  1.00  0.00     0.208 C 
HETATM   11  C20 UNL     1      25.878   6.691  50.134  1.00  0.00     0.286 C 
HETATM   12  C21 UNL     1      25.103   5.428  50.018  1.00  0.00    -0.003 C 
HETATM   13  C22 UNL     1      23.937   4.956  50.400  1.00  0.00     0.092 C 
HETATM   14  N4  UNL     1      23.847   3.880  51.049  1.00  0.00    -0.246 NA
ENDROOT
BRANCH   1  15
HETATM   15  C11 UNL     1      24.990   1.884  52.093  1.00  0.00     0.021 A 
HETATM   16  C6  UNL     1      23.930   1.051  52.363  1.00  0.00     0.047 A 
HETATM   17  C7  UNL     1      23.958   0.022  53.272  1.00  0.00     0.074 A 
HETATM   18  C8  UNL     1      25.114  -0.222  53.980  1.00  0.00     0.140 A 
HETATM   19  F1  UNL     1      25.181  -1.227  54.885  1.00  0.00    -0.204 F 
HETATM   20  C9  UNL     1      26.176   0.586  53.732  1.00  0.00     0.073 A 
HETATM   21 CL1  UNL     1      27.649   0.260  54.647  1.00  0.00    -0.081 Cl
HETATM   22  C10 UNL     1      26.136   1.622  52.812  1.00  0.00     0.043 A 
BRANCH  16  23
HETATM   23  N2  UNL     1      22.689   1.214  51.693  1.00  0.00    -0.365 N 
HETATM   24  H11 UNL     1      22.192   1.443  50.825  1.00  0.00     0.165 HD
BRANCH  23  25
HETATM   25  C5  UNL     1      21.455   1.007  52.365  1.00  0.00     0.086 C 
HETATM   26  C4  UNL     1      20.545   1.928  52.635  1.00  0.00     0.020 C 
BRANCH  26  27
HETATM   27  C3  UNL     1      20.563   3.370  52.320  1.00  0.00     0.300 C 
BRANCH  27  28
HETATM   28  N1  UNL     1      19.849   3.708  51.127  1.00  0.00     0.083 N 
HETATM   29  C1  UNL     1      20.234   4.940  50.511  1.00  0.00     0.309 C 
HETATM   30  C2  UNL     1      18.430   3.608  51.390  1.00  0.00     0.309 C 
ENDBRANCH  27  28
ENDBRANCH  26  27
ENDBRANCH  23  25
ENDBRANCH  16  23
ENDBRANCH   1  15
BRANCH  11  31
HETATM   31  N3  UNL     1      24.991   7.722  50.592  1.00  0.00     0.090 N 
HETATM   32  H25 UNL     1      24.353   8.063  49.843  1.00  0.00     0.313 HD
HETATM   33  H26 UNL     1      24.545   7.572  51.501  1.00  0.00     0.313 HD
ENDBRANCH  11  31
TORSDOF 6
ENDMDL
MODEL 8
REMARK VINA RESULT:      -7.6      7.386     10.520
REMARK  6 active torsions:
REMARK  status: ('A' for Active; 'I' for Inactive)
REMARK    1  A    between atoms: N1_2  and  C3_4 
REMARK    2  A    between atoms: C3_4  and  C4_5 
REMARK    3  A    between atoms: C5_6  and  N2_7 
REMARK    4  A    between atoms: N2_7  and  C6_8 
REMARK    5  A    between atoms: C11_15  and  C12_16 
REMARK    6  A    between atoms: C20_26  and  N3_27 
ROOT
HETATM    1  C12 UNL     1      29.110   5.780  48.179  1.00  0.00     0.067 C 
HETATM    2  C13 UNL     1      28.424   6.840  47.783  1.00  0.00     0.017 C 
HETATM    3  C14 UNL     1      26.934   6.852  47.785  1.00  0.00     0.068 C 
HETATM    4  C15 UNL     1      26.475   8.247  48.051  1.00  0.00     0.182 C 
HETATM    5  O1  UNL     1      25.122   8.348  48.309  1.00  0.00    -0.374 OA
HETATM    6  C16 UNL     1      24.648   7.503  49.275  1.00  0.00     0.118 C 
HETATM    7  C17 UNL     1      23.672   6.541  48.647  1.00  0.00     0.069 C 
HETATM    8  C18 UNL     1      22.335   6.932  49.230  1.00  0.00     0.170 C 
HETATM    9  O2  UNL     1      22.506   8.264  49.594  1.00  0.00    -0.388 OA
HETATM   10  C19 UNL     1      23.760   8.299  50.206  1.00  0.00     0.208 C 
HETATM   11  C20 UNL     1      25.728   6.763  50.002  1.00  0.00     0.286 C 
HETATM   12  C21 UNL     1      26.547   6.044  48.991  1.00  0.00    -0.003 C 
HETATM   13  C22 UNL     1      27.066   4.848  48.822  1.00  0.00     0.092 C 
HETATM   14  N4  UNL     1      28.294   4.694  48.587  1.00  0.00    -0.246 NA
ENDROOT
BRANCH   1  15
HETATM   15  C11 UNL     1      30.565   5.729  48.192  1.00  0.00     0.021 A 
HETATM   16  C6  UNL     1      31.349   6.647  48.849  1.00  0.00     0.047 A 
HETATM   17  C7  UNL     1      32.723   6.624  48.874  1.00  0.00     0.074 A 
HETATM   18  C8  UNL     1      33.393   5.624  48.206  1.00  0.00     0.140 A 
HETATM   19  F1  UNL     1      34.746   5.566  48.208  1.00  0.00    -0.204 F 
HETATM   20  C9  UNL     1      32.641   4.703  47.549  1.00  0.00     0.073 A 
HETATM   21 CL1  UNL     1      33.516   3.428  46.699  1.00  0.00    -0.081 Cl
HETATM   22  C10 UNL     1      31.255   4.737  47.531  1.00  0.00     0.043 A 
BRANCH  16  23
HETATM   23  N2  UNL     1      30.763   7.722  49.567  1.00  0.00    -0.365 N 
HETATM   24  H11 UNL     1      30.027   8.044  50.205  1.00  0.00     0.165 HD
BRANCH  23  25
HETATM   25  C5  UNL     1      31.303   9.034  49.501  1.00  0.00     0.086 C 
HETATM   26  C4  UNL     1      30.625  10.151  49.297  1.00  0.00     0.020 C 
BRANCH  26  27
HETATM   27  C3  UNL     1      29.175  10.332  49.089  1.00  0.00     0.300 C 
BRANCH  27  28
HETATM   28  N1  UNL     1      28.807  11.668  48.730  1.00  0.00     0.083 N 
HETATM   29  C1  UNL     1      28.211  11.812  47.438  1.00  0.00     0.309 C 
HETATM   30  C2  UNL     1      29.943  12.537  48.945  1.00  0.00     0.309 C 
ENDBRANCH  27  28
ENDBRANCH  26  27
ENDBRANCH  23  25
ENDBRANCH  16  23
ENDBRANCH   1  15
BRANCH  11  31
HETATM   31  N3  UNL     1      25.186   5.794  50.911  1.00  0.00     0.090 N 
HETATM   32  H25 UNL     1      25.639   5.825  51.848  1.00  0.00     0.313 HD
HETATM   33  H26 UNL     1      24.166   5.703  50.930  1.00  0.00     0.313 HD
ENDBRANCH  11  31
TORSDOF 6
ENDMDL
MODEL 9
REMARK VINA RESULT:      -7.4      3.464      5.167
REMARK  6 active torsions:
REMARK  status: ('A' for Active; 'I' for Inactive)
REMARK    1  A    between atoms: N1_2  and  C3_4 
REMARK    2  A    between atoms: C3_4  and  C4_5 
REMARK    3  A    between atoms: C5_6  and  N2_7 
REMARK    4  A    between atoms: N2_7  and  C6_8 
REMARK    5  A    between atoms: C11_15  and  C12_16 
REMARK    6  A    between atoms: C20_26  and  N3_27 
ROOT
HETATM    1  C12 UNL     1      24.727   4.559  50.274  1.00  0.00     0.067 C 
HETATM    2  C13 UNL     1      24.010   3.704  50.985  1.00  0.00     0.017 C 
HETATM    3  C14 UNL     1      24.507   2.334  51.293  1.00  0.00     0.068 C 
HETATM    4  C15 UNL     1      23.960   1.921  52.619  1.00  0.00     0.182 C 
HETATM    5  O1  UNL     1      24.533   0.769  53.123  1.00  0.00    -0.374 OA
HETATM    6  C16 UNL     1      25.900   0.763  53.155  1.00  0.00     0.118 C 
HETATM    7  C17 UNL     1      26.406  -0.313  52.229  1.00  0.00     0.069 C 
HETATM    8  C18 UNL     1      27.015  -1.342  53.150  1.00  0.00     0.170 C 
HETATM    9  O2  UNL     1      26.362  -1.134  54.362  1.00  0.00    -0.388 OA
HETATM   10  C19 UNL     1      26.340   0.254  54.510  1.00  0.00     0.208 C 
HETATM   11  C20 UNL     1      26.509   2.088  52.812  1.00  0.00     0.286 C 
HETATM   12  C21 UNL     1      25.989   2.498  51.482  1.00  0.00    -0.003 C 
HETATM   13  C22 UNL     1      26.457   2.991  50.356  1.00  0.00     0.092 C 
HETATM   14  N4  UNL     1      25.976   4.039  49.850  1.00  0.00    -0.246 NA
ENDROOT
BRANCH   1  15
HETATM   15  C11 UNL     1      24.276   5.905  49.953  1.00  0.00     0.021 A 
HETATM   16  C6  UNL     1      25.133   6.950  49.698  1.00  0.00     0.047 A 
HETATM   17  C7  UNL     1      24.733   8.230  49.396  1.00  0.00     0.074 A 
HETATM   18  C8  UNL     1      23.389   8.520  49.335  1.00  0.00     0.140 A 
HETATM   19  F1  UNL     1      22.956   9.769  49.040  1.00  0.00    -0.204 F 
HETATM   20  C9  UNL     1      22.522   7.506  49.582  1.00  0.00     0.073 A 
HETATM   21 CL1  UNL     1      20.802   7.895  49.498  1.00  0.00    -0.081 Cl
HETATM   22  C10 UNL     1      22.936   6.218  49.886  1.00  0.00     0.043 A 
BRANCH  16  23
HETATM   23  N2  UNL     1      26.539   6.764  49.738  1.00  0.00    -0.365 N 
HETATM   24  H11 UNL     1      27.385   6.638  50.305  1.00  0.00     0.165 HD
BRANCH  23  25
HETATM   25  C5  UNL     1      27.307   6.694  48.545  1.00  0.00     0.086 C 
HETATM   26  C4  UNL     1      28.264   7.529  48.179  1.00  0.00     0.020 C 
BRANCH  26  27
HETATM   27  C3  UNL     1      28.776   8.721  48.884  1.00  0.00     0.300 C 
BRANCH  27  28
HETATM   28  N1  UNL     1      30.190   8.904  48.752  1.00  0.00     0.083 N 
HETATM   29  C1  UNL     1      30.985   7.747  49.021  1.00  0.00     0.309 C 
HETATM   30  C2  UNL     1      30.581  10.068  49.517  1.00  0.00     0.309 C 
ENDBRANCH  27  28
ENDBRANCH  26  27
ENDBRANCH  23  25
ENDBRANCH  16  23
ENDBRANCH   1  15
BRANCH  11  31
HETATM   31  N3  UNL     1      27.940   2.006  52.728  1.00  0.00     0.090 N 
HETATM   32  H25 UNL     1      28.266   1.116  52.297  1.00  0.00     0.313 HD
HETATM   33  H26 UNL     1      28.429   2.845  52.405  1.00  0.00     0.313 HD
ENDBRANCH  11  31
TORSDOF 6
ENDMDL
