MODEL 1
REMARK VINA RESULT:      -8.3      0.000      0.000
REMARK  3 active torsions:
REMARK  status: ('A' for Active; 'I' for Inactive)
REMARK    1  A    between atoms: C7_10  and  N2_11 
REMARK    2  A    between atoms: N2_11  and  C8_12 
REMARK    3  A    between atoms: C8_12  and  C9_13 
ROOT
HETATM    1  C1  UNL     1      28.462   2.384  53.349  1.00  0.00     0.037 A 
HETATM    2  S1  UNL     1      29.189   1.217  54.279  1.00  0.00    -0.181 SA
HETATM    3  C2  UNL     1      27.975  -0.065  54.738  1.00  0.00     0.074 A 
HETATM    4  C3  UNL     1      26.760   0.112  54.288  1.00  0.00     0.094 A 
HETATM    5  O1  UNL     1      25.762  -0.736  54.537  1.00  0.00    -0.290 OA
HETATM    6  C4  UNL     1      24.674  -0.298  53.959  1.00  0.00     0.183 A 
HETATM    7  N1  UNL     1      23.483  -0.889  53.993  1.00  0.00    -0.236 NA
HETATM    8  C5  UNL     1      22.446  -0.327  53.353  1.00  0.00     0.122 A 
HETATM    9  C6  UNL     1      22.693   0.853  52.687  1.00  0.00     0.049 A 
HETATM   10  C7  UNL     1      23.934   1.451  52.662  1.00  0.00     0.045 A 
HETATM   11  C15 UNL     1      24.981   0.877  53.313  1.00  0.00     0.057 A 
HETATM   12  C16 UNL     1      26.311   1.164  53.507  1.00  0.00     0.016 A 
HETATM   13  C17 UNL     1      27.033   2.160  53.089  1.00  0.00     0.021 A 
HETATM   14  H2  UNL     1      30.563   1.050  54.461  1.00  0.00     0.100 HD
ENDROOT
BRANCH  10  15
HETATM   15  N2  UNL     1      24.047   2.665  51.940  1.00  0.00    -0.385 N 
HETATM   16  H6  UNL     1      24.022   3.680  52.074  1.00  0.00     0.160 HD
BRANCH  15  17
HETATM   17  C8  UNL     1      24.274   2.616  50.536  1.00  0.00     0.158 C 
BRANCH  17  18
HETATM   18  C9  UNL     1      25.137   3.594  49.911  1.00  0.00    -0.041 A 
HETATM   19  C10 UNL     1      24.653   4.840  49.567  1.00  0.00     0.009 A 
HETATM   20  C11 UNL     1      25.415   5.820  48.970  1.00  0.00     0.001 A 
HETATM   21  C12 UNL     1      26.743   5.577  48.685  1.00  0.00     0.000 A 
HETATM   22  C13 UNL     1      27.258   4.338  49.017  1.00  0.00     0.001 A 
HETATM   23  C14 UNL     1      26.477   3.356  49.620  1.00  0.00     0.009 A 
ENDBRANCH  17  18
ENDBRANCH  15  17
ENDBRANCH  10  15
TORSDOF 3
ENDMDL
MODEL 2
REMARK VINA RESULT:      -8.1      2.233      3.732
REMARK  3 active torsions:
REMARK  status: ('A' for Active; 'I' for Inactive)
REMARK    1  A    between atoms: C7_10  and  N2_11 
REMARK    2  A    between atoms: N2_11  and  C8_12 
REMARK    3  A    between atoms: C8_12  and  C9_13 
ROOT
HETATM    1  C1  UNL     1      21.902  -0.451  53.078  1.00  0.00     0.037 A 
HETATM    2  S1  UNL     1      21.647  -1.290  54.488  1.00  0.00    -0.181 SA
HETATM    3  C2  UNL     1      23.202  -1.413  55.433  1.00  0.00     0.074 A 
HETATM    4  C3  UNL     1      24.248  -0.847  54.888  1.00  0.00     0.094 A 
HETATM    5  O1  UNL     1      25.454  -0.850  55.456  1.00  0.00    -0.290 OA
HETATM    6  C4  UNL     1      26.293  -0.211  54.682  1.00  0.00     0.183 A 
HETATM    7  N1  UNL     1      27.585  -0.016  54.929  1.00  0.00    -0.236 NA
HETATM    8  C5  UNL     1      28.334   0.661  54.045  1.00  0.00     0.122 A 
HETATM    9  C6  UNL     1      27.696   1.120  52.914  1.00  0.00     0.049 A 
HETATM   10  C7  UNL     1      26.355   0.909  52.674  1.00  0.00     0.045 A 
HETATM   11  C15 UNL     1      25.602   0.222  53.574  1.00  0.00     0.057 A 
HETATM   12  C16 UNL     1      24.289  -0.172  53.680  1.00  0.00     0.016 A 
HETATM   13  C17 UNL     1      23.282   0.011  52.878  1.00  0.00     0.021 A 
HETATM   14  H2  UNL     1      20.406  -1.613  55.038  1.00  0.00     0.100 HD
ENDROOT
BRANCH  10  15
HETATM   15  N2  UNL     1      25.828   1.435  51.469  1.00  0.00    -0.385 N 
HETATM   16  H6  UNL     1      25.713   1.202  50.479  1.00  0.00     0.160 HD
BRANCH  15  17
HETATM   17  C8  UNL     1      25.216   2.719  51.484  1.00  0.00     0.158 C 
BRANCH  17  18
HETATM   18  C9  UNL     1      25.650   3.735  50.551  1.00  0.00    -0.041 A 
HETATM   19  C10 UNL     1      26.761   3.533  49.758  1.00  0.00     0.009 A 
HETATM   20  C11 UNL     1      27.232   4.454  48.848  1.00  0.00     0.001 A 
HETATM   21  C12 UNL     1      26.579   5.661  48.696  1.00  0.00     0.000 A 
HETATM   22  C13 UNL     1      25.463   5.895  49.477  1.00  0.00     0.001 A 
HETATM   23  C14 UNL     1      24.997   4.955  50.392  1.00  0.00     0.009 A 
ENDBRANCH  17  18
ENDBRANCH  15  17
ENDBRANCH  10  15
TORSDOF 3
ENDMDL
MODEL 3
REMARK VINA RESULT:      -8.1      2.150      3.690
REMARK  3 active torsions:
REMARK  status: ('A' for Active; 'I' for Inactive)
REMARK    1  A    between atoms: C7_10  and  N2_11 
REMARK    2  A    between atoms: N2_11  and  C8_12 
REMARK    3  A    between atoms: C8_12  and  C9_13 
ROOT
HETATM    1  C1  UNL     1      22.416   1.108  52.767  1.00  0.00     0.037 A 
HETATM    2  S1  UNL     1      21.929  -0.229  53.622  1.00  0.00    -0.181 SA
HETATM    3  C2  UNL     1      23.373  -1.057  54.368  1.00  0.00     0.074 A 
HETATM    4  C3  UNL     1      24.533  -0.503  54.132  1.00  0.00     0.094 A 
HETATM    5  O1  UNL     1      25.681  -0.988  54.607  1.00  0.00    -0.290 OA
HETATM    6  C4  UNL     1      26.666  -0.226  54.207  1.00  0.00     0.183 A 
HETATM    7  N1  UNL     1      27.953  -0.406  54.491  1.00  0.00    -0.236 NA
HETATM    8  C5  UNL     1      28.863   0.456  54.013  1.00  0.00     0.122 A 
HETATM    9  C6  UNL     1      28.390   1.495  53.243  1.00  0.00     0.049 A 
HETATM   10  C7  UNL     1      27.053   1.666  52.959  1.00  0.00     0.045 A 
HETATM   11  C15 UNL     1      26.135   0.789  53.447  1.00  0.00     0.057 A 
HETATM   12  C16 UNL     1      24.770   0.637  53.381  1.00  0.00     0.016 A 
HETATM   13  C17 UNL     1      23.865   1.351  52.780  1.00  0.00     0.021 A 
HETATM   14  H2  UNL     1      20.616  -0.540  53.982  1.00  0.00     0.100 HD
ENDROOT
BRANCH  10  15
HETATM   15  N2  UNL     1      26.705   2.778  52.153  1.00  0.00    -0.385 N 
HETATM   16  H6  UNL     1      26.529   3.785  52.214  1.00  0.00     0.160 HD
BRANCH  15  17
HETATM   17  C8  UNL     1      26.496   2.584  50.759  1.00  0.00     0.158 C 
BRANCH  17  18
HETATM   18  C9  UNL     1      25.656   3.501  50.021  1.00  0.00    -0.041 A 
HETATM   19  C10 UNL     1      26.134   4.738  49.638  1.00  0.00     0.009 A 
HETATM   20  C11 UNL     1      25.393   5.662  48.935  1.00  0.00     0.001 A 
HETATM   21  C12 UNL     1      24.093   5.367  48.575  1.00  0.00     0.000 A 
HETATM   22  C13 UNL     1      23.585   4.136  48.944  1.00  0.00     0.001 A 
HETATM   23  C14 UNL     1      24.345   3.211  49.655  1.00  0.00     0.009 A 
ENDBRANCH  17  18
ENDBRANCH  15  17
ENDBRANCH  10  15
TORSDOF 3
ENDMDL
MODEL 4
REMARK VINA RESULT:      -8.0      4.052      5.931
REMARK  3 active torsions:
REMARK  status: ('A' for Active; 'I' for Inactive)
REMARK    1  A    between atoms: C7_10  and  N2_11 
REMARK    2  A    between atoms: N2_11  and  C8_12 
REMARK    3  A    between atoms: C8_12  and  C9_13 
ROOT
HETATM    1  C1  UNL     1      21.302   1.514  50.243  1.00  0.00     0.037 A 
HETATM    2  S1  UNL     1      19.699   1.145  50.466  1.00  0.00    -0.181 SA
HETATM    3  C2  UNL     1      19.485   0.172  51.994  1.00  0.00     0.074 A 
HETATM    4  C3  UNL     1      20.578  -0.083  52.665  1.00  0.00     0.094 A 
HETATM    5  O1  UNL     1      20.586  -0.782  53.800  1.00  0.00    -0.290 OA
HETATM    6  C4  UNL     1      21.816  -0.873  54.238  1.00  0.00     0.183 A 
HETATM    7  N1  UNL     1      22.203  -1.499  55.345  1.00  0.00    -0.236 NA
HETATM    8  C5  UNL     1      23.503  -1.515  55.677  1.00  0.00     0.122 A 
HETATM    9  C6  UNL     1      24.369  -0.866  54.826  1.00  0.00     0.049 A 
HETATM   10  C7  UNL     1      23.950  -0.222  53.682  1.00  0.00     0.045 A 
HETATM   11  C15 UNL     1      22.631  -0.208  53.351  1.00  0.00     0.057 A 
HETATM   12  C16 UNL     1      21.865   0.307  52.333  1.00  0.00     0.016 A 
HETATM   13  C17 UNL     1      22.201   1.001  51.287  1.00  0.00     0.021 A 
HETATM   14  H2  UNL     1      18.624   1.713  49.779  1.00  0.00     0.100 HD
ENDROOT
BRANCH  10  15
HETATM   15  N2  UNL     1      24.949   0.405  52.896  1.00  0.00    -0.385 N 
HETATM   16  H6  UNL     1      25.246   1.330  52.572  1.00  0.00     0.160 HD
BRANCH  15  17
HETATM   17  C8  UNL     1      25.950  -0.397  52.282  1.00  0.00     0.158 C 
BRANCH  17  18
HETATM   18  C9  UNL     1      27.308  -0.360  52.780  1.00  0.00    -0.041 A 
HETATM   19  C10 UNL     1      28.041  -1.523  52.910  1.00  0.00     0.009 A 
HETATM   20  C11 UNL     1      29.336  -1.565  53.375  1.00  0.00     0.001 A 
HETATM   21  C12 UNL     1      29.970  -0.395  53.744  1.00  0.00     0.000 A 
HETATM   22  C13 UNL     1      29.263   0.787  53.627  1.00  0.00     0.001 A 
HETATM   23  C14 UNL     1      27.954   0.815  53.154  1.00  0.00     0.009 A 
ENDBRANCH  17  18
ENDBRANCH  15  17
ENDBRANCH  10  15
TORSDOF 3
ENDMDL
MODEL 5
REMARK VINA RESULT:      -7.7      1.603      2.293
REMARK  3 active torsions:
REMARK  status: ('A' for Active; 'I' for Inactive)
REMARK    1  A    between atoms: C7_10  and  N2_11 
REMARK    2  A    between atoms: N2_11  and  C8_12 
REMARK    3  A    between atoms: C8_12  and  C9_13 
ROOT
HETATM    1  C1  UNL     1      27.088   1.579  52.308  1.00  0.00     0.037 A 
HETATM    2  S1  UNL     1      28.168   1.172  53.502  1.00  0.00    -0.181 SA
HETATM    3  C2  UNL     1      27.347   0.145  54.767  1.00  0.00     0.074 A 
HETATM    4  C3  UNL     1      26.082  -0.111  54.560  1.00  0.00     0.094 A 
HETATM    5  O1  UNL     1      25.344  -0.847  55.392  1.00  0.00    -0.290 OA
HETATM    6  C4  UNL     1      24.125  -0.930  54.925  1.00  0.00     0.183 A 
HETATM    7  N1  UNL     1      23.118  -1.586  55.492  1.00  0.00    -0.236 NA
HETATM    8  C5  UNL     1      21.912  -1.589  54.902  1.00  0.00     0.122 A 
HETATM    9  C6  UNL     1      21.800  -0.895  53.718  1.00  0.00     0.049 A 
HETATM   10  C7  UNL     1      22.856  -0.220  53.144  1.00  0.00     0.045 A 
HETATM   11  C15 UNL     1      24.075  -0.222  53.747  1.00  0.00     0.057 A 
HETATM   12  C16 UNL     1      25.314   0.314  53.489  1.00  0.00     0.016 A 
HETATM   13  C17 UNL     1      25.731   1.049  52.501  1.00  0.00     0.021 A 
HETATM   14  H2  UNL     1      29.554   1.323  53.441  1.00  0.00     0.100 HD
ENDROOT
BRANCH  10  15
HETATM   15  N2  UNL     1      22.599   0.454  51.924  1.00  0.00    -0.385 N 
HETATM   16  H6  UNL     1      22.644   0.316  50.910  1.00  0.00     0.160 HD
BRANCH  15  17
HETATM   17  C8  UNL     1      22.107   1.788  51.961  1.00  0.00     0.158 C 
BRANCH  17  18
HETATM   18  C9  UNL     1      22.870   2.855  51.352  1.00  0.00    -0.041 A 
HETATM   19  C10 UNL     1      23.434   2.693  50.103  1.00  0.00     0.009 A 
HETATM   20  C11 UNL     1      24.171   3.663  49.462  1.00  0.00     0.001 A 
HETATM   21  C12 UNL     1      24.380   4.882  50.076  1.00  0.00     0.000 A 
HETATM   22  C13 UNL     1      23.829   5.076  51.329  1.00  0.00     0.001 A 
HETATM   23  C14 UNL     1      23.085   4.087  51.966  1.00  0.00     0.009 A 
ENDBRANCH  17  18
ENDBRANCH  15  17
ENDBRANCH  10  15
TORSDOF 3
ENDMDL
MODEL 6
REMARK VINA RESULT:      -7.6      1.624      2.330
REMARK  3 active torsions:
REMARK  status: ('A' for Active; 'I' for Inactive)
REMARK    1  A    between atoms: C7_10  and  N2_11 
REMARK    2  A    between atoms: N2_11  and  C8_12 
REMARK    3  A    between atoms: C8_12  and  C9_13 
ROOT
HETATM    1  C1  UNL     1      27.584   1.421  52.943  1.00  0.00     0.037 A 
HETATM    2  S1  UNL     1      27.448  -0.193  53.307  1.00  0.00    -0.181 SA
HETATM    3  C2  UNL     1      25.691  -0.682  53.336  1.00  0.00     0.074 A 
HETATM    4  C3  UNL     1      24.830   0.266  53.077  1.00  0.00     0.094 A 
HETATM    5  O1  UNL     1      23.512   0.067  53.059  1.00  0.00    -0.290 OA
HETATM    6  C4  UNL     1      22.911   1.192  52.771  1.00  0.00     0.183 A 
HETATM    7  N1  UNL     1      21.598   1.369  52.667  1.00  0.00    -0.236 NA
HETATM    8  C5  UNL     1      21.115   2.584  52.364  1.00  0.00     0.122 A 
HETATM    9  C6  UNL     1      22.037   3.590  52.177  1.00  0.00     0.049 A 
HETATM   10  C7  UNL     1      23.395   3.388  52.289  1.00  0.00     0.045 A 
HETATM   11  C15 UNL     1      23.879   2.155  52.596  1.00  0.00     0.057 A 
HETATM   12  C16 UNL     1      25.117   1.590  52.786  1.00  0.00     0.016 A 
HETATM   13  C17 UNL     1      26.306   2.112  52.723  1.00  0.00     0.021 A 
HETATM   14  H2  UNL     1      28.488  -1.124  53.311  1.00  0.00     0.100 HD
ENDROOT
BRANCH  10  15
HETATM   15  N2  UNL     1      24.231   4.512  52.072  1.00  0.00    -0.385 N 
HETATM   16  H6  UNL     1      24.944   5.079  52.539  1.00  0.00     0.160 HD
BRANCH  15  17
HETATM   17  C8  UNL     1      24.168   5.190  50.823  1.00  0.00     0.158 C 
BRANCH  17  18
HETATM   18  C9  UNL     1      25.360   5.324  50.015  1.00  0.00    -0.041 A 
HETATM   19  C10 UNL     1      26.126   4.219  49.702  1.00  0.00     0.009 A 
HETATM   20  C11 UNL     1      27.271   4.271  48.939  1.00  0.00     0.001 A 
HETATM   21  C12 UNL     1      27.709   5.482  48.442  1.00  0.00     0.000 A 
HETATM   22  C13 UNL     1      26.964   6.609  48.738  1.00  0.00     0.001 A 
HETATM   23  C14 UNL     1      25.808   6.542  49.510  1.00  0.00     0.009 A 
ENDBRANCH  17  18
ENDBRANCH  15  17
ENDBRANCH  10  15
TORSDOF 3
ENDMDL
MODEL 7
REMARK VINA RESULT:      -7.5      2.706      4.140
REMARK  3 active torsions:
REMARK  status: ('A' for Active; 'I' for Inactive)
REMARK    1  A    between atoms: C7_10  and  N2_11 
REMARK    2  A    between atoms: N2_11  and  C8_12 
REMARK    3  A    between atoms: C8_12  and  C9_13 
ROOT
HETATM    1  C1  UNL     1      21.820   4.537  51.360  1.00  0.00     0.037 A 
HETATM    2  S1  UNL     1      20.575   3.619  51.962  1.00  0.00    -0.181 SA
HETATM    3  C2  UNL     1      21.207   2.008  52.541  1.00  0.00     0.074 A 
HETATM    4  C3  UNL     1      22.493   1.818  52.404  1.00  0.00     0.094 A 
HETATM    5  O1  UNL     1      23.105   0.694  52.779  1.00  0.00    -0.290 OA
HETATM    6  C4  UNL     1      24.384   0.796  52.521  1.00  0.00     0.183 A 
HETATM    7  N1  UNL     1      25.302  -0.134  52.762  1.00  0.00    -0.236 NA
HETATM    8  C5  UNL     1      26.585   0.102  52.444  1.00  0.00     0.122 A 
HETATM    9  C6  UNL     1      26.868   1.325  51.877  1.00  0.00     0.049 A 
HETATM   10  C7  UNL     1      25.902   2.277  51.633  1.00  0.00     0.045 A 
HETATM   11  C15 UNL     1      24.605   2.031  51.958  1.00  0.00     0.057 A 
HETATM   12  C16 UNL     1      23.411   2.708  51.871  1.00  0.00     0.016 A 
HETATM   13  C17 UNL     1      23.140   3.893  51.412  1.00  0.00     0.021 A 
HETATM   14  H2  UNL     1      19.291   4.074  52.264  1.00  0.00     0.100 HD
ENDROOT
BRANCH  10  15
HETATM   15  N2  UNL     1      26.333   3.491  51.042  1.00  0.00    -0.385 N 
HETATM   16  H6  UNL     1      26.638   4.436  51.291  1.00  0.00     0.160 HD
BRANCH  15  17
HETATM   17  C8  UNL     1      26.423   3.576  49.625  1.00  0.00     0.158 C 
BRANCH  17  18
HETATM   18  C9  UNL     1      26.826   4.818  49.002  1.00  0.00    -0.041 A 
HETATM   19  C10 UNL     1      25.915   5.836  48.808  1.00  0.00     0.009 A 
HETATM   20  C11 UNL     1      26.226   7.043  48.223  1.00  0.00     0.001 A 
HETATM   21  C12 UNL     1      27.516   7.283  47.793  1.00  0.00     0.000 A 
HETATM   22  C13 UNL     1      28.453   6.282  47.972  1.00  0.00     0.001 A 
HETATM   23  C14 UNL     1      28.124   5.067  48.565  1.00  0.00     0.009 A 
ENDBRANCH  17  18
ENDBRANCH  15  17
ENDBRANCH  10  15
TORSDOF 3
ENDMDL
MODEL 8
REMARK VINA RESULT:      -7.5      1.895      5.571
REMARK  3 active torsions:
REMARK  status: ('A' for Active; 'I' for Inactive)
REMARK    1  A    between atoms: C7_10  and  N2_11 
REMARK    2  A    between atoms: N2_11  and  C8_12 
REMARK    3  A    between atoms: C8_12  and  C9_13 
ROOT
HETATM    1  C1  UNL     1      26.122   0.221  54.683  1.00  0.00     0.037 A 
HETATM    2  S1  UNL     1      27.779   0.309  54.621  1.00  0.00    -0.181 SA
HETATM    3  C2  UNL     1      28.299   1.362  53.225  1.00  0.00     0.074 A 
HETATM    4  C3  UNL     1      27.335   1.875  52.507  1.00  0.00     0.094 A 
HETATM    5  O1  UNL     1      27.553   2.665  51.455  1.00  0.00    -0.290 OA
HETATM    6  C4  UNL     1      26.404   3.021  50.941  1.00  0.00     0.183 A 
HETATM    7  N1  UNL     1      26.236   3.807  49.883  1.00  0.00    -0.236 NA
HETATM    8  C5  UNL     1      24.995   4.092  49.459  1.00  0.00     0.122 A 
HETATM    9  C6  UNL     1      23.954   3.537  50.170  1.00  0.00     0.049 A 
HETATM   10  C7  UNL     1      24.147   2.724  51.265  1.00  0.00     0.045 A 
HETATM   11  C15 UNL     1      25.407   2.439  51.689  1.00  0.00     0.057 A 
HETATM   12  C16 UNL     1      25.974   1.698  52.699  1.00  0.00     0.016 A 
HETATM   13  C17 UNL     1      25.427   0.984  53.637  1.00  0.00     0.021 A 
HETATM   14  H2  UNL     1      28.661  -0.101  55.623  1.00  0.00     0.100 HD
ENDROOT
BRANCH  10  15
HETATM   15  N2  UNL     1      22.986   2.218  51.902  1.00  0.00    -0.385 N 
HETATM   16  H6  UNL     1      22.334   2.433  52.661  1.00  0.00     0.160 HD
BRANCH  15  17
HETATM   17  C8  UNL     1      22.414   1.003  51.434  1.00  0.00     0.158 C 
BRANCH  17  18
HETATM   18  C9  UNL     1      21.699   0.142  52.351  1.00  0.00    -0.041 A 
HETATM   19  C10 UNL     1      22.379  -0.767  53.136  1.00  0.00     0.009 A 
HETATM   20  C11 UNL     1      21.766  -1.617  54.030  1.00  0.00     0.001 A 
HETATM   21  C12 UNL     1      20.394  -1.584  54.176  1.00  0.00     0.000 A 
HETATM   22  C13 UNL     1      19.684  -0.684  53.403  1.00  0.00     0.001 A 
HETATM   23  C14 UNL     1      20.316   0.169  52.503  1.00  0.00     0.009 A 
ENDBRANCH  17  18
ENDBRANCH  15  17
ENDBRANCH  10  15
TORSDOF 3
ENDMDL
MODEL 9
REMARK VINA RESULT:      -7.5      3.002      5.696
REMARK  3 active torsions:
REMARK  status: ('A' for Active; 'I' for Inactive)
REMARK    1  A    between atoms: C7_10  and  N2_11 
REMARK    2  A    between atoms: N2_11  and  C8_12 
REMARK    3  A    between atoms: C8_12  and  C9_13 
ROOT
HETATM    1  C1  UNL     1      22.792  -1.230  53.923  1.00  0.00     0.037 A 
HETATM    2  S1  UNL     1      21.199  -1.041  54.352  1.00  0.00    -0.181 SA
HETATM    3  C2  UNL     1      20.565   0.549  53.723  1.00  0.00     0.074 A 
HETATM    4  C3  UNL     1      21.419   1.279  53.054  1.00  0.00     0.094 A 
HETATM    5  O1  UNL     1      21.108   2.465  52.530  1.00  0.00    -0.290 OA
HETATM    6  C4  UNL     1      22.157   2.954  51.922  1.00  0.00     0.183 A 
HETATM    7  N1  UNL     1      22.215   4.120  51.286  1.00  0.00    -0.236 NA
HETATM    8  C5  UNL     1      23.363   4.501  50.704  1.00  0.00     0.122 A 
HETATM    9  C6  UNL     1      24.428   3.635  50.807  1.00  0.00     0.049 A 
HETATM   10  C7  UNL     1      24.351   2.430  51.470  1.00  0.00     0.045 A 
HETATM   11  C15 UNL     1      23.185   2.050  52.058  1.00  0.00     0.057 A 
HETATM   12  C16 UNL     1      22.740   0.967  52.779  1.00  0.00     0.016 A 
HETATM   13  C17 UNL     1      23.356  -0.117  53.148  1.00  0.00     0.021 A 
HETATM   14  H2  UNL     1      20.362  -2.037  54.858  1.00  0.00     0.100 HD
ENDROOT
BRANCH  10  15
HETATM   15  N2  UNL     1      25.525   1.637  51.501  1.00  0.00    -0.385 N 
HETATM   16  H6  UNL     1      25.985   0.872  51.000  1.00  0.00     0.160 HD
BRANCH  15  17
HETATM   17  C8  UNL     1      26.489   1.869  52.521  1.00  0.00     0.158 C 
BRANCH  17  18
HETATM   18  C9  UNL     1      27.439   0.833  52.863  1.00  0.00    -0.041 A 
HETATM   19  C10 UNL     1      28.685   1.157  53.359  1.00  0.00     0.009 A 
HETATM   20  C11 UNL     1      29.638   0.226  53.707  1.00  0.00     0.001 A 
HETATM   21  C12 UNL     1      29.366  -1.120  53.563  1.00  0.00     0.000 A 
HETATM   22  C13 UNL     1      28.126  -1.478  53.068  1.00  0.00     0.001 A 
HETATM   23  C14 UNL     1      27.171  -0.526  52.721  1.00  0.00     0.009 A 
ENDBRANCH  17  18
ENDBRANCH  15  17
ENDBRANCH  10  15
TORSDOF 3
ENDMDL
