MODEL 1
REMARK VINA RESULT:      -8.2      0.000      0.000
REMARK  6 active torsions:
REMARK  status: ('A' for Active; 'I' for Inactive)
REMARK    1  A    between atoms: C12_13  and  C13_14 
REMARK    2  A    between atoms: C12_13  and  C14_16 
REMARK    3  A    between atoms: C13_14  and  O2_15 
REMARK    4  A    between atoms: C14_16  and  C15_17 
REMARK    5  A    between atoms: C15_17  and  O3_18 
REMARK    6  A    between atoms: O3_18  and  C16_19 
ROOT
HETATM    1  C1  UNL     1      21.349  -1.975  54.343  1.00  0.00     0.018 C 
HETATM    2  C2  UNL     1      22.226  -1.211  53.923  1.00  0.00    -0.076 C 
HETATM    3  C3  UNL     1      23.281  -0.324  53.429  1.00  0.00     0.034 C 
HETATM    4  C4  UNL     1      24.371  -0.373  54.140  1.00  0.00     0.022 C 
HETATM    5  C5  UNL     1      25.599   0.329  53.978  1.00  0.00    -0.002 C 
HETATM    6  C6  UNL     1      26.761   0.953  53.876  1.00  0.00    -0.025 C 
HETATM    7  C7  UNL     1      27.399   1.949  52.955  1.00  0.00     0.053 C 
HETATM    8  C8  UNL     1      26.484   2.268  51.825  1.00  0.00     0.171 C 
HETATM    9  O1  UNL     1      27.016   3.267  50.946  1.00  0.00    -0.391 OA
HETATM   10  C9  UNL     1      26.103   3.427  49.944  1.00  0.00     0.172 C 
HETATM   11  C10 UNL     1      26.248   4.470  48.927  1.00  0.00     0.061 C 
HETATM   12  C11 UNL     1      26.228   5.878  49.400  1.00  0.00    -0.066 C 
HETATM   13  C12 UNL     1      27.023   6.916  49.115  1.00  0.00    -0.052 C 
HETATM   14  C18 UNL     1      25.092   5.751  50.292  1.00  0.00     0.105 C 
HETATM   15  C19 UNL     1      24.197   6.096  51.150  1.00  0.00     0.098 C 
HETATM   16  N1  UNL     1      23.146   5.432  51.788  1.00  0.00    -0.282 NA
HETATM   17  C20 UNL     1      22.762   4.225  51.748  1.00  0.00     0.227 C 
HETATM   18  N2  UNL     1      22.639   2.889  51.464  1.00  0.00    -0.238 NA
HETATM   19  C21 UNL     1      22.747   2.095  50.513  1.00  0.00     0.198 C 
HETATM   20  N3  UNL     1      22.410   1.097  51.365  1.00  0.00    -0.381 NA
HETATM   21  C22 UNL     1      22.724   0.401  52.305  1.00  0.00     0.305 C 
ENDROOT
BRANCH  13  22
HETATM   22  C13 UNL     1      28.152   6.731  48.185  1.00  0.00     0.198 C 
BRANCH  22  23
HETATM   23  O2  UNL     1      29.357   6.387  48.795  1.00  0.00    -0.397 OA
HETATM   24  H15 UNL     1      29.327   6.319  49.771  1.00  0.00     0.209 HD
ENDBRANCH  22  23
ENDBRANCH  13  22
BRANCH  13  25
HETATM   25  C14 UNL     1      26.860   8.273  49.691  1.00  0.00     0.063 C 
BRANCH  25  26
HETATM   26  C15 UNL     1      27.430   9.349  48.778  1.00  0.00     0.172 C 
BRANCH  26  27
HETATM   27  O3  UNL     1      28.439  10.098  49.298  1.00  0.00    -0.391 OA
BRANCH  27  28
HETATM   28  C16 UNL     1      29.608  10.202  48.622  1.00  0.00     0.163 C 
HETATM   29  C17 UNL     1      30.724   9.646  49.490  1.00  0.00     0.033 C 
ENDBRANCH  27  28
ENDBRANCH  26  27
ENDBRANCH  25  26
ENDBRANCH  13  25
TORSDOF 6
ENDMDL
MODEL 2
REMARK VINA RESULT:      -7.7      4.690      7.638
REMARK  6 active torsions:
REMARK  status: ('A' for Active; 'I' for Inactive)
REMARK    1  A    between atoms: C12_13  and  C13_14 
REMARK    2  A    between atoms: C12_13  and  C14_16 
REMARK    3  A    between atoms: C13_14  and  O2_15 
REMARK    4  A    between atoms: C14_16  and  C15_17 
REMARK    5  A    between atoms: C15_17  and  O3_18 
REMARK    6  A    between atoms: O3_18  and  C16_19 
ROOT
HETATM    1  C1  UNL     1      15.667   4.040  48.924  1.00  0.00     0.018 C 
HETATM    2  C2  UNL     1      16.870   3.785  49.053  1.00  0.00    -0.076 C 
HETATM    3  C3  UNL     1      18.299   3.497  49.185  1.00  0.00     0.034 C 
HETATM    4  C4  UNL     1      18.858   3.134  48.066  1.00  0.00     0.022 C 
HETATM    5  C5  UNL     1      20.210   2.779  47.794  1.00  0.00    -0.002 C 
HETATM    6  C6  UNL     1      21.451   2.441  47.484  1.00  0.00    -0.025 C 
HETATM    7  C7  UNL     1      22.768   2.323  48.188  1.00  0.00     0.053 C 
HETATM    8  C8  UNL     1      22.640   2.764  49.603  1.00  0.00     0.171 C 
HETATM    9  O1  UNL     1      23.857   2.612  50.345  1.00  0.00    -0.391 OA
HETATM   10  C9  UNL     1      23.609   3.091  51.599  1.00  0.00     0.172 C 
HETATM   11  C10 UNL     1      24.591   2.972  52.679  1.00  0.00     0.061 C 
HETATM   12  C11 UNL     1      24.970   1.598  53.094  1.00  0.00    -0.066 C 
HETATM   13  C12 UNL     1      26.166   1.043  53.324  1.00  0.00    -0.052 C 
HETATM   14  C18 UNL     1      23.629   1.047  53.138  1.00  0.00     0.105 C 
HETATM   15  C19 UNL     1      22.696   0.175  53.296  1.00  0.00     0.098 C 
HETATM   16  N1  UNL     1      21.303   0.202  53.180  1.00  0.00    -0.282 NA
HETATM   17  C20 UNL     1      20.502   1.119  52.830  1.00  0.00     0.227 C 
HETATM   18  N2  UNL     1      19.959   2.307  52.415  1.00  0.00    -0.238 NA
HETATM   19  C21 UNL     1      20.109   3.535  52.556  1.00  0.00     0.198 C 
HETATM   20  N3  UNL     1      19.061   3.716  51.717  1.00  0.00    -0.381 NA
HETATM   21  C22 UNL     1      18.627   3.648  50.588  1.00  0.00     0.305 C 
ENDROOT
BRANCH  13  22
HETATM   22  C13 UNL     1      27.386   1.854  53.153  1.00  0.00     0.198 C 
BRANCH  22  23
HETATM   23  O2  UNL     1      27.639   2.748  54.193  1.00  0.00    -0.397 OA
HETATM   24  H15 UNL     1      28.585   2.875  54.413  1.00  0.00     0.209 HD
ENDBRANCH  22  23
ENDBRANCH  13  22
BRANCH  13  25
HETATM   25  C14 UNL     1      26.366  -0.368  53.733  1.00  0.00     0.063 C 
BRANCH  25  26
HETATM   26  C15 UNL     1      27.162  -1.152  52.699  1.00  0.00     0.172 C 
BRANCH  26  27
HETATM   27  O3  UNL     1      27.728  -2.308  53.135  1.00  0.00    -0.391 OA
BRANCH  27  28
HETATM   28  C16 UNL     1      29.078  -2.425  53.152  1.00  0.00     0.163 C 
HETATM   29  C17 UNL     1      29.677  -1.098  53.585  1.00  0.00     0.033 C 
ENDBRANCH  27  28
ENDBRANCH  26  27
ENDBRANCH  25  26
ENDBRANCH  13  25
TORSDOF 6
ENDMDL
MODEL 3
REMARK VINA RESULT:      -7.6      1.966      2.638
REMARK  6 active torsions:
REMARK  status: ('A' for Active; 'I' for Inactive)
REMARK    1  A    between atoms: C12_13  and  C13_14 
REMARK    2  A    between atoms: C12_13  and  C14_16 
REMARK    3  A    between atoms: C13_14  and  O2_15 
REMARK    4  A    between atoms: C14_16  and  C15_17 
REMARK    5  A    between atoms: C15_17  and  O3_18 
REMARK    6  A    between atoms: O3_18  and  C16_19 
ROOT
HETATM    1  C1  UNL     1      17.766  -1.449  53.393  1.00  0.00     0.018 C 
HETATM    2  C2  UNL     1      18.840  -0.900  53.122  1.00  0.00    -0.076 C 
HETATM    3  C3  UNL     1      20.123  -0.270  52.803  1.00  0.00     0.034 C 
HETATM    4  C4  UNL     1      21.087  -0.629  53.603  1.00  0.00     0.022 C 
HETATM    5  C5  UNL     1      22.456  -0.242  53.613  1.00  0.00    -0.002 C 
HETATM    6  C6  UNL     1      23.738   0.083  53.670  1.00  0.00    -0.025 C 
HETATM    7  C7  UNL     1      24.690   0.947  52.900  1.00  0.00     0.053 C 
HETATM    8  C8  UNL     1      24.006   1.549  51.724  1.00  0.00     0.171 C 
HETATM    9  O1  UNL     1      24.853   2.439  50.985  1.00  0.00    -0.391 OA
HETATM   10  C9  UNL     1      24.118   2.880  49.923  1.00  0.00     0.172 C 
HETATM   11  C10 UNL     1      24.617   3.916  49.016  1.00  0.00     0.061 C 
HETATM   12  C11 UNL     1      24.881   5.253  49.604  1.00  0.00    -0.066 C 
HETATM   13  C12 UNL     1      25.926   6.080  49.483  1.00  0.00    -0.052 C 
HETATM   14  C18 UNL     1      23.658   5.355  50.376  1.00  0.00     0.105 C 
HETATM   15  C19 UNL     1      22.784   5.856  51.176  1.00  0.00     0.098 C 
HETATM   16  N1  UNL     1      21.542   5.432  51.658  1.00  0.00    -0.282 NA
HETATM   17  C20 UNL     1      20.888   4.361  51.479  1.00  0.00     0.227 C 
HETATM   18  N2  UNL     1      20.482   3.117  51.072  1.00  0.00    -0.238 NA
HETATM   19  C21 UNL     1      20.501   2.380  50.069  1.00  0.00     0.198 C 
HETATM   20  N3  UNL     1      19.845   1.445  50.798  1.00  0.00    -0.381 NA
HETATM   21  C22 UNL     1      19.880   0.637  51.700  1.00  0.00     0.305 C 
ENDROOT
BRANCH  13  22
HETATM   22  C13 UNL     1      27.073   5.681  48.646  1.00  0.00     0.198 C 
BRANCH  22  23
HETATM   23  O2  UNL     1      28.045   4.934  49.309  1.00  0.00    -0.397 OA
HETATM   24  H15 UNL     1      27.900   4.821  50.271  1.00  0.00     0.209 HD
ENDBRANCH  22  23
ENDBRANCH  13  22
BRANCH  13  25
HETATM   25  C14 UNL     1      26.031   7.397  50.157  1.00  0.00     0.063 C 
BRANCH  25  26
HETATM   26  C15 UNL     1      26.985   8.333  49.428  1.00  0.00     0.172 C 
BRANCH  26  27
HETATM   27  O3  UNL     1      26.404   9.328  48.705  1.00  0.00    -0.391 OA
BRANCH  27  28
HETATM   28  C16 UNL     1      26.716   9.467  47.394  1.00  0.00     0.163 C 
HETATM   29  C17 UNL     1      25.854   8.513  46.583  1.00  0.00     0.033 C 
ENDBRANCH  27  28
ENDBRANCH  26  27
ENDBRANCH  25  26
ENDBRANCH  13  25
TORSDOF 6
ENDMDL
MODEL 4
REMARK VINA RESULT:      -7.5      2.119      3.717
REMARK  6 active torsions:
REMARK  status: ('A' for Active; 'I' for Inactive)
REMARK    1  A    between atoms: C12_13  and  C13_14 
REMARK    2  A    between atoms: C12_13  and  C14_16 
REMARK    3  A    between atoms: C13_14  and  O2_15 
REMARK    4  A    between atoms: C14_16  and  C15_17 
REMARK    5  A    between atoms: C15_17  and  O3_18 
REMARK    6  A    between atoms: O3_18  and  C16_19 
ROOT
HETATM    1  C1  UNL     1      21.659  -1.523  53.905  1.00  0.00     0.018 C 
HETATM    2  C2  UNL     1      21.835  -0.641  53.056  1.00  0.00    -0.076 C 
HETATM    3  C3  UNL     1      22.019   0.401  52.044  1.00  0.00     0.034 C 
HETATM    4  C4  UNL     1      21.450   0.122  50.906  1.00  0.00     0.022 C 
HETATM    5  C5  UNL     1      21.404   0.876  49.700  1.00  0.00    -0.002 C 
HETATM    6  C6  UNL     1      21.329   1.532  48.553  1.00  0.00    -0.025 C 
HETATM    7  C7  UNL     1      21.801   2.844  48.003  1.00  0.00     0.053 C 
HETATM    8  C8  UNL     1      22.487   3.633  49.062  1.00  0.00     0.171 C 
HETATM    9  O1  UNL     1      23.017   4.872  48.576  1.00  0.00    -0.391 OA
HETATM   10  C9  UNL     1      23.574   5.503  49.650  1.00  0.00     0.172 C 
HETATM   11  C10 UNL     1      24.335   6.746  49.506  1.00  0.00     0.061 C 
HETATM   12  C11 UNL     1      25.572   6.685  48.687  1.00  0.00    -0.066 C 
HETATM   13  C12 UNL     1      26.031   7.489  47.721  1.00  0.00    -0.052 C 
HETATM   14  C18 UNL     1      26.100   5.457  49.250  1.00  0.00     0.105 C 
HETATM   15  C19 UNL     1      26.904   4.469  49.426  1.00  0.00     0.098 C 
HETATM   16  N1  UNL     1      26.915   3.356  50.273  1.00  0.00    -0.282 NA
HETATM   17  C20 UNL     1      26.082   2.941  51.133  1.00  0.00     0.227 C 
HETATM   18  N2  UNL     1      24.990   2.801  51.950  1.00  0.00    -0.238 NA
HETATM   19  C21 UNL     1      24.205   3.486  52.632  1.00  0.00     0.198 C 
HETATM   20  N3  UNL     1      23.574   2.338  52.977  1.00  0.00    -0.381 NA
HETATM   21  C22 UNL     1      22.866   1.414  52.639  1.00  0.00     0.305 C 
ENDROOT
BRANCH  13  22
HETATM   22  C13 UNL     1      25.239   8.667  47.320  1.00  0.00     0.198 C 
BRANCH  22  23
HETATM   23  O2  UNL     1      25.959   9.859  47.262  1.00  0.00    -0.397 OA
HETATM   24  H15 UNL     1      26.674   9.883  46.592  1.00  0.00     0.209 HD
ENDBRANCH  22  23
ENDBRANCH  13  22
BRANCH  13  25
HETATM   25  C14 UNL     1      27.304   7.274  46.991  1.00  0.00     0.063 C 
BRANCH  25  26
HETATM   26  C15 UNL     1      28.515   7.620  47.847  1.00  0.00     0.172 C 
BRANCH  26  27
HETATM   27  O3  UNL     1      28.699   8.941  48.110  1.00  0.00    -0.391 OA
BRANCH  27  28
HETATM   28  C16 UNL     1      29.005   9.333  49.370  1.00  0.00     0.163 C 
HETATM   29  C17 UNL     1      27.728   9.373  50.193  1.00  0.00     0.033 C 
ENDBRANCH  27  28
ENDBRANCH  26  27
ENDBRANCH  25  26
ENDBRANCH  13  25
TORSDOF 6
ENDMDL
MODEL 5
REMARK VINA RESULT:      -7.1      2.912      9.148
REMARK  6 active torsions:
REMARK  status: ('A' for Active; 'I' for Inactive)
REMARK    1  A    between atoms: C12_13  and  C13_14 
REMARK    2  A    between atoms: C12_13  and  C14_16 
REMARK    3  A    between atoms: C13_14  and  O2_15 
REMARK    4  A    between atoms: C14_16  and  C15_17 
REMARK    5  A    between atoms: C15_17  and  O3_18 
REMARK    6  A    between atoms: O3_18  and  C16_19 
ROOT
HETATM    1  C1  UNL     1      26.596  11.039  48.219  1.00  0.00     0.018 C 
HETATM    2  C2  UNL     1      26.450   9.857  48.552  1.00  0.00    -0.076 C 
HETATM    3  C3  UNL     1      26.301   8.455  48.949  1.00  0.00     0.034 C 
HETATM    4  C4  UNL     1      27.159   7.662  48.373  1.00  0.00     0.022 C 
HETATM    5  C5  UNL     1      27.331   6.255  48.503  1.00  0.00    -0.002 C 
HETATM    6  C6  UNL     1      27.537   4.950  48.584  1.00  0.00    -0.025 C 
HETATM    7  C7  UNL     1      26.956   3.789  49.332  1.00  0.00     0.053 C 
HETATM    8  C8  UNL     1      25.905   4.255  50.276  1.00  0.00     0.171 C 
HETATM    9  O1  UNL     1      25.267   3.178  50.973  1.00  0.00    -0.391 OA
HETATM   10  C9  UNL     1      24.366   3.748  51.826  1.00  0.00     0.172 C 
HETATM   11  C10 UNL     1      23.430   2.941  52.611  1.00  0.00     0.061 C 
HETATM   12  C11 UNL     1      22.450   2.122  51.854  1.00  0.00    -0.066 C 
HETATM   13  C12 UNL     1      22.076   0.844  51.990  1.00  0.00    -0.052 C 
HETATM   14  C18 UNL     1      22.058   3.144  50.903  1.00  0.00     0.105 C 
HETATM   15  C19 UNL     1      21.446   3.684  49.909  1.00  0.00     0.098 C 
HETATM   16  N1  UNL     1      21.460   4.954  49.326  1.00  0.00    -0.282 NA
HETATM   17  C20 UNL     1      22.138   5.993  49.581  1.00  0.00     0.227 C 
HETATM   18  N2  UNL     1      23.019   6.892  50.125  1.00  0.00    -0.238 NA
HETATM   19  C21 UNL     1      23.477   7.242  51.228  1.00  0.00     0.198 C 
HETATM   20  N3  UNL     1      24.225   8.164  50.576  1.00  0.00    -0.381 NA
HETATM   21  C22 UNL     1      25.159   8.391  49.837  1.00  0.00     0.305 C 
ENDROOT
BRANCH  13  22
HETATM   22  C13 UNL     1      22.692   0.016  53.044  1.00  0.00     0.198 C 
BRANCH  22  23
HETATM   23  O2  UNL     1      21.926  -0.116  54.201  1.00  0.00    -0.397 OA
HETATM   24  H15 UNL     1      21.351  -0.909  54.234  1.00  0.00     0.209 HD
ENDBRANCH  22  23
ENDBRANCH  13  22
BRANCH  13  25
HETATM   25  C14 UNL     1      21.071   0.173  51.130  1.00  0.00     0.063 C 
BRANCH  25  26
HETATM   26  C15 UNL     1      19.648   0.512  51.548  1.00  0.00     0.172 C 
BRANCH  26  27
HETATM   27  O3  UNL     1      19.313   0.197  52.828  1.00  0.00    -0.391 OA
BRANCH  27  28
HETATM   28  C16 UNL     1      18.575  -0.912  53.069  1.00  0.00     0.163 C 
HETATM   29  C17 UNL     1      17.250  -0.786  52.337  1.00  0.00     0.033 C 
ENDBRANCH  27  28
ENDBRANCH  26  27
ENDBRANCH  25  26
ENDBRANCH  13  25
TORSDOF 6
ENDMDL
MODEL 6
REMARK VINA RESULT:      -6.9      3.536      7.961
REMARK  6 active torsions:
REMARK  status: ('A' for Active; 'I' for Inactive)
REMARK    1  A    between atoms: C12_13  and  C13_14 
REMARK    2  A    between atoms: C12_13  and  C14_16 
REMARK    3  A    between atoms: C13_14  and  O2_15 
REMARK    4  A    between atoms: C14_16  and  C15_17 
REMARK    5  A    between atoms: C15_17  and  O3_18 
REMARK    6  A    between atoms: O3_18  and  C16_19 
ROOT
HETATM    1  C1  UNL     1      17.692   7.449  46.997  1.00  0.00     0.018 C 
HETATM    2  C2  UNL     1      18.733   7.015  47.503  1.00  0.00    -0.076 C 
HETATM    3  C3  UNL     1      19.977   6.522  48.097  1.00  0.00     0.034 C 
HETATM    4  C4  UNL     1      21.036   6.814  47.396  1.00  0.00     0.022 C 
HETATM    5  C5  UNL     1      22.405   6.516  47.644  1.00  0.00    -0.002 C 
HETATM    6  C6  UNL     1      23.692   6.267  47.822  1.00  0.00    -0.025 C 
HETATM    7  C7  UNL     1      24.551   5.590  48.847  1.00  0.00     0.053 C 
HETATM    8  C8  UNL     1      23.722   5.131  49.994  1.00  0.00     0.171 C 
HETATM    9  O1  UNL     1      24.481   4.417  50.978  1.00  0.00    -0.391 OA
HETATM   10  C9  UNL     1      23.613   4.098  51.981  1.00  0.00     0.172 C 
HETATM   11  C10 UNL     1      24.010   3.244  53.103  1.00  0.00     0.061 C 
HETATM   12  C11 UNL     1      24.412   1.852  52.778  1.00  0.00    -0.066 C 
HETATM   13  C12 UNL     1      25.458   1.120  53.177  1.00  0.00    -0.052 C 
HETATM   14  C18 UNL     1      23.323   1.559  51.866  1.00  0.00     0.105 C 
HETATM   15  C19 UNL     1      22.600   0.889  51.039  1.00  0.00     0.098 C 
HETATM   16  N1  UNL     1      21.429   1.158  50.324  1.00  0.00    -0.282 NA
HETATM   17  C20 UNL     1      20.715   2.200  50.235  1.00  0.00     0.227 C 
HETATM   18  N2  UNL     1      20.204   3.464  50.377  1.00  0.00    -0.238 NA
HETATM   19  C21 UNL     1      20.042   4.344  51.243  1.00  0.00     0.198 C 
HETATM   20  N3  UNL     1      19.468   5.115  50.289  1.00  0.00    -0.381 NA
HETATM   21  C22 UNL     1      19.607   5.779  49.284  1.00  0.00     0.305 C 
ENDROOT
BRANCH  13  22
HETATM   22  C13 UNL     1      26.449   1.711  54.096  1.00  0.00     0.198 C 
BRANCH  22  23
HETATM   23  O2  UNL     1      26.684   0.970  55.252  1.00  0.00    -0.397 OA
HETATM   24  H15 UNL     1      26.331   1.361  56.078  1.00  0.00     0.209 HD
ENDBRANCH  22  23
ENDBRANCH  13  22
BRANCH  13  25
HETATM   25  C14 UNL     1      25.714  -0.275  52.743  1.00  0.00     0.063 C 
BRANCH  25  26
HETATM   26  C15 UNL     1      27.197  -0.537  52.519  1.00  0.00     0.172 C 
BRANCH  26  27
HETATM   27  O3  UNL     1      27.813  -1.307  53.456  1.00  0.00    -0.391 OA
BRANCH  27  28
HETATM   28  C16 UNL     1      29.061  -1.776  53.216  1.00  0.00     0.163 C 
HETATM   29  C17 UNL     1      30.070  -0.748  53.698  1.00  0.00     0.033 C 
ENDBRANCH  27  28
ENDBRANCH  26  27
ENDBRANCH  25  26
ENDBRANCH  13  25
TORSDOF 6
ENDMDL
MODEL 7
REMARK VINA RESULT:      -6.7      3.091      8.808
REMARK  6 active torsions:
REMARK  status: ('A' for Active; 'I' for Inactive)
REMARK    1  A    between atoms: C12_13  and  C13_14 
REMARK    2  A    between atoms: C12_13  and  C14_16 
REMARK    3  A    between atoms: C13_14  and  O2_15 
REMARK    4  A    between atoms: C14_16  and  C15_17 
REMARK    5  A    between atoms: C15_17  and  O3_18 
REMARK    6  A    between atoms: O3_18  and  C16_19 
ROOT
HETATM    1  C1  UNL     1      27.348  10.686  48.411  1.00  0.00     0.018 C 
HETATM    2  C2  UNL     1      27.042   9.526  48.711  1.00  0.00    -0.076 C 
HETATM    3  C3  UNL     1      26.704   8.147  49.070  1.00  0.00     0.034 C 
HETATM    4  C4  UNL     1      27.486   7.264  48.518  1.00  0.00     0.022 C 
HETATM    5  C5  UNL     1      27.478   5.844  48.625  1.00  0.00    -0.002 C 
HETATM    6  C6  UNL     1      27.518   4.523  48.687  1.00  0.00    -0.025 C 
HETATM    7  C7  UNL     1      26.763   3.430  49.381  1.00  0.00     0.053 C 
HETATM    8  C8  UNL     1      25.732   4.008  50.285  1.00  0.00     0.171 C 
HETATM    9  O1  UNL     1      24.933   3.006  50.928  1.00  0.00    -0.391 OA
HETATM   10  C9  UNL     1      24.068   3.669  51.749  1.00  0.00     0.172 C 
HETATM   11  C10 UNL     1      23.002   2.972  52.471  1.00  0.00     0.061 C 
HETATM   12  C11 UNL     1      21.968   2.292  51.651  1.00  0.00    -0.066 C 
HETATM   13  C12 UNL     1      21.434   1.068  51.741  1.00  0.00    -0.052 C 
HETATM   14  C18 UNL     1      21.752   3.369  50.704  1.00  0.00     0.105 C 
HETATM   15  C19 UNL     1      21.260   3.996  49.695  1.00  0.00     0.098 C 
HETATM   16  N1  UNL     1      21.458   5.264  49.141  1.00  0.00    -0.282 NA
HETATM   17  C20 UNL     1      22.245   6.208  49.450  1.00  0.00     0.227 C 
HETATM   18  N2  UNL     1      23.201   6.982  50.055  1.00  0.00    -0.238 NA
HETATM   19  C21 UNL     1      23.643   7.255  51.185  1.00  0.00     0.198 C 
HETATM   20  N3  UNL     1      24.530   8.088  50.590  1.00  0.00    -0.381 NA
HETATM   21  C22 UNL     1      25.520   8.211  49.901  1.00  0.00     0.305 C 
ENDROOT
BRANCH  13  22
HETATM   22  C13 UNL     1      21.891   0.154  52.805  1.00  0.00     0.198 C 
BRANCH  22  23
HETATM   23  O2  UNL     1      21.233   0.306  54.024  1.00  0.00    -0.397 OA
HETATM   24  H15 UNL     1      20.948  -0.528  54.452  1.00  0.00     0.209 HD
ENDBRANCH  22  23
ENDBRANCH  13  22
BRANCH  13  25
HETATM   25  C14 UNL     1      20.399   0.539  50.820  1.00  0.00     0.063 C 
BRANCH  25  26
HETATM   26  C15 UNL     1      19.000   0.662  51.407  1.00  0.00     0.172 C 
BRANCH  26  27
HETATM   27  O3  UNL     1      18.626   1.909  51.798  1.00  0.00    -0.391 OA
BRANCH  27  28
HETATM   28  C16 UNL     1      17.500   2.459  51.284  1.00  0.00     0.163 C 
HETATM   29  C17 UNL     1      17.770   3.921  50.969  1.00  0.00     0.033 C 
ENDBRANCH  27  28
ENDBRANCH  26  27
ENDBRANCH  25  26
ENDBRANCH  13  25
TORSDOF 6
ENDMDL
MODEL 8
REMARK VINA RESULT:      -6.6      6.863     10.277
REMARK  6 active torsions:
REMARK  status: ('A' for Active; 'I' for Inactive)
REMARK    1  A    between atoms: C12_13  and  C13_14 
REMARK    2  A    between atoms: C12_13  and  C14_16 
REMARK    3  A    between atoms: C13_14  and  O2_15 
REMARK    4  A    between atoms: C14_16  and  C15_17 
REMARK    5  A    between atoms: C15_17  and  O3_18 
REMARK    6  A    between atoms: O3_18  and  C16_19 
ROOT
HETATM    1  C1  UNL     1      25.557  13.962  47.833  1.00  0.00     0.018 C 
HETATM    2  C2  UNL     1      26.514  13.205  47.630  1.00  0.00    -0.076 C 
HETATM    3  C3  UNL     1      27.659  12.327  47.381  1.00  0.00     0.034 C 
HETATM    4  C4  UNL     1      28.217  12.523  46.221  1.00  0.00     0.022 C 
HETATM    5  C5  UNL     1      29.339  11.879  45.627  1.00  0.00    -0.002 C 
HETATM    6  C6  UNL     1      30.374  11.315  45.027  1.00  0.00    -0.025 C 
HETATM    7  C7  UNL     1      31.386  10.254  45.341  1.00  0.00     0.053 C 
HETATM    8  C8  UNL     1      31.193   9.751  46.728  1.00  0.00     0.171 C 
HETATM    9  O1  UNL     1      32.093   8.686  47.062  1.00  0.00    -0.391 OA
HETATM   10  C9  UNL     1      31.837   8.357  48.361  1.00  0.00     0.172 C 
HETATM   11  C10 UNL     1      32.479   7.210  49.007  1.00  0.00     0.061 C 
HETATM   12  C11 UNL     1      32.195   5.870  48.434  1.00  0.00    -0.066 C 
HETATM   13  C12 UNL     1      33.008   4.853  48.124  1.00  0.00    -0.052 C 
HETATM   14  C18 UNL     1      30.762   6.036  48.288  1.00  0.00     0.105 C 
HETATM   15  C19 UNL     1      29.547   5.745  47.984  1.00  0.00     0.098 C 
HETATM   16  N1  UNL     1      28.326   6.419  48.079  1.00  0.00    -0.282 NA
HETATM   17  C20 UNL     1      28.036   7.588  48.472  1.00  0.00     0.227 C 
HETATM   18  N2  UNL     1      28.097   8.871  48.951  1.00  0.00    -0.238 NA
HETATM   19  C21 UNL     1      28.698   9.552  49.802  1.00  0.00     0.198 C 
HETATM   20  N3  UNL     1      27.978  10.623  49.390  1.00  0.00    -0.381 NA
HETATM   21  C22 UNL     1      27.763  11.443  48.524  1.00  0.00     0.305 C 
ENDROOT
BRANCH  13  22
HETATM   22  C13 UNL     1      34.459   4.990  48.346  1.00  0.00     0.198 C 
BRANCH  22  23
HETATM   23  O2  UNL     1      35.090   3.831  48.797  1.00  0.00    -0.397 OA
HETATM   24  H15 UNL     1      34.535   3.241  49.348  1.00  0.00     0.209 HD
ENDBRANCH  22  23
ENDBRANCH  13  22
BRANCH  13  25
HETATM   25  C14 UNL     1      32.550   3.567  47.543  1.00  0.00     0.063 C 
BRANCH  25  26
HETATM   26  C15 UNL     1      32.383   3.653  46.033  1.00  0.00     0.172 C 
BRANCH  26  27
HETATM   27  O3  UNL     1      33.458   4.119  45.342  1.00  0.00    -0.391 OA
BRANCH  27  28
HETATM   28  C16 UNL     1      33.261   4.838  44.211  1.00  0.00     0.163 C 
HETATM   29  C17 UNL     1      32.780   6.227  44.593  1.00  0.00     0.033 C 
ENDBRANCH  27  28
ENDBRANCH  26  27
ENDBRANCH  25  26
ENDBRANCH  13  25
TORSDOF 6
ENDMDL
MODEL 9
REMARK VINA RESULT:      -6.5      3.463      8.376
REMARK  6 active torsions:
REMARK  status: ('A' for Active; 'I' for Inactive)
REMARK    1  A    between atoms: C12_13  and  C13_14 
REMARK    2  A    between atoms: C12_13  and  C14_16 
REMARK    3  A    between atoms: C13_14  and  O2_15 
REMARK    4  A    between atoms: C14_16  and  C15_17 
REMARK    5  A    between atoms: C15_17  and  O3_18 
REMARK    6  A    between atoms: O3_18  and  C16_19 
ROOT
HETATM    1  C1  UNL     1      18.669   8.672  46.017  1.00  0.00     0.018 C 
HETATM    2  C2  UNL     1      19.606   8.171  46.648  1.00  0.00    -0.076 C 
HETATM    3  C3  UNL     1      20.728   7.598  47.395  1.00  0.00     0.034 C 
HETATM    4  C4  UNL     1      21.890   7.876  46.874  1.00  0.00     0.022 C 
HETATM    5  C5  UNL     1      23.195   7.507  47.306  1.00  0.00    -0.002 C 
HETATM    6  C6  UNL     1      24.431   7.195  47.661  1.00  0.00    -0.025 C 
HETATM    7  C7  UNL     1      25.101   6.436  48.766  1.00  0.00     0.053 C 
HETATM    8  C8  UNL     1      24.093   5.963  49.753  1.00  0.00     0.171 C 
HETATM    9  O1  UNL     1      24.670   5.174  50.801  1.00  0.00    -0.391 OA
HETATM   10  C9  UNL     1      23.650   4.849  51.648  1.00  0.00     0.172 C 
HETATM   11  C10 UNL     1      23.842   3.929  52.771  1.00  0.00     0.061 C 
HETATM   12  C11 UNL     1      24.238   2.537  52.440  1.00  0.00    -0.066 C 
HETATM   13  C12 UNL     1      25.185   1.743  52.952  1.00  0.00    -0.052 C 
HETATM   14  C18 UNL     1      23.289   2.332  51.362  1.00  0.00     0.105 C 
HETATM   15  C19 UNL     1      22.674   1.732  50.405  1.00  0.00     0.098 C 
HETATM   16  N1  UNL     1      21.634   2.083  49.539  1.00  0.00    -0.282 NA
HETATM   17  C20 UNL     1      20.979   3.158  49.398  1.00  0.00     0.227 C 
HETATM   18  N2  UNL     1      20.499   4.435  49.526  1.00  0.00    -0.238 NA
HETATM   19  C21 UNL     1      20.241   5.282  50.401  1.00  0.00     0.198 C 
HETATM   20  N3  UNL     1      19.845   6.119  49.413  1.00  0.00    -0.381 NA
HETATM   21  C22 UNL     1      20.157   6.820  48.475  1.00  0.00     0.305 C 
ENDROOT
BRANCH  13  22
HETATM   22  C13 UNL     1      26.048   2.249  54.035  1.00  0.00     0.198 C 
BRANCH  22  23
HETATM   23  O2  UNL     1      27.353   2.547  53.648  1.00  0.00    -0.397 OA
HETATM   24  H15 UNL     1      27.827   1.825  53.187  1.00  0.00     0.209 HD
ENDBRANCH  22  23
ENDBRANCH  13  22
BRANCH  13  25
HETATM   25  C14 UNL     1      25.453   0.359  52.490  1.00  0.00     0.063 C 
BRANCH  25  26
HETATM   26  C15 UNL     1      25.407  -0.641  53.638  1.00  0.00     0.172 C 
BRANCH  26  27
HETATM   27  O3  UNL     1      24.180  -0.873  54.175  1.00  0.00    -0.391 OA
BRANCH  27  28
HETATM   28  C16 UNL     1      23.091  -0.880  53.369  1.00  0.00     0.163 C 
HETATM   29  C17 UNL     1      22.012  -0.015  54.000  1.00  0.00     0.033 C 
ENDBRANCH  27  28
ENDBRANCH  26  27
ENDBRANCH  25  26
ENDBRANCH  13  25
TORSDOF 6
ENDMDL
