MODEL 1
REMARK VINA RESULT:      -8.0      0.000      0.000
REMARK  8 active torsions:
REMARK  status: ('A' for Active; 'I' for Inactive)
REMARK    1  A    between atoms: O1_2  and  C2_3 
REMARK    2  A    between atoms: C5_6  and  C6_7 
REMARK    3  A    between atoms: C6_7  and  N1_8 
REMARK    4  A    between atoms: N1_8  and  C7_9 
REMARK    5  A    between atoms: C7_9  and  C8_10 
REMARK    6  A    between atoms: N3_14  and  C11_15 
REMARK    7  A    between atoms: C12_18  and  C13_19 
REMARK    8  A    between atoms: C14_20  and  O2_21 
ROOT
HETATM    1  C8  UNL     1      26.753   1.861  53.626  1.00  0.00     0.164 A 
HETATM    2  C9  UNL     1      27.048   0.628  54.294  1.00  0.00     0.414 A 
HETATM    3  N2  UNL     1      26.535  -0.283  55.039  1.00  0.00     0.122 N 
HETATM    4  C10 UNL     1      25.582  -0.839  55.701  1.00  0.00     0.372 A 
HETATM    5  N3  UNL     1      26.132  -0.065  55.029  1.00  0.00    -0.032 NA
HETATM    6  C11 UNL     1      27.001   0.620  54.314  1.00  0.00     0.431 A 
HETATM    7  N4  UNL     1      28.420   0.433  54.463  1.00  0.00     0.117 N 
HETATM    8  N5  UNL     1      29.340   1.166  53.765  1.00  0.00    -0.105 NA
HETATM    9  C12 UNL     1      28.364   0.214  53.449  1.00  0.00     0.365 A 
HETATM   10  H11 UNL     1      29.967   1.819  54.229  1.00  0.00     0.157 HD
ENDROOT
BRANCH   1  11
HETATM   11  C7  UNL     1      25.757   2.763  53.539  1.00  0.00     0.077 C 
BRANCH  11  12
HETATM   12  N1  UNL     1      24.656   3.290  52.796  1.00  0.00    -0.397 N 
HETATM   13  H8  UNL     1      24.743   4.094  53.448  1.00  0.00     0.159 HD
BRANCH  12  14
HETATM   14  C6  UNL     1      24.160   2.462  51.728  1.00  0.00     0.157 C 
BRANCH  14  15
HETATM   15  C5  UNL     1      23.133   1.542  52.322  1.00  0.00    -0.041 A 
HETATM   16  C4  UNL     1      23.337   0.250  52.755  1.00  0.00     0.011 A 
HETATM   17  C3  UNL     1      22.266  -0.452  53.271  1.00  0.00     0.037 A 
HETATM   18  C2  UNL     1      21.003   0.099  53.365  1.00  0.00     0.068 A 
HETATM   19  C16 UNL     1      20.750   1.377  52.949  1.00  0.00     0.037 A 
HETATM   20  C15 UNL     1      21.841   2.072  52.434  1.00  0.00     0.011 A 
BRANCH  18  21
HETATM   21  O1  UNL     1      19.939  -0.622  53.882  1.00  0.00    -0.356 OA
HETATM   22  C1  UNL     1      18.778  -0.829  53.080  1.00  0.00     0.210 C 
ENDBRANCH  18  21
ENDBRANCH  14  15
ENDBRANCH  12  14
ENDBRANCH  11  12
ENDBRANCH   1  11
BRANCH   9  23
HETATM   23  C13 UNL     1      28.669  -1.214  53.498  1.00  0.00     0.075 C 
HETATM   24  C14 UNL     1      28.280  -2.407  53.102  1.00  0.00     0.136 C 
HETATM   25 CL1  UNL     1      26.824  -2.348  52.128  1.00  0.00    -0.057 Cl
BRANCH  24  26
HETATM   26  O2  UNL     1      28.933  -3.608  53.411  1.00  0.00    -0.350 OA
HETATM   27  H14 UNL     1      29.944  -3.673  53.214  1.00  0.00     0.218 HD
ENDBRANCH  24  26
ENDBRANCH   9  23
TORSDOF 8
ENDMDL
MODEL 2
REMARK VINA RESULT:      -7.9      3.840      5.545
REMARK  8 active torsions:
REMARK  status: ('A' for Active; 'I' for Inactive)
REMARK    1  A    between atoms: O1_2  and  C2_3 
REMARK    2  A    between atoms: C5_6  and  C6_7 
REMARK    3  A    between atoms: C6_7  and  N1_8 
REMARK    4  A    between atoms: N1_8  and  C7_9 
REMARK    5  A    between atoms: C7_9  and  C8_10 
REMARK    6  A    between atoms: N3_14  and  C11_15 
REMARK    7  A    between atoms: C12_18  and  C13_19 
REMARK    8  A    between atoms: C14_20  and  O2_21 
ROOT
HETATM    1  C8  UNL     1      25.420   2.150  53.107  1.00  0.00     0.164 A 
HETATM    2  C9  UNL     1      25.417   0.762  53.462  1.00  0.00     0.414 A 
HETATM    3  N2  UNL     1      24.663  -0.273  53.552  1.00  0.00     0.122 N 
HETATM    4  C10 UNL     1      23.549  -0.909  53.443  1.00  0.00     0.372 A 
HETATM    5  N3  UNL     1      24.309  -0.029  53.395  1.00  0.00    -0.032 NA
HETATM    6  C11 UNL     1      25.368   0.752  53.453  1.00  0.00     0.431 A 
HETATM    7  N4  UNL     1      26.513   0.417  54.255  1.00  0.00     0.117 N 
HETATM    8  N5  UNL     1      27.603   1.236  54.367  1.00  0.00    -0.105 NA
HETATM    9  C12 UNL     1      27.008   0.489  53.345  1.00  0.00     0.365 A 
HETATM   10  H11 UNL     1      27.849   1.684  55.246  1.00  0.00     0.157 HD
ENDROOT
BRANCH   1  11
HETATM   11  C7  UNL     1      24.548   3.119  52.770  1.00  0.00     0.077 C 
BRANCH  11  12
HETATM   12  N1  UNL     1      24.290   4.323  52.044  1.00  0.00    -0.397 N 
HETATM   13  H8  UNL     1      24.429   4.780  52.967  1.00  0.00     0.159 HD
BRANCH  12  14
HETATM   14  C6  UNL     1      24.020   4.168  50.638  1.00  0.00     0.157 C 
BRANCH  14  15
HETATM   15  C5  UNL     1      25.248   4.617  49.900  1.00  0.00    -0.041 A 
HETATM   16  C4  UNL     1      26.330   3.840  49.553  1.00  0.00     0.011 A 
HETATM   17  C3  UNL     1      27.380   4.430  48.878  1.00  0.00     0.037 A 
HETATM   18  C2  UNL     1      27.377   5.770  48.543  1.00  0.00     0.068 A 
HETATM   19  C16 UNL     1      26.326   6.583  48.864  1.00  0.00     0.037 A 
HETATM   20  C15 UNL     1      25.275   5.972  49.543  1.00  0.00     0.011 A 
BRANCH  18  21
HETATM   21  O1  UNL     1      28.440   6.346  47.868  1.00  0.00    -0.356 OA
HETATM   22  C1  UNL     1      29.765   5.884  48.123  1.00  0.00     0.210 C 
ENDBRANCH  18  21
ENDBRANCH  14  15
ENDBRANCH  12  14
ENDBRANCH  11  12
ENDBRANCH   1  11
BRANCH   9  23
HETATM   23  C13 UNL     1      27.349  -0.918  53.150  1.00  0.00     0.075 C 
HETATM   24  C14 UNL     1      28.337  -1.788  53.134  1.00  0.00     0.136 C 
HETATM   25 CL1  UNL     1      29.891  -1.046  53.462  1.00  0.00    -0.057 Cl
BRANCH  24  26
HETATM   26  O2  UNL     1      28.193  -3.160  52.882  1.00  0.00    -0.350 OA
HETATM   27  H14 UNL     1      27.306  -3.611  53.156  1.00  0.00     0.218 HD
ENDBRANCH  24  26
ENDBRANCH   9  23
TORSDOF 8
ENDMDL
MODEL 3
REMARK VINA RESULT:      -7.6      1.573      2.011
REMARK  8 active torsions:
REMARK  status: ('A' for Active; 'I' for Inactive)
REMARK    1  A    between atoms: O1_2  and  C2_3 
REMARK    2  A    between atoms: C5_6  and  C6_7 
REMARK    3  A    between atoms: C6_7  and  N1_8 
REMARK    4  A    between atoms: N1_8  and  C7_9 
REMARK    5  A    between atoms: C7_9  and  C8_10 
REMARK    6  A    between atoms: N3_14  and  C11_15 
REMARK    7  A    between atoms: C12_18  and  C13_19 
REMARK    8  A    between atoms: C14_20  and  O2_21 
ROOT
HETATM    1  C8  UNL     1      25.544   2.104  53.483  1.00  0.00     0.164 A 
HETATM    2  C9  UNL     1      25.535   0.694  53.739  1.00  0.00     0.414 A 
HETATM    3  N2  UNL     1      24.770  -0.336  53.780  1.00  0.00     0.122 N 
HETATM    4  C10 UNL     1      23.645  -0.951  53.663  1.00  0.00     0.372 A 
HETATM    5  N3  UNL     1      24.414  -0.077  53.652  1.00  0.00    -0.032 NA
HETATM    6  C11 UNL     1      25.485   0.686  53.731  1.00  0.00     0.431 A 
HETATM    7  N4  UNL     1      26.651   0.282  54.470  1.00  0.00     0.117 N 
HETATM    8  N5  UNL     1      27.755   1.079  54.604  1.00  0.00    -0.105 NA
HETATM    9  C12 UNL     1      27.117   0.413  53.551  1.00  0.00     0.365 A 
HETATM   10  H11 UNL     1      28.033   1.461  55.504  1.00  0.00     0.157 HD
ENDROOT
BRANCH   1  11
HETATM   11  C7  UNL     1      24.676   3.104  53.243  1.00  0.00     0.077 C 
BRANCH  11  12
HETATM   12  N1  UNL     1      24.114   4.029  52.308  1.00  0.00    -0.397 N 
HETATM   13  H8  UNL     1      24.337   4.733  53.039  1.00  0.00     0.159 HD
BRANCH  12  14
HETATM   14  C6  UNL     1      23.634   3.466  51.073  1.00  0.00     0.157 C 
BRANCH  14  15
HETATM   15  C5  UNL     1      22.435   2.626  51.407  1.00  0.00    -0.041 A 
HETATM   16  C4  UNL     1      21.351   3.005  52.169  1.00  0.00     0.011 A 
HETATM   17  C3  UNL     1      20.338   2.090  52.378  1.00  0.00     0.037 A 
HETATM   18  C2  UNL     1      20.378   0.815  51.850  1.00  0.00     0.068 A 
HETATM   19  C16 UNL     1      21.432   0.392  51.087  1.00  0.00     0.037 A 
HETATM   20  C15 UNL     1      22.444   1.326  50.884  1.00  0.00     0.011 A 
BRANCH  18  21
HETATM   21  O1  UNL     1      19.354  -0.090  52.073  1.00  0.00    -0.356 OA
HETATM   22  C1  UNL     1      18.040   0.210  51.606  1.00  0.00     0.210 C 
ENDBRANCH  18  21
ENDBRANCH  14  15
ENDBRANCH  12  14
ENDBRANCH  11  12
ENDBRANCH   1  11
BRANCH   9  23
HETATM   23  C13 UNL     1      27.434  -0.981  53.247  1.00  0.00     0.075 C 
HETATM   24  C14 UNL     1      28.409  -1.859  53.139  1.00  0.00     0.136 C 
HETATM   25 CL1  UNL     1      29.982  -1.159  53.469  1.00  0.00    -0.057 Cl
BRANCH  24  26
HETATM   26  O2  UNL     1      28.240  -3.207  52.795  1.00  0.00    -0.350 OA
HETATM   27  H14 UNL     1      28.399  -3.479  51.812  1.00  0.00     0.218 HD
ENDBRANCH  24  26
ENDBRANCH   9  23
TORSDOF 8
ENDMDL
MODEL 4
REMARK VINA RESULT:      -7.4      4.776      6.527
REMARK  8 active torsions:
REMARK  status: ('A' for Active; 'I' for Inactive)
REMARK    1  A    between atoms: O1_2  and  C2_3 
REMARK    2  A    between atoms: C5_6  and  C6_7 
REMARK    3  A    between atoms: C6_7  and  N1_8 
REMARK    4  A    between atoms: N1_8  and  C7_9 
REMARK    5  A    between atoms: C7_9  and  C8_10 
REMARK    6  A    between atoms: N3_14  and  C11_15 
REMARK    7  A    between atoms: C12_18  and  C13_19 
REMARK    8  A    between atoms: C14_20  and  O2_21 
ROOT
HETATM    1  C8  UNL     1      26.510   2.052  51.905  1.00  0.00     0.164 A 
HETATM    2  C9  UNL     1      26.325   0.855  52.670  1.00  0.00     0.414 A 
HETATM    3  N2  UNL     1      25.438   0.012  53.060  1.00  0.00     0.122 N 
HETATM    4  C10 UNL     1      24.245  -0.467  53.130  1.00  0.00     0.372 A 
HETATM    5  N3  UNL     1      25.117   0.243  52.828  1.00  0.00    -0.032 NA
HETATM    6  C11 UNL     1      26.274   0.850  52.663  1.00  0.00     0.431 A 
HETATM    7  N4  UNL     1      27.381   0.624  53.553  1.00  0.00     0.117 N 
HETATM    8  N5  UNL     1      28.576   1.279  53.429  1.00  0.00    -0.105 NA
HETATM    9  C12 UNL     1      27.860   0.342  52.675  1.00  0.00     0.365 A 
HETATM   10  H11 UNL     1      28.901   1.938  54.132  1.00  0.00     0.157 HD
ENDROOT
BRANCH   1  11
HETATM   11  C7  UNL     1      25.772   2.980  51.267  1.00  0.00     0.077 C 
BRANCH  11  12
HETATM   12  N1  UNL     1      25.619   4.341  50.858  1.00  0.00    -0.397 N 
HETATM   13  H8  UNL     1      25.702   4.540  51.875  1.00  0.00     0.159 HD
BRANCH  12  14
HETATM   14  C6  UNL     1      25.455   4.562  49.445  1.00  0.00     0.157 C 
BRANCH  14  15
HETATM   15  C5  UNL     1      26.661   5.322  48.974  1.00  0.00    -0.041 A 
HETATM   16  C4  UNL     1      27.869   4.790  48.584  1.00  0.00     0.011 A 
HETATM   17  C3  UNL     1      28.874   5.649  48.185  1.00  0.00     0.037 A 
HETATM   18  C2  UNL     1      28.704   7.019  48.167  1.00  0.00     0.068 A 
HETATM   19  C16 UNL     1      27.523   7.596  48.544  1.00  0.00     0.037 A 
HETATM   20  C15 UNL     1      26.520   6.716  48.941  1.00  0.00     0.011 A 
BRANCH  18  21
HETATM   21  O1  UNL     1      29.724   7.867  47.767  1.00  0.00    -0.356 OA
HETATM   22  C1  UNL     1      29.413   9.017  46.983  1.00  0.00     0.210 C 
ENDBRANCH  18  21
ENDBRANCH  14  15
ENDBRANCH  12  14
ENDBRANCH  11  12
ENDBRANCH   1  11
BRANCH   9  23
HETATM   23  C13 UNL     1      28.001  -1.089  52.932  1.00  0.00     0.075 C 
HETATM   24  C14 UNL     1      28.827  -2.028  53.342  1.00  0.00     0.136 C 
HETATM   25 CL1  UNL     1      30.406  -1.394  53.764  1.00  0.00    -0.057 Cl
BRANCH  24  26
HETATM   26  O2  UNL     1      28.510  -3.390  53.439  1.00  0.00    -0.350 OA
HETATM   27  H14 UNL     1      27.987  -3.821  52.660  1.00  0.00     0.218 HD
ENDBRANCH  24  26
ENDBRANCH   9  23
TORSDOF 8
ENDMDL
MODEL 5
REMARK VINA RESULT:      -7.4      2.620      3.264
REMARK  8 active torsions:
REMARK  status: ('A' for Active; 'I' for Inactive)
REMARK    1  A    between atoms: O1_2  and  C2_3 
REMARK    2  A    between atoms: C5_6  and  C6_7 
REMARK    3  A    between atoms: C6_7  and  N1_8 
REMARK    4  A    between atoms: N1_8  and  C7_9 
REMARK    5  A    between atoms: C7_9  and  C8_10 
REMARK    6  A    between atoms: N3_14  and  C11_15 
REMARK    7  A    between atoms: C12_18  and  C13_19 
REMARK    8  A    between atoms: C14_20  and  O2_21 
ROOT
HETATM    1  C8  UNL     1      26.066   1.821  53.512  1.00  0.00     0.164 A 
HETATM    2  C9  UNL     1      26.393   0.588  54.166  1.00  0.00     0.414 A 
HETATM    3  N2  UNL     1      25.879  -0.412  54.785  1.00  0.00     0.122 N 
HETATM    4  C10 UNL     1      24.905  -1.102  55.267  1.00  0.00     0.372 A 
HETATM    5  N3  UNL     1      25.460  -0.237  54.721  1.00  0.00    -0.032 NA
HETATM    6  C11 UNL     1      26.345   0.575  54.179  1.00  0.00     0.431 A 
HETATM    7  N4  UNL     1      27.737   0.528  54.539  1.00  0.00     0.117 N 
HETATM    8  N5  UNL     1      28.664   1.392  54.025  1.00  0.00    -0.105 NA
HETATM    9  C12 UNL     1      27.859   0.364  53.521  1.00  0.00     0.365 A 
HETATM   10  H11 UNL     1      29.137   2.079  54.606  1.00  0.00     0.157 HD
ENDROOT
BRANCH   1  11
HETATM   11  C7  UNL     1      25.000   2.617  53.308  1.00  0.00     0.077 C 
BRANCH  11  12
HETATM   12  N1  UNL     1      23.720   2.803  52.700  1.00  0.00    -0.397 N 
HETATM   13  H8  UNL     1      23.890   3.807  52.907  1.00  0.00     0.159 HD
BRANCH  12  14
HETATM   14  C6  UNL     1      23.061   1.609  52.238  1.00  0.00     0.157 C 
BRANCH  14  15
HETATM   15  C5  UNL     1      22.734   1.819  50.788  1.00  0.00    -0.041 A 
HETATM   16  C4  UNL     1      21.765   1.166  50.059  1.00  0.00     0.011 A 
HETATM   17  C3  UNL     1      21.611   1.487  48.725  1.00  0.00     0.037 A 
HETATM   18  C2  UNL     1      22.395   2.437  48.102  1.00  0.00     0.068 A 
HETATM   19  C16 UNL     1      23.370   3.114  48.783  1.00  0.00     0.037 A 
HETATM   20  C15 UNL     1      23.511   2.780  50.127  1.00  0.00     0.011 A 
BRANCH  18  21
HETATM   21  O1  UNL     1      22.229   2.744  46.762  1.00  0.00    -0.356 OA
HETATM   22  C1  UNL     1      21.176   3.622  46.370  1.00  0.00     0.210 C 
ENDBRANCH  18  21
ENDBRANCH  14  15
ENDBRANCH  12  14
ENDBRANCH  11  12
ENDBRANCH   1  11
BRANCH   9  23
HETATM   23  C13 UNL     1      28.311  -1.025  53.559  1.00  0.00     0.075 C 
HETATM   24  C14 UNL     1      28.096  -2.235  53.088  1.00  0.00     0.136 C 
HETATM   25 CL1  UNL     1      26.749  -2.288  51.967  1.00  0.00    -0.057 Cl
BRANCH  24  26
HETATM   26  O2  UNL     1      28.841  -3.373  53.427  1.00  0.00    -0.350 OA
HETATM   27  H14 UNL     1      29.859  -3.264  53.554  1.00  0.00     0.218 HD
ENDBRANCH  24  26
ENDBRANCH   9  23
TORSDOF 8
ENDMDL
MODEL 6
REMARK VINA RESULT:      -7.4      2.961      6.666
REMARK  8 active torsions:
REMARK  status: ('A' for Active; 'I' for Inactive)
REMARK    1  A    between atoms: O1_2  and  C2_3 
REMARK    2  A    between atoms: C5_6  and  C6_7 
REMARK    3  A    between atoms: C6_7  and  N1_8 
REMARK    4  A    between atoms: N1_8  and  C7_9 
REMARK    5  A    between atoms: C7_9  and  C8_10 
REMARK    6  A    between atoms: N3_14  and  C11_15 
REMARK    7  A    between atoms: C12_18  and  C13_19 
REMARK    8  A    between atoms: C14_20  and  O2_21 
ROOT
HETATM    1  C8  UNL     1      22.489   2.131  52.374  1.00  0.00     0.164 A 
HETATM    2  C9  UNL     1      22.223   0.778  52.765  1.00  0.00     0.414 A 
HETATM    3  N2  UNL     1      22.664  -0.186  53.489  1.00  0.00     0.122 N 
HETATM    4  C10 UNL     1      23.483  -0.734  54.318  1.00  0.00     0.372 A 
HETATM    5  N3  UNL     1      23.008   0.080  53.634  1.00  0.00    -0.032 NA
HETATM    6  C11 UNL     1      22.264   0.772  52.796  1.00  0.00     0.431 A 
HETATM    7  N4  UNL     1      21.359   0.132  51.879  1.00  0.00     0.117 N 
HETATM    8  N5  UNL     1      20.612   0.829  50.970  1.00  0.00    -0.105 NA
HETATM    9  C12 UNL     1      20.657   0.724  52.364  1.00  0.00     0.365 A 
HETATM   10  H11 UNL     1      20.766   0.738  49.969  1.00  0.00     0.157 HD
ENDROOT
BRANCH   1  11
HETATM   11  C7  UNL     1      23.449   3.064  52.514  1.00  0.00     0.077 C 
BRANCH  11  12
HETATM   12  N1  UNL     1      24.824   3.427  52.363  1.00  0.00    -0.397 N 
HETATM   13  H8  UNL     1      24.621   4.087  53.139  1.00  0.00     0.159 HD
BRANCH  12  14
HETATM   14  C6  UNL     1      25.552   2.731  51.334  1.00  0.00     0.157 C 
BRANCH  14  15
HETATM   15  C5  UNL     1      26.344   1.649  52.009  1.00  0.00    -0.041 A 
HETATM   16  C4  UNL     1      26.099   0.295  51.959  1.00  0.00     0.011 A 
HETATM   17  C3  UNL     1      26.935  -0.556  52.654  1.00  0.00     0.037 A 
HETATM   18  C2  UNL     1      28.005  -0.093  53.394  1.00  0.00     0.068 A 
HETATM   19  C16 UNL     1      28.291   1.242  53.474  1.00  0.00     0.037 A 
HETATM   20  C15 UNL     1      27.439   2.086  52.767  1.00  0.00     0.011 A 
BRANCH  18  21
HETATM   21  O1  UNL     1      28.832  -0.961  54.087  1.00  0.00    -0.356 OA
HETATM   22  C1  UNL     1      29.526  -1.985  53.377  1.00  0.00     0.210 C 
ENDBRANCH  18  21
ENDBRANCH  14  15
ENDBRANCH  12  14
ENDBRANCH  11  12
ENDBRANCH   1  11
BRANCH   9  23
HETATM   23  C13 UNL     1      19.908  -0.320  53.060  1.00  0.00     0.075 C 
HETATM   24  C14 UNL     1      18.731  -0.897  53.178  1.00  0.00     0.136 C 
HETATM   25 CL1  UNL     1      17.528  -0.188  52.118  1.00  0.00    -0.057 Cl
BRANCH  24  26
HETATM   26  O2  UNL     1      18.440  -1.958  54.047  1.00  0.00    -0.350 OA
HETATM   27  H14 UNL     1      18.323  -1.743  55.050  1.00  0.00     0.218 HD
ENDBRANCH  24  26
ENDBRANCH   9  23
TORSDOF 8
ENDMDL
MODEL 7
REMARK VINA RESULT:      -7.1      3.870      6.905
REMARK  8 active torsions:
REMARK  status: ('A' for Active; 'I' for Inactive)
REMARK    1  A    between atoms: O1_2  and  C2_3 
REMARK    2  A    between atoms: C5_6  and  C6_7 
REMARK    3  A    between atoms: C6_7  and  N1_8 
REMARK    4  A    between atoms: N1_8  and  C7_9 
REMARK    5  A    between atoms: C7_9  and  C8_10 
REMARK    6  A    between atoms: N3_14  and  C11_15 
REMARK    7  A    between atoms: C12_18  and  C13_19 
REMARK    8  A    between atoms: C14_20  and  O2_21 
ROOT
HETATM    1  C8  UNL     1      22.944   2.756  50.056  1.00  0.00     0.164 A 
HETATM    2  C9  UNL     1      23.340   4.064  50.486  1.00  0.00     0.414 A 
HETATM    3  N2  UNL     1      23.497   4.797  51.528  1.00  0.00     0.122 N 
HETATM    4  C10 UNL     1      23.485   5.032  52.794  1.00  0.00     0.372 A 
HETATM    5  N3  UNL     1      23.372   4.446  51.794  1.00  0.00    -0.032 NA
HETATM    6  C11 UNL     1      23.334   4.057  50.537  1.00  0.00     0.431 A 
HETATM    7  N4  UNL     1      23.282   5.000  49.452  1.00  0.00     0.117 N 
HETATM    8  N5  UNL     1      23.195   4.618  48.142  1.00  0.00    -0.105 NA
HETATM    9  C12 UNL     1      24.150   4.510  49.159  1.00  0.00     0.365 A 
HETATM   10  H11 UNL     1      22.370   4.814  47.581  1.00  0.00     0.157 HD
ENDROOT
BRANCH   1  11
HETATM   11  C7  UNL     1      22.418   1.627  50.569  1.00  0.00     0.077 C 
BRANCH  11  12
HETATM   12  N1  UNL     1      22.399   0.667  51.627  1.00  0.00    -0.397 N 
HETATM   13  H8  UNL     1      21.987   0.043  50.906  1.00  0.00     0.159 HD
BRANCH  12  14
HETATM   14  C6  UNL     1      22.902   1.118  52.899  1.00  0.00     0.157 C 
BRANCH  14  15
HETATM   15  C5  UNL     1      24.372   0.817  52.924  1.00  0.00    -0.041 A 
HETATM   16  C4  UNL     1      25.398   1.703  52.679  1.00  0.00     0.011 A 
HETATM   17  C3  UNL     1      26.699   1.243  52.739  1.00  0.00     0.037 A 
HETATM   18  C2  UNL     1      27.000  -0.072  53.037  1.00  0.00     0.068 A 
HETATM   19  C16 UNL     1      26.017  -0.989  53.289  1.00  0.00     0.037 A 
HETATM   20  C15 UNL     1      24.712  -0.509  53.225  1.00  0.00     0.011 A 
BRANCH  18  21
HETATM   21  O1  UNL     1      28.310  -0.516  53.090  1.00  0.00    -0.356 OA
HETATM   22  C1  UNL     1      29.266   0.211  53.859  1.00  0.00     0.210 C 
ENDBRANCH  18  21
ENDBRANCH  14  15
ENDBRANCH  12  14
ENDBRANCH  11  12
ENDBRANCH   1  11
BRANCH   9  23
HETATM   23  C13 UNL     1      25.116   5.581  49.393  1.00  0.00     0.075 C 
HETATM   24  C14 UNL     1      26.389   5.910  49.322  1.00  0.00     0.136 C 
HETATM   25 CL1  UNL     1      27.388   4.600  48.722  1.00  0.00    -0.057 Cl
BRANCH  24  26
HETATM   26  O2  UNL     1      26.916   7.158  49.681  1.00  0.00    -0.350 OA
HETATM   27  H14 UNL     1      27.720   7.175  50.328  1.00  0.00     0.218 HD
ENDBRANCH  24  26
ENDBRANCH   9  23
TORSDOF 8
ENDMDL
MODEL 8
REMARK VINA RESULT:      -7.0      4.976      7.396
REMARK  8 active torsions:
REMARK  status: ('A' for Active; 'I' for Inactive)
REMARK    1  A    between atoms: O1_2  and  C2_3 
REMARK    2  A    between atoms: C5_6  and  C6_7 
REMARK    3  A    between atoms: C6_7  and  N1_8 
REMARK    4  A    between atoms: N1_8  and  C7_9 
REMARK    5  A    between atoms: C7_9  and  C8_10 
REMARK    6  A    between atoms: N3_14  and  C11_15 
REMARK    7  A    between atoms: C12_18  and  C13_19 
REMARK    8  A    between atoms: C14_20  and  O2_21 
ROOT
HETATM    1  C8  UNL     1      23.926   2.375  51.947  1.00  0.00     0.164 A 
HETATM    2  C9  UNL     1      24.282   1.068  52.412  1.00  0.00     0.414 A 
HETATM    3  N2  UNL     1      25.282   0.295  52.637  1.00  0.00     0.122 N 
HETATM    4  C10 UNL     1      26.535   0.002  52.678  1.00  0.00     0.372 A 
HETATM    5  N3  UNL     1      25.568   0.628  52.506  1.00  0.00    -0.032 NA
HETATM    6  C11 UNL     1      24.332   1.072  52.408  1.00  0.00     0.431 A 
HETATM    7  N4  UNL     1      23.207   0.178  52.359  1.00  0.00     0.117 N 
HETATM    8  N5  UNL     1      21.920   0.616  52.211  1.00  0.00    -0.105 NA
HETATM    9  C12 UNL     1      22.909   0.719  53.195  1.00  0.00     0.365 A 
HETATM   10  H11 UNL     1      21.377   0.409  51.376  1.00  0.00     0.157 HD
ENDROOT
BRANCH   1  11
HETATM   11  C7  UNL     1      24.509   3.455  51.391  1.00  0.00     0.077 C 
BRANCH  11  12
HETATM   12  N1  UNL     1      25.643   4.018  50.728  1.00  0.00    -0.397 N 
HETATM   13  H8  UNL     1      26.100   3.911  51.656  1.00  0.00     0.159 HD
BRANCH  12  14
HETATM   14  C6  UNL     1      25.462   4.354  49.340  1.00  0.00     0.157 C 
BRANCH  14  15
HETATM   15  C5  UNL     1      26.521   5.358  48.987  1.00  0.00    -0.041 A 
HETATM   16  C4  UNL     1      26.391   6.729  48.992  1.00  0.00     0.011 A 
HETATM   17  C3  UNL     1      27.478   7.498  48.628  1.00  0.00     0.037 A 
HETATM   18  C2  UNL     1      28.686   6.938  48.261  1.00  0.00     0.068 A 
HETATM   19  C16 UNL     1      28.865   5.582  48.242  1.00  0.00     0.037 A 
HETATM   20  C15 UNL     1      27.760   4.821  48.613  1.00  0.00     0.011 A 
BRANCH  18  21
HETATM   21  O1  UNL     1      29.765   7.725  47.897  1.00  0.00    -0.356 OA
HETATM   22  C1  UNL     1      29.855   9.061  48.387  1.00  0.00     0.210 C 
ENDBRANCH  18  21
ENDBRANCH  14  15
ENDBRANCH  12  14
ENDBRANCH  11  12
ENDBRANCH   1  11
BRANCH   9  23
HETATM   23  C13 UNL     1      23.061  -0.318  54.213  1.00  0.00     0.075 C 
HETATM   24  C14 UNL     1      22.441  -1.279  54.865  1.00  0.00     0.136 C 
HETATM   25 CL1  UNL     1      20.764  -1.443  54.381  1.00  0.00    -0.057 Cl
BRANCH  24  26
HETATM   26  O2  UNL     1      23.027  -2.093  55.844  1.00  0.00    -0.350 OA
HETATM   27  H14 UNL     1      22.527  -2.953  56.120  1.00  0.00     0.218 HD
ENDBRANCH  24  26
ENDBRANCH   9  23
TORSDOF 8
ENDMDL
MODEL 9
REMARK VINA RESULT:      -6.9      3.295      4.276
REMARK  8 active torsions:
REMARK  status: ('A' for Active; 'I' for Inactive)
REMARK    1  A    between atoms: O1_2  and  C2_3 
REMARK    2  A    between atoms: C5_6  and  C6_7 
REMARK    3  A    between atoms: C6_7  and  N1_8 
REMARK    4  A    between atoms: N1_8  and  C7_9 
REMARK    5  A    between atoms: C7_9  and  C8_10 
REMARK    6  A    between atoms: N3_14  and  C11_15 
REMARK    7  A    between atoms: C12_18  and  C13_19 
REMARK    8  A    between atoms: C14_20  and  O2_21 
ROOT
HETATM    1  C8  UNL     1      24.671  -0.209  53.033  1.00  0.00     0.164 A 
HETATM    2  C9  UNL     1      25.900   0.243  52.452  1.00  0.00     0.414 A 
HETATM    3  N2  UNL     1      26.420   1.192  51.762  1.00  0.00     0.122 N 
HETATM    4  C10 UNL     1      26.398   2.310  51.126  1.00  0.00     0.372 A 
HETATM    5  N3  UNL     1      26.016   1.407  51.753  1.00  0.00    -0.032 NA
HETATM    6  C11 UNL     1      25.882   0.286  52.431  1.00  0.00     0.431 A 
HETATM    7  N4  UNL     1      26.829  -0.789  52.313  1.00  0.00     0.117 N 
HETATM    8  N5  UNL     1      26.684  -1.979  52.972  1.00  0.00    -0.105 NA
HETATM    9  C12 UNL     1      26.918  -0.649  53.339  1.00  0.00     0.365 A 
HETATM   10  H11 UNL     1      26.516  -2.850  52.475  1.00  0.00     0.157 HD
ENDROOT
BRANCH   1  11
HETATM   11  C7  UNL     1      23.365   0.121  53.048  1.00  0.00     0.077 C 
BRANCH  11  12
HETATM   12  N1  UNL     1      22.298   0.886  52.481  1.00  0.00    -0.397 N 
HETATM   13  H8  UNL     1      21.795  -0.023  52.481  1.00  0.00     0.159 HD
BRANCH  12  14
HETATM   14  C6  UNL     1      22.563   2.286  52.279  1.00  0.00     0.157 C 
BRANCH  14  15
HETATM   15  C5  UNL     1      22.603   2.518  50.797  1.00  0.00    -0.041 A 
HETATM   16  C4  UNL     1      23.249   3.543  50.141  1.00  0.00     0.011 A 
HETATM   17  C3  UNL     1      23.170   3.601  48.764  1.00  0.00     0.037 A 
HETATM   18  C2  UNL     1      22.466   2.669  48.028  1.00  0.00     0.068 A 
HETATM   19  C16 UNL     1      21.808   1.633  48.633  1.00  0.00     0.037 A 
HETATM   20  C15 UNL     1      21.899   1.588  50.021  1.00  0.00     0.011 A 
BRANCH  18  21
HETATM   21  O1  UNL     1      22.395   2.744  46.647  1.00  0.00    -0.356 OA
HETATM   22  C1  UNL     1      21.480   3.656  46.041  1.00  0.00     0.210 C 
ENDBRANCH  18  21
ENDBRANCH  14  15
ENDBRANCH  12  14
ENDBRANCH  11  12
ENDBRANCH   1  11
BRANCH   9  23
HETATM   23  C13 UNL     1      28.277  -0.115  53.387  1.00  0.00     0.075 C 
HETATM   24  C14 UNL     1      29.550  -0.433  53.486  1.00  0.00     0.136 C 
HETATM   25 CL1  UNL     1      29.801  -2.163  53.619  1.00  0.00    -0.057 Cl
BRANCH  24  26
HETATM   26  O2  UNL     1      30.609   0.486  53.490  1.00  0.00    -0.350 OA
HETATM   27  H14 UNL     1      31.279   0.454  52.705  1.00  0.00     0.218 HD
ENDBRANCH  24  26
ENDBRANCH   9  23
TORSDOF 8
ENDMDL
