MODEL 1
REMARK VINA RESULT:      -7.3      0.000      0.000
REMARK  7 active torsions:
REMARK  status: ('A' for Active; 'I' for Inactive)
REMARK    1  A    between atoms: O1_1  and  C1_2 
REMARK    2  A    between atoms: C5_6  and  N1_7 
REMARK    3  A    between atoms: N1_7  and  C6_8 
REMARK    4  A    between atoms: C9_13  and  N4_14 
REMARK    5  A    between atoms: N4_14  and  C10_15 
REMARK    6  A    between atoms: C10_15  and  C11_16 
REMARK    7  A    between atoms: C12_17  and  C13_18 
ROOT
HETATM    1  C6  UNL     1      26.593   0.451  53.422  1.00  0.00     0.096 A 
HETATM    2  C7  UNL     1      27.248   0.352  54.624  1.00  0.00     0.151 A 
HETATM    3  N2  UNL     1      28.352   1.021  54.951  1.00  0.00    -0.252 NA
HETATM    4  C8  UNL     1      28.883   1.871  54.030  1.00  0.00     0.235 A 
HETATM    5  N3  UNL     1      28.274   1.994  52.847  1.00  0.00    -0.222 NA
HETATM    6  C9  UNL     1      27.168   1.323  52.526  1.00  0.00     0.153 A 
ENDROOT
BRANCH   1   7
HETATM    7  N1  UNL     1      25.432  -0.252  53.039  1.00  0.00    -0.352 N 
HETATM    8  H5  UNL     1      25.503  -1.110  52.488  1.00  0.00     0.166 HD
BRANCH   7   9
HETATM    9  C5  UNL     1      24.055  -0.018  53.270  1.00  0.00     0.035 A 
HETATM   10  C4  UNL     1      23.334   1.028  52.737  1.00  0.00     0.029 A 
HETATM   11  C3  UNL     1      21.987   1.244  52.936  1.00  0.00     0.005 A 
HETATM   12  C2  UNL     1      21.296   0.353  53.726  1.00  0.00     0.036 A 
HETATM   13  C1  UNL     1      21.929  -0.714  54.296  1.00  0.00     0.067 A 
HETATM   14  C14 UNL     1      23.267  -0.866  54.056  1.00  0.00     0.066 A 
BRANCH  13  15
HETATM   15  O1  UNL     1      21.240  -1.617  55.094  1.00  0.00    -0.361 OA
HETATM   16  H1  UNL     1      21.201  -2.612  54.914  1.00  0.00     0.217 HD
ENDBRANCH  13  15
ENDBRANCH   7   9
ENDBRANCH   1   7
BRANCH   6  17
HETATM   17  N4  UNL     1      26.676   1.606  51.196  1.00  0.00    -0.369 N 
HETATM   18  H8  UNL     1      26.907   0.996  50.382  1.00  0.00     0.161 HD
BRANCH  17  19
HETATM   19  C10 UNL     1      25.840   2.739  50.900  1.00  0.00     0.148 C 
BRANCH  19  20
HETATM   20  C11 UNL     1      26.522   3.656  49.940  1.00  0.00    -0.010 C 
HETATM   21  C12 UNL     1      26.155   4.888  49.531  1.00  0.00    -0.014 C 
BRANCH  21  22
HETATM   22  C13 UNL     1      26.863   5.797  48.557  1.00  0.00     0.141 C 
HETATM   23 CL1  UNL     1      28.539   5.189  48.334  1.00  0.00    -0.126 Cl
ENDBRANCH  21  22
ENDBRANCH  19  20
ENDBRANCH  17  19
ENDBRANCH   6  17
TORSDOF 7
ENDMDL
MODEL 2
REMARK VINA RESULT:      -7.2      2.478      4.721
REMARK  7 active torsions:
REMARK  status: ('A' for Active; 'I' for Inactive)
REMARK    1  A    between atoms: O1_1  and  C1_2 
REMARK    2  A    between atoms: C5_6  and  N1_7 
REMARK    3  A    between atoms: N1_7  and  C6_8 
REMARK    4  A    between atoms: C9_13  and  N4_14 
REMARK    5  A    between atoms: N4_14  and  C10_15 
REMARK    6  A    between atoms: C10_15  and  C11_16 
REMARK    7  A    between atoms: C12_17  and  C13_18 
ROOT
HETATM    1  C6  UNL     1      25.317   1.358  52.744  1.00  0.00     0.096 A 
HETATM    2  C7  UNL     1      24.168   0.675  53.053  1.00  0.00     0.151 A 
HETATM    3  N2  UNL     1      23.026   0.752  52.372  1.00  0.00    -0.252 NA
HETATM    4  C8  UNL     1      22.982   1.568  51.285  1.00  0.00     0.235 A 
HETATM    5  N3  UNL     1      24.081   2.250  50.951  1.00  0.00    -0.222 NA
HETATM    6  C9  UNL     1      25.222   2.169  51.636  1.00  0.00     0.153 A 
ENDROOT
BRANCH   1   7
HETATM    7  N1  UNL     1      26.537   1.311  53.450  1.00  0.00    -0.352 N 
HETATM    8  H5  UNL     1      26.756   2.016  54.156  1.00  0.00     0.166 HD
BRANCH   7   9
HETATM    9  C5  UNL     1      27.634   0.417  53.401  1.00  0.00     0.035 A 
HETATM   10  C4  UNL     1      28.947   0.769  53.629  1.00  0.00     0.029 A 
HETATM   11  C3  UNL     1      30.015  -0.102  53.610  1.00  0.00     0.005 A 
HETATM   12  C2  UNL     1      29.766  -1.431  53.346  1.00  0.00     0.036 A 
HETATM   13  C1  UNL     1      28.495  -1.869  53.108  1.00  0.00     0.067 A 
HETATM   14  C14 UNL     1      27.484  -0.950  53.142  1.00  0.00     0.066 A 
BRANCH  13  15
HETATM   15  O1  UNL     1      28.235  -3.207  52.840  1.00  0.00    -0.361 OA
HETATM   16  H1  UNL     1      28.940  -3.933  52.864  1.00  0.00     0.217 HD
ENDBRANCH  13  15
ENDBRANCH   7   9
ENDBRANCH   1   7
BRANCH   6  17
HETATM   17  N4  UNL     1      26.285   2.989  51.102  1.00  0.00    -0.369 N 
HETATM   18  H8  UNL     1      26.907   3.556  51.721  1.00  0.00     0.161 HD
BRANCH  17  19
HETATM   19  C10 UNL     1      26.564   3.087  49.694  1.00  0.00     0.148 C 
BRANCH  19  20
HETATM   20  C11 UNL     1      26.755   4.512  49.294  1.00  0.00    -0.010 C 
HETATM   21  C12 UNL     1      27.744   5.068  48.565  1.00  0.00    -0.014 C 
BRANCH  21  22
HETATM   22  C13 UNL     1      27.915   6.515  48.174  1.00  0.00     0.141 C 
HETATM   23 CL1  UNL     1      29.553   6.718  47.465  1.00  0.00    -0.126 Cl
ENDBRANCH  21  22
ENDBRANCH  19  20
ENDBRANCH  17  19
ENDBRANCH   6  17
TORSDOF 7
ENDMDL
MODEL 3
REMARK VINA RESULT:      -7.1      1.824      1.966
REMARK  7 active torsions:
REMARK  status: ('A' for Active; 'I' for Inactive)
REMARK    1  A    between atoms: O1_1  and  C1_2 
REMARK    2  A    between atoms: C5_6  and  N1_7 
REMARK    3  A    between atoms: N1_7  and  C6_8 
REMARK    4  A    between atoms: C9_13  and  N4_14 
REMARK    5  A    between atoms: N4_14  and  C10_15 
REMARK    6  A    between atoms: C10_15  and  C11_16 
REMARK    7  A    between atoms: C12_17  and  C13_18 
ROOT
HETATM    1  C6  UNL     1      26.494   0.683  53.247  1.00  0.00     0.096 A 
HETATM    2  C7  UNL     1      27.255   0.552  54.381  1.00  0.00     0.151 A 
HETATM    3  N2  UNL     1      28.344   1.267  54.659  1.00  0.00    -0.252 NA
HETATM    4  C8  UNL     1      28.743   2.203  53.756  1.00  0.00     0.235 A 
HETATM    5  N3  UNL     1      28.027   2.361  52.638  1.00  0.00    -0.222 NA
HETATM    6  C9  UNL     1      26.938   1.643  52.366  1.00  0.00     0.153 A 
ENDROOT
BRANCH   1   7
HETATM    7  N1  UNL     1      25.346  -0.066  52.917  1.00  0.00    -0.352 N 
HETATM    8  H5  UNL     1      25.429  -0.939  52.391  1.00  0.00     0.166 HD
BRANCH   7   9
HETATM    9  C5  UNL     1      23.969   0.133  53.177  1.00  0.00     0.035 A 
HETATM   10  C4  UNL     1      23.207   1.152  52.647  1.00  0.00     0.029 A 
HETATM   11  C3  UNL     1      21.859   1.334  52.874  1.00  0.00     0.005 A 
HETATM   12  C2  UNL     1      21.211   0.436  53.692  1.00  0.00     0.036 A 
HETATM   13  C1  UNL     1      21.887  -0.606  54.261  1.00  0.00     0.067 A 
HETATM   14  C14 UNL     1      23.222  -0.725  53.991  1.00  0.00     0.066 A 
BRANCH  13  15
HETATM   15  O1  UNL     1      21.241  -1.516  55.086  1.00  0.00    -0.361 OA
HETATM   16  H1  UNL     1      21.649  -2.392  55.387  1.00  0.00     0.217 HD
ENDBRANCH  13  15
ENDBRANCH   7   9
ENDBRANCH   1   7
BRANCH   6  17
HETATM   17  N4  UNL     1      26.316   1.976  51.105  1.00  0.00    -0.369 N 
HETATM   18  H8  UNL     1      25.654   1.325  50.629  1.00  0.00     0.161 HD
BRANCH  17  19
HETATM   19  C10 UNL     1      26.561   3.216  50.419  1.00  0.00     0.148 C 
BRANCH  19  20
HETATM   20  C11 UNL     1      25.398   3.576  49.555  1.00  0.00    -0.010 C 
HETATM   21  C12 UNL     1      24.132   3.114  49.592  1.00  0.00    -0.014 C 
BRANCH  21  22
HETATM   22  C13 UNL     1      22.972   3.495  48.705  1.00  0.00     0.141 C 
HETATM   23 CL1  UNL     1      22.568   2.084  47.668  1.00  0.00    -0.126 Cl
ENDBRANCH  21  22
ENDBRANCH  19  20
ENDBRANCH  17  19
ENDBRANCH   6  17
TORSDOF 7
ENDMDL
MODEL 4
REMARK VINA RESULT:      -7.1      2.606      4.794
REMARK  7 active torsions:
REMARK  status: ('A' for Active; 'I' for Inactive)
REMARK    1  A    between atoms: O1_1  and  C1_2 
REMARK    2  A    between atoms: C5_6  and  N1_7 
REMARK    3  A    between atoms: N1_7  and  C6_8 
REMARK    4  A    between atoms: C9_13  and  N4_14 
REMARK    5  A    between atoms: N4_14  and  C10_15 
REMARK    6  A    between atoms: C10_15  and  C11_16 
REMARK    7  A    between atoms: C12_17  and  C13_18 
ROOT
HETATM    1  C6  UNL     1      24.568   0.442  53.022  1.00  0.00     0.096 A 
HETATM    2  C7  UNL     1      24.132  -0.571  53.839  1.00  0.00     0.151 A 
HETATM    3  N2  UNL     1      22.879  -0.728  54.260  1.00  0.00    -0.252 NA
HETATM    4  C8  UNL     1      21.949   0.179  53.857  1.00  0.00     0.235 A 
HETATM    5  N3  UNL     1      22.334   1.181  53.060  1.00  0.00    -0.222 NA
HETATM    6  C9  UNL     1      23.590   1.332  52.641  1.00  0.00     0.153 A 
ENDROOT
BRANCH   1   7
HETATM    7  N1  UNL     1      25.888   0.646  52.569  1.00  0.00    -0.352 N 
HETATM    8  H5  UNL     1      26.096   1.382  51.891  1.00  0.00     0.166 HD
BRANCH   7   9
HETATM    9  C5  UNL     1      27.111   0.002  52.873  1.00  0.00     0.035 A 
HETATM   10  C4  UNL     1      28.245   0.640  53.327  1.00  0.00     0.029 A 
HETATM   11  C3  UNL     1      29.431   0.014  53.651  1.00  0.00     0.005 A 
HETATM   12  C2  UNL     1      29.501  -1.354  53.516  1.00  0.00     0.036 A 
HETATM   13  C1  UNL     1      28.425  -2.069  53.072  1.00  0.00     0.067 A 
HETATM   14  C14 UNL     1      27.282  -1.383  52.769  1.00  0.00     0.066 A 
BRANCH  13  15
HETATM   15  O1  UNL     1      28.488  -3.449  52.932  1.00  0.00    -0.361 OA
HETATM   16  H1  UNL     1      29.277  -4.010  53.229  1.00  0.00     0.217 HD
ENDBRANCH  13  15
ENDBRANCH   7   9
ENDBRANCH   1   7
BRANCH   6  17
HETATM   17  N4  UNL     1      23.787   2.482  51.787  1.00  0.00    -0.369 N 
HETATM   18  H8  UNL     1      24.108   3.400  52.165  1.00  0.00     0.161 HD
BRANCH  17  19
HETATM   19  C10 UNL     1      23.558   2.446  50.367  1.00  0.00     0.148 C 
BRANCH  19  20
HETATM   20  C11 UNL     1      24.211   3.611  49.701  1.00  0.00    -0.010 C 
HETATM   21  C12 UNL     1      25.473   4.071  49.828  1.00  0.00    -0.014 C 
BRANCH  21  22
HETATM   22  C13 UNL     1      26.109   5.254  49.142  1.00  0.00     0.141 C 
HETATM   23 CL1  UNL     1      27.747   4.770  48.585  1.00  0.00    -0.126 Cl
ENDBRANCH  21  22
ENDBRANCH  19  20
ENDBRANCH  17  19
ENDBRANCH   6  17
TORSDOF 7
ENDMDL
MODEL 5
REMARK VINA RESULT:      -7.1      3.529      6.262
REMARK  7 active torsions:
REMARK  status: ('A' for Active; 'I' for Inactive)
REMARK    1  A    between atoms: O1_1  and  C1_2 
REMARK    2  A    between atoms: C5_6  and  N1_7 
REMARK    3  A    between atoms: N1_7  and  C6_8 
REMARK    4  A    between atoms: C9_13  and  N4_14 
REMARK    5  A    between atoms: N4_14  and  C10_15 
REMARK    6  A    between atoms: C10_15  and  C11_16 
REMARK    7  A    between atoms: C12_17  and  C13_18 
ROOT
HETATM    1  C6  UNL     1      25.814   2.128  51.600  1.00  0.00     0.096 A 
HETATM    2  C7  UNL     1      26.638   2.622  50.620  1.00  0.00     0.151 A 
HETATM    3  N2  UNL     1      26.425   3.744  49.935  1.00  0.00    -0.252 NA
HETATM    4  C8  UNL     1      25.308   4.466  50.219  1.00  0.00     0.235 A 
HETATM    5  N3  UNL     1      24.480   4.019  51.168  1.00  0.00    -0.222 NA
HETATM    6  C9  UNL     1      24.699   2.895  51.851  1.00  0.00     0.153 A 
ENDROOT
BRANCH   1   7
HETATM    7  N1  UNL     1      26.001   0.939  52.333  1.00  0.00    -0.352 N 
HETATM    8  H5  UNL     1      25.198   0.409  52.678  1.00  0.00     0.166 HD
BRANCH   7   9
HETATM    9  C5  UNL     1      27.164   0.239  52.737  1.00  0.00     0.035 A 
HETATM   10  C4  UNL     1      28.285   0.826  53.284  1.00  0.00     0.029 A 
HETATM   11  C3  UNL     1      29.409   0.147  53.705  1.00  0.00     0.005 A 
HETATM   12  C2  UNL     1      29.426  -1.224  53.575  1.00  0.00     0.036 A 
HETATM   13  C1  UNL     1      28.359  -1.889  53.043  1.00  0.00     0.067 A 
HETATM   14  C14 UNL     1      27.278  -1.152  52.647  1.00  0.00     0.066 A 
BRANCH  13  15
HETATM   15  O1  UNL     1      28.368  -3.271  52.909  1.00  0.00    -0.361 OA
HETATM   16  H1  UNL     1      27.665  -3.793  52.401  1.00  0.00     0.217 HD
ENDBRANCH  13  15
ENDBRANCH   7   9
ENDBRANCH   1   7
BRANCH   6  17
HETATM   17  N4  UNL     1      23.678   2.598  52.831  1.00  0.00    -0.369 N 
HETATM   18  H8  UNL     1      23.762   2.908  53.824  1.00  0.00     0.161 HD
BRANCH  17  19
HETATM   19  C10 UNL     1      22.485   1.860  52.514  1.00  0.00     0.148 C 
BRANCH  19  20
HETATM   20  C11 UNL     1      22.476   0.547  53.224  1.00  0.00    -0.010 C 
HETATM   21  C12 UNL     1      21.565   0.049  54.085  1.00  0.00    -0.014 C 
BRANCH  21  22
HETATM   22  C13 UNL     1      21.579  -1.284  54.792  1.00  0.00     0.141 C 
HETATM   23 CL1  UNL     1      23.182  -1.488  55.578  1.00  0.00    -0.126 Cl
ENDBRANCH  21  22
ENDBRANCH  19  20
ENDBRANCH  17  19
ENDBRANCH   6  17
TORSDOF 7
ENDMDL
MODEL 6
REMARK VINA RESULT:      -7.0      3.583      5.204
REMARK  7 active torsions:
REMARK  status: ('A' for Active; 'I' for Inactive)
REMARK    1  A    between atoms: O1_1  and  C1_2 
REMARK    2  A    between atoms: C5_6  and  N1_7 
REMARK    3  A    between atoms: N1_7  and  C6_8 
REMARK    4  A    between atoms: C9_13  and  N4_14 
REMARK    5  A    between atoms: N4_14  and  C10_15 
REMARK    6  A    between atoms: C10_15  and  C11_16 
REMARK    7  A    between atoms: C12_17  and  C13_18 
ROOT
HETATM    1  C6  UNL     1      27.129   1.550  53.988  1.00  0.00     0.096 A 
HETATM    2  C7  UNL     1      28.366   1.892  53.505  1.00  0.00     0.151 A 
HETATM    3  N2  UNL     1      29.433   1.095  53.501  1.00  0.00    -0.252 NA
HETATM    4  C8  UNL     1      29.298  -0.158  54.014  1.00  0.00     0.235 A 
HETATM    5  N3  UNL     1      28.108  -0.529  54.494  1.00  0.00    -0.222 NA
HETATM    6  C9  UNL     1      27.043   0.273  54.495  1.00  0.00     0.153 A 
ENDROOT
BRANCH   1   7
HETATM    7  N1  UNL     1      25.984   2.373  54.020  1.00  0.00    -0.352 N 
HETATM    8  H5  UNL     1      25.786   2.956  54.836  1.00  0.00     0.166 HD
BRANCH   7   9
HETATM    9  C5  UNL     1      24.946   2.602  53.085  1.00  0.00     0.035 A 
HETATM   10  C4  UNL     1      24.627   1.759  52.042  1.00  0.00     0.029 A 
HETATM   11  C3  UNL     1      23.599   1.962  51.145  1.00  0.00     0.005 A 
HETATM   12  C2  UNL     1      22.823   3.091  51.292  1.00  0.00     0.036 A 
HETATM   13  C1  UNL     1      23.068   3.982  52.297  1.00  0.00     0.067 A 
HETATM   14  C14 UNL     1      24.103   3.716  53.150  1.00  0.00     0.066 A 
BRANCH  13  15
HETATM   15  O1  UNL     1      22.290   5.121  52.451  1.00  0.00    -0.361 OA
HETATM   16  H1  UNL     1      21.892   5.641  51.679  1.00  0.00     0.217 HD
ENDBRANCH  13  15
ENDBRANCH   7   9
ENDBRANCH   1   7
BRANCH   6  17
HETATM   17  N4  UNL     1      25.857  -0.328  55.061  1.00  0.00    -0.369 N 
HETATM   18  H8  UNL     1      25.617  -0.226  56.071  1.00  0.00     0.161 HD
BRANCH  17  19
HETATM   19  C10 UNL     1      24.928  -1.102  54.282  1.00  0.00     0.148 C 
BRANCH  19  20
HETATM   20  C11 UNL     1      23.523  -0.742  54.631  1.00  0.00    -0.010 C 
HETATM   21  C12 UNL     1      22.428  -0.714  53.843  1.00  0.00    -0.014 C 
BRANCH  21  22
HETATM   22  C13 UNL     1      21.015  -0.345  54.221  1.00  0.00     0.141 C 
HETATM   23 CL1  UNL     1      20.589   1.188  53.385  1.00  0.00    -0.126 Cl
ENDBRANCH  21  22
ENDBRANCH  19  20
ENDBRANCH  17  19
ENDBRANCH   6  17
TORSDOF 7
ENDMDL
MODEL 7
REMARK VINA RESULT:      -6.7      3.113      4.838
REMARK  7 active torsions:
REMARK  status: ('A' for Active; 'I' for Inactive)
REMARK    1  A    between atoms: O1_1  and  C1_2 
REMARK    2  A    between atoms: C5_6  and  N1_7 
REMARK    3  A    between atoms: N1_7  and  C6_8 
REMARK    4  A    between atoms: C9_13  and  N4_14 
REMARK    5  A    between atoms: N4_14  and  C10_15 
REMARK    6  A    between atoms: C10_15  and  C11_16 
REMARK    7  A    between atoms: C12_17  and  C13_18 
ROOT
HETATM    1  C6  UNL     1      27.117   1.332  52.862  1.00  0.00     0.096 A 
HETATM    2  C7  UNL     1      28.251   1.936  53.345  1.00  0.00     0.151 A 
HETATM    3  N2  UNL     1      28.971   1.498  54.376  1.00  0.00    -0.252 NA
HETATM    4  C8  UNL     1      28.562   0.364  55.007  1.00  0.00     0.235 A 
HETATM    5  N3  UNL     1      27.463  -0.254  54.565  1.00  0.00    -0.222 NA
HETATM    6  C9  UNL     1      26.746   0.189  53.533  1.00  0.00     0.153 A 
ENDROOT
BRANCH   1   7
HETATM    7  N1  UNL     1      26.325   1.777  51.784  1.00  0.00    -0.352 N 
HETATM    8  H5  UNL     1      26.569   1.528  50.823  1.00  0.00     0.166 HD
BRANCH   7   9
HETATM    9  C5  UNL     1      25.148   2.563  51.724  1.00  0.00     0.035 A 
HETATM   10  C4  UNL     1      24.564   3.188  52.804  1.00  0.00     0.029 A 
HETATM   11  C3  UNL     1      23.435   3.977  52.747  1.00  0.00     0.005 A 
HETATM   12  C2  UNL     1      22.835   4.165  51.522  1.00  0.00     0.036 A 
HETATM   13  C1  UNL     1      23.345   3.583  50.397  1.00  0.00     0.067 A 
HETATM   14  C14 UNL     1      24.467   2.813  50.528  1.00  0.00     0.066 A 
BRANCH  13  15
HETATM   15  O1  UNL     1      22.746   3.767  49.158  1.00  0.00    -0.361 OA
HETATM   16  H1  UNL     1      22.235   3.044  48.667  1.00  0.00     0.217 HD
ENDBRANCH  13  15
ENDBRANCH   7   9
ENDBRANCH   1   7
BRANCH   6  17
HETATM   17  N4  UNL     1      25.597  -0.630  53.223  1.00  0.00    -0.369 N 
HETATM   18  H8  UNL     1      25.524  -1.160  52.326  1.00  0.00     0.161 HD
BRANCH  17  19
HETATM   19  C10 UNL     1      24.479  -0.775  54.116  1.00  0.00     0.148 C 
BRANCH  19  20
HETATM   20  C11 UNL     1      23.312   0.019  53.630  1.00  0.00    -0.010 C 
HETATM   21  C12 UNL     1      22.595  -0.125  52.497  1.00  0.00    -0.014 C 
BRANCH  21  22
HETATM   22  C13 UNL     1      21.417   0.693  52.028  1.00  0.00     0.141 C 
HETATM   23 CL1  UNL     1      21.359   0.621  50.233  1.00  0.00    -0.126 Cl
ENDBRANCH  21  22
ENDBRANCH  19  20
ENDBRANCH  17  19
ENDBRANCH   6  17
TORSDOF 7
ENDMDL
MODEL 8
REMARK VINA RESULT:      -6.5      3.168      5.019
REMARK  7 active torsions:
REMARK  status: ('A' for Active; 'I' for Inactive)
REMARK    1  A    between atoms: O1_1  and  C1_2 
REMARK    2  A    between atoms: C5_6  and  N1_7 
REMARK    3  A    between atoms: N1_7  and  C6_8 
REMARK    4  A    between atoms: C9_13  and  N4_14 
REMARK    5  A    between atoms: N4_14  and  C10_15 
REMARK    6  A    between atoms: C10_15  and  C11_16 
REMARK    7  A    between atoms: C12_17  and  C13_18 
ROOT
HETATM    1  C6  UNL     1      23.557   3.324  52.611  1.00  0.00     0.096 A 
HETATM    2  C7  UNL     1      22.591   2.349  52.645  1.00  0.00     0.151 A 
HETATM    3  N2  UNL     1      21.312   2.528  52.318  1.00  0.00    -0.252 NA
HETATM    4  C8  UNL     1      20.920   3.768  51.920  1.00  0.00     0.235 A 
HETATM    5  N3  UNL     1      21.831   4.744  51.873  1.00  0.00    -0.222 NA
HETATM    6  C9  UNL     1      23.110   4.559  52.200  1.00  0.00     0.153 A 
ENDROOT
BRANCH   1   7
HETATM    7  N1  UNL     1      24.914   3.173  52.962  1.00  0.00    -0.352 N 
HETATM    8  H5  UNL     1      25.460   3.976  53.280  1.00  0.00     0.166 HD
BRANCH   7   9
HETATM    9  C5  UNL     1      25.776   2.050  52.981  1.00  0.00     0.035 A 
HETATM   10  C4  UNL     1      25.823   1.077  52.006  1.00  0.00     0.029 A 
HETATM   11  C3  UNL     1      26.680  -0.003  52.005  1.00  0.00     0.005 A 
HETATM   12  C2  UNL     1      27.563  -0.133  53.054  1.00  0.00     0.036 A 
HETATM   13  C1  UNL     1      27.586   0.784  54.065  1.00  0.00     0.067 A 
HETATM   14  C14 UNL     1      26.708   1.830  54.001  1.00  0.00     0.066 A 
BRANCH  13  15
HETATM   15  O1  UNL     1      28.473   0.661  55.126  1.00  0.00    -0.361 OA
HETATM   16  H1  UNL     1      28.793   1.441  55.686  1.00  0.00     0.217 HD
ENDBRANCH  13  15
ENDBRANCH   7   9
ENDBRANCH   1   7
BRANCH   6  17
HETATM   17  N4  UNL     1      23.923   5.748  52.079  1.00  0.00    -0.369 N 
HETATM   18  H8  UNL     1      24.259   6.274  52.916  1.00  0.00     0.161 HD
BRANCH  17  19
HETATM   19  C10 UNL     1      24.326   6.290  50.809  1.00  0.00     0.148 C 
BRANCH  19  20
HETATM   20  C11 UNL     1      25.329   5.401  50.153  1.00  0.00    -0.010 C 
HETATM   21  C12 UNL     1      26.348   5.725  49.330  1.00  0.00    -0.014 C 
BRANCH  21  22
HETATM   22  C13 UNL     1      27.350   4.804  48.679  1.00  0.00     0.141 C 
HETATM   23 CL1  UNL     1      28.781   5.778  48.198  1.00  0.00    -0.126 Cl
ENDBRANCH  21  22
ENDBRANCH  19  20
ENDBRANCH  17  19
ENDBRANCH   6  17
TORSDOF 7
ENDMDL
MODEL 9
REMARK VINA RESULT:      -6.2      3.843      6.464
REMARK  7 active torsions:
REMARK  status: ('A' for Active; 'I' for Inactive)
REMARK    1  A    between atoms: O1_1  and  C1_2 
REMARK    2  A    between atoms: C5_6  and  N1_7 
REMARK    3  A    between atoms: N1_7  and  C6_8 
REMARK    4  A    between atoms: C9_13  and  N4_14 
REMARK    5  A    between atoms: N4_14  and  C10_15 
REMARK    6  A    between atoms: C10_15  and  C11_16 
REMARK    7  A    between atoms: C12_17  and  C13_18 
ROOT
HETATM    1  C6  UNL     1      25.125   2.867  51.482  1.00  0.00     0.096 A 
HETATM    2  C7  UNL     1      25.161   4.053  50.792  1.00  0.00     0.151 A 
HETATM    3  N2  UNL     1      24.270   5.036  50.912  1.00  0.00    -0.252 NA
HETATM    4  C8  UNL     1      23.240   4.863  51.785  1.00  0.00     0.235 A 
HETATM    5  N3  UNL     1      23.171   3.722  52.476  1.00  0.00    -0.222 NA
HETATM    6  C9  UNL     1      24.065   2.742  52.351  1.00  0.00     0.153 A 
ENDROOT
BRANCH   1   7
HETATM    7  N1  UNL     1      26.042   1.802  51.367  1.00  0.00    -0.352 N 
HETATM    8  H5  UNL     1      26.114   1.270  50.498  1.00  0.00     0.166 HD
BRANCH   7   9
HETATM    9  C5  UNL     1      26.981   1.250  52.272  1.00  0.00     0.035 A 
HETATM   10  C4  UNL     1      27.171  -0.098  52.484  1.00  0.00     0.029 A 
HETATM   11  C3  UNL     1      28.103  -0.642  53.342  1.00  0.00     0.005 A 
HETATM   12  C2  UNL     1      28.915   0.217  54.047  1.00  0.00     0.036 A 
HETATM   13  C1  UNL     1      28.798   1.570  53.900  1.00  0.00     0.067 A 
HETATM   14  C14 UNL     1      27.851   2.039  53.032  1.00  0.00     0.066 A 
BRANCH  13  15
HETATM   15  O1  UNL     1      29.613   2.443  54.608  1.00  0.00    -0.361 OA
HETATM   16  H1  UNL     1      30.394   2.147  55.179  1.00  0.00     0.217 HD
ENDBRANCH  13  15
ENDBRANCH   7   9
ENDBRANCH   1   7
BRANCH   6  17
HETATM   17  N4  UNL     1      23.801   1.596  53.192  1.00  0.00    -0.369 N 
HETATM   18  H8  UNL     1      24.007   1.606  54.215  1.00  0.00     0.161 HD
BRANCH  17  19
HETATM   19  C10 UNL     1      23.240   0.372  52.688  1.00  0.00     0.148 C 
BRANCH  19  20
HETATM   20  C11 UNL     1      21.755   0.377  52.828  1.00  0.00    -0.010 C 
HETATM   21  C12 UNL     1      20.807   0.258  51.876  1.00  0.00    -0.014 C 
BRANCH  21  22
HETATM   22  C13 UNL     1      19.308   0.267  52.044  1.00  0.00     0.141 C 
HETATM   23 CL1  UNL     1      18.558   0.436  50.420  1.00  0.00    -0.126 Cl
ENDBRANCH  21  22
ENDBRANCH  19  20
ENDBRANCH  17  19
ENDBRANCH   6  17
TORSDOF 7
ENDMDL
