MODEL 1
REMARK VINA RESULT:      -8.7      0.000      0.000
REMARK  3 active torsions:
REMARK  status: ('A' for Active; 'I' for Inactive)
REMARK    1  A    between atoms: C2_2  and  C3_3 
REMARK    2  A    between atoms: C3_3  and  C4_4 
REMARK    3  A    between atoms: C12_13  and  C13_14 
ROOT
HETATM    1  C4  UNL     1      24.734   1.036  52.379  1.00  0.00    -0.035 C 
HETATM    2  C5  UNL     1      23.911   2.116  52.261  1.00  0.00     0.074 C 
HETATM    3  C6  UNL     1      22.677   1.740  52.722  1.00  0.00    -0.055 C 
HETATM    4  C7  UNL     1      21.652   1.407  53.116  1.00  0.00     0.011 C 
HETATM    5  N1  UNL     1      20.447   0.993  53.594  1.00  0.00    -0.345 N 
HETATM    6  C8  UNL     1      20.691  -0.283  52.943  1.00  0.00     0.186 C 
HETATM    7  C9  UNL     1      21.895  -0.893  53.510  1.00  0.00     0.028 C 
HETATM    8  C10 UNL     1      22.905  -1.039  52.610  1.00  0.00     0.039 C 
HETATM    9  C11 UNL     1      24.113  -0.215  52.906  1.00  0.00    -0.016 C 
HETATM   10  C12 UNL     1      24.924  -0.562  53.874  1.00  0.00    -0.014 C 
HETATM   11  C19 UNL     1      24.450  -1.000  55.233  1.00  0.00     0.030 C 
HETATM   12  C20 UNL     1      23.207  -1.347  55.642  1.00  0.00     0.089 C 
HETATM   13  N2  UNL     1      21.989  -1.271  54.874  1.00  0.00    -0.368 N 
HETATM   14  H7  UNL     1      19.857   1.620  54.167  1.00  0.00     0.170 HD
HETATM   15  H18 UNL     1      21.052  -1.477  55.225  1.00  0.00     0.165 HD
ENDROOT
BRANCH  10  16
HETATM   16  C13 UNL     1      26.378  -0.605  53.701  1.00  0.00    -0.025 A 
HETATM   17  C14 UNL     1      26.971   0.219  54.714  1.00  0.00     0.012 A 
HETATM   18  C15 UNL     1      28.368   0.256  54.856  1.00  0.00     0.001 A 
HETATM   19  C16 UNL     1      29.160  -0.500  54.023  1.00  0.00     0.000 A 
HETATM   20  C17 UNL     1      28.603  -1.296  53.048  1.00  0.00     0.001 A 
HETATM   21  C18 UNL     1      27.244  -1.376  52.857  1.00  0.00     0.012 A 
ENDBRANCH  10  16
BRANCH   1  22
HETATM   22  C3  UNL     1      26.092   1.116  51.983  1.00  0.00     0.066 C 
BRANCH  22  23
HETATM   23  C2  UNL     1      26.085   2.553  51.382  1.00  0.00    -0.032 C 
HETATM   24  C1  UNL     1      26.518   2.931  50.198  1.00  0.00     0.007 C 
ENDBRANCH  22  23
ENDBRANCH   1  22
TORSDOF 3
ENDMDL
MODEL 2
REMARK VINA RESULT:      -8.2      2.090      5.260
REMARK  3 active torsions:
REMARK  status: ('A' for Active; 'I' for Inactive)
REMARK    1  A    between atoms: C2_2  and  C3_3 
REMARK    2  A    between atoms: C3_3  and  C4_4 
REMARK    3  A    between atoms: C12_13  and  C13_14 
ROOT
HETATM    1  C4  UNL     1      25.579   1.869  51.636  1.00  0.00    -0.035 C 
HETATM    2  C5  UNL     1      26.733   1.341  51.138  1.00  0.00     0.074 C 
HETATM    3  C6  UNL     1      27.267   0.540  52.111  1.00  0.00    -0.055 C 
HETATM    4  C7  UNL     1      27.697  -0.131  52.938  1.00  0.00     0.011 C 
HETATM    5  N1  UNL     1      28.184  -0.926  53.929  1.00  0.00    -0.345 N 
HETATM    6  C8  UNL     1      27.756   0.089  54.876  1.00  0.00     0.186 C 
HETATM    7  C9  UNL     1      26.304   0.252  54.786  1.00  0.00     0.028 C 
HETATM    8  C10 UNL     1      25.922   1.487  54.364  1.00  0.00     0.039 C 
HETATM    9  C11 UNL     1      25.234   1.498  53.040  1.00  0.00    -0.016 C 
HETATM   10  C12 UNL     1      23.996   1.080  52.939  1.00  0.00    -0.014 C 
HETATM   11  C19 UNL     1      23.493  -0.178  53.594  1.00  0.00     0.030 C 
HETATM   12  C20 UNL     1      24.072  -0.947  54.545  1.00  0.00     0.089 C 
HETATM   13  N2  UNL     1      25.398  -0.795  55.094  1.00  0.00    -0.368 N 
HETATM   14  H7  UNL     1      28.625  -1.837  53.714  1.00  0.00     0.170 HD
HETATM   15  H18 UNL     1      25.838  -1.426  55.765  1.00  0.00     0.165 HD
ENDROOT
BRANCH  10  16
HETATM   16  C13 UNL     1      22.971   1.835  52.217  1.00  0.00    -0.025 A 
HETATM   17  C14 UNL     1      22.324   0.942  51.299  1.00  0.00     0.012 A 
HETATM   18  C15 UNL     1      21.209   1.380  50.565  1.00  0.00     0.001 A 
HETATM   19  C16 UNL     1      20.743   2.663  50.733  1.00  0.00     0.000 A 
HETATM   20  C17 UNL     1      21.353   3.529  51.611  1.00  0.00     0.001 A 
HETATM   21  C18 UNL     1      22.448   3.163  52.358  1.00  0.00     0.012 A 
ENDBRANCH  10  16
BRANCH   1  22
HETATM   22  C3  UNL     1      24.788   2.746  50.853  1.00  0.00     0.066 C 
BRANCH  22  23
HETATM   23  C2  UNL     1      25.904   3.317  49.928  1.00  0.00    -0.032 C 
HETATM   24  C1  UNL     1      25.956   4.509  49.374  1.00  0.00     0.007 C 
ENDBRANCH  22  23
ENDBRANCH   1  22
TORSDOF 3
ENDMDL
MODEL 3
REMARK VINA RESULT:      -8.2      2.401      5.938
REMARK  3 active torsions:
REMARK  status: ('A' for Active; 'I' for Inactive)
REMARK    1  A    between atoms: C2_2  and  C3_3 
REMARK    2  A    between atoms: C3_3  and  C4_4 
REMARK    3  A    between atoms: C12_13  and  C13_14 
ROOT
HETATM    1  C4  UNL     1      23.831  -0.445  53.533  1.00  0.00    -0.035 C 
HETATM    2  C5  UNL     1      24.264  -0.805  54.775  1.00  0.00     0.074 C 
HETATM    3  C6  UNL     1      25.607  -0.540  54.829  1.00  0.00    -0.055 C 
HETATM    4  C7  UNL     1      26.731  -0.306  54.858  1.00  0.00     0.011 C 
HETATM    5  N1  UNL     1      28.060  -0.016  54.871  1.00  0.00    -0.345 N 
HETATM    6  C8  UNL     1      28.121  -0.496  53.501  1.00  0.00     0.186 C 
HETATM    7  C9  UNL     1      27.251   0.329  52.661  1.00  0.00     0.028 C 
HETATM    8  C10 UNL     1      26.214  -0.358  52.112  1.00  0.00     0.039 C 
HETATM    9  C11 UNL     1      24.869   0.073  52.595  1.00  0.00    -0.016 C 
HETATM   10  C12 UNL     1      24.349   1.198  52.170  1.00  0.00    -0.014 C 
HETATM   11  C19 UNL     1      25.124   2.484  52.076  1.00  0.00     0.030 C 
HETATM   12  C20 UNL     1      26.459   2.694  52.154  1.00  0.00     0.089 C 
HETATM   13  N2  UNL     1      27.473   1.717  52.464  1.00  0.00    -0.368 N 
HETATM   14  H7  UNL     1      28.510   0.383  55.713  1.00  0.00     0.170 HD
HETATM   15  H18 UNL     1      28.469   1.912  52.582  1.00  0.00     0.165 HD
ENDROOT
BRANCH  10  16
HETATM   16  C13 UNL     1      22.967   1.291  51.695  1.00  0.00    -0.025 A 
HETATM   17  C14 UNL     1      22.356   2.426  52.325  1.00  0.00     0.012 A 
HETATM   18  C15 UNL     1      21.061   2.822  51.949  1.00  0.00     0.001 A 
HETATM   19  C16 UNL     1      20.388   2.119  50.976  1.00  0.00     0.000 A 
HETATM   20  C17 UNL     1      20.964   1.030  50.363  1.00  0.00     0.001 A 
HETATM   21  C18 UNL     1      22.226   0.591  50.686  1.00  0.00     0.012 A 
ENDBRANCH  10  16
BRANCH   1  22
HETATM   22  C3  UNL     1      22.470  -0.597  53.171  1.00  0.00     0.066 C 
BRANCH  22  23
HETATM   23  C2  UNL     1      21.822  -0.390  54.572  1.00  0.00    -0.032 C 
HETATM   24  C1  UNL     1      20.729   0.284  54.861  1.00  0.00     0.007 C 
ENDBRANCH  22  23
ENDBRANCH   1  22
TORSDOF 3
ENDMDL
MODEL 4
REMARK VINA RESULT:      -8.1      2.332      4.541
REMARK  3 active torsions:
REMARK  status: ('A' for Active; 'I' for Inactive)
REMARK    1  A    between atoms: C2_2  and  C3_3 
REMARK    2  A    between atoms: C3_3  and  C4_4 
REMARK    3  A    between atoms: C12_13  and  C13_14 
ROOT
HETATM    1  C4  UNL     1      23.513   1.102  52.450  1.00  0.00    -0.035 C 
HETATM    2  C5  UNL     1      22.386   0.837  51.730  1.00  0.00     0.074 C 
HETATM    3  C6  UNL     1      22.174   1.905  50.899  1.00  0.00    -0.055 C 
HETATM    4  C7  UNL     1      22.016   2.806  50.206  1.00  0.00     0.011 C 
HETATM    5  N1  UNL     1      21.852   3.882  49.388  1.00  0.00    -0.345 N 
HETATM    6  C8  UNL     1      22.280   4.718  50.497  1.00  0.00     0.186 C 
HETATM    7  C9  UNL     1      23.646   4.353  50.878  1.00  0.00     0.028 C 
HETATM    8  C10 UNL     1      23.743   3.851  52.138  1.00  0.00     0.039 C 
HETATM    9  C11 UNL     1      24.164   2.421  52.197  1.00  0.00    -0.016 C 
HETATM   10  C12 UNL     1      25.413   2.094  51.970  1.00  0.00    -0.014 C 
HETATM   11  C19 UNL     1      26.221   2.659  50.833  1.00  0.00     0.030 C 
HETATM   12  C20 UNL     1      25.957   3.713  50.027  1.00  0.00     0.089 C 
HETATM   13  N2  UNL     1      24.748   4.499  49.997  1.00  0.00    -0.368 N 
HETATM   14  H7  UNL     1      21.530   3.766  48.412  1.00  0.00     0.170 HD
HETATM   15  H18 UNL     1      24.545   5.249  49.335  1.00  0.00     0.165 HD
ENDROOT
BRANCH  10  16
HETATM   16  C13 UNL     1      26.155   1.182  52.842  1.00  0.00    -0.025 A 
HETATM   17  C14 UNL     1      26.644   0.098  52.039  1.00  0.00     0.012 A 
HETATM   18  C15 UNL     1      27.500  -0.861  52.605  1.00  0.00     0.001 A 
HETATM   19  C16 UNL     1      27.866  -0.754  53.927  1.00  0.00     0.000 A 
HETATM   20  C17 UNL     1      27.406   0.281  54.708  1.00  0.00     0.001 A 
HETATM   21  C18 UNL     1      26.565   1.251  54.214  1.00  0.00     0.012 A 
ENDBRANCH  10  16
BRANCH   1  22
HETATM   22  C3  UNL     1      23.996   0.172  53.403  1.00  0.00     0.066 C 
BRANCH  22  23
HETATM   23  C2  UNL     1      22.640  -0.461  53.833  1.00  0.00    -0.032 C 
HETATM   24  C1  UNL     1      22.368  -1.094  54.954  1.00  0.00     0.007 C 
ENDBRANCH  22  23
ENDBRANCH   1  22
TORSDOF 3
ENDMDL
MODEL 5
REMARK VINA RESULT:      -7.9      2.540      5.307
REMARK  3 active torsions:
REMARK  status: ('A' for Active; 'I' for Inactive)
REMARK    1  A    between atoms: C2_2  and  C3_3 
REMARK    2  A    between atoms: C3_3  and  C4_4 
REMARK    3  A    between atoms: C12_13  and  C13_14 
ROOT
HETATM    1  C4  UNL     1      25.198   1.849  53.350  1.00  0.00    -0.035 C 
HETATM    2  C5  UNL     1      26.067   2.800  52.905  1.00  0.00     0.074 C 
HETATM    3  C6  UNL     1      27.333   2.306  53.075  1.00  0.00    -0.055 C 
HETATM    4  C7  UNL     1      28.386   1.872  53.220  1.00  0.00     0.011 C 
HETATM    5  N1  UNL     1      29.625   1.336  53.395  1.00  0.00    -0.345 N 
HETATM    6  C8  UNL     1      29.145   0.782  54.650  1.00  0.00     0.186 C 
HETATM    7  C9  UNL     1      28.037  -0.136  54.381  1.00  0.00     0.028 C 
HETATM    8  C10 UNL     1      26.855   0.267  54.919  1.00  0.00     0.039 C 
HETATM    9  C11 UNL     1      25.807   0.608  53.912  1.00  0.00    -0.016 C 
HETATM   10  C12 UNL     1      25.187  -0.346  53.262  1.00  0.00    -0.014 C 
HETATM   11  C19 UNL     1      25.893  -1.529  52.658  1.00  0.00     0.030 C 
HETATM   12  C20 UNL     1      27.160  -1.967  52.847  1.00  0.00     0.089 C 
HETATM   13  N2  UNL     1      28.195  -1.319  53.614  1.00  0.00    -0.368 N 
HETATM   14  H7  UNL     1      30.371   1.478  52.694  1.00  0.00     0.170 HD
HETATM   15  H18 UNL     1      29.163  -1.635  53.690  1.00  0.00     0.165 HD
ENDROOT
BRANCH  10  16
HETATM   16  C13 UNL     1      23.731  -0.372  53.110  1.00  0.00    -0.025 A 
HETATM   17  C14 UNL     1      23.160  -0.784  54.360  1.00  0.00     0.012 A 
HETATM   18  C15 UNL     1      21.765  -0.771  54.531  1.00  0.00     0.001 A 
HETATM   19  C16 UNL     1      20.955  -0.363  53.497  1.00  0.00     0.000 A 
HETATM   20  C17 UNL     1      21.490   0.036  52.294  1.00  0.00     0.001 A 
HETATM   21  C18 UNL     1      22.845   0.046  52.063  1.00  0.00     0.012 A 
ENDBRANCH  10  16
BRANCH   1  22
HETATM   22  C3  UNL     1      23.799   2.068  53.300  1.00  0.00     0.066 C 
BRANCH  22  23
HETATM   23  C2  UNL     1      23.802   3.524  52.746  1.00  0.00    -0.032 C 
HETATM   24  C1  UNL     1      22.827   4.148  52.119  1.00  0.00     0.007 C 
ENDBRANCH  22  23
ENDBRANCH   1  22
TORSDOF 3
ENDMDL
MODEL 6
REMARK VINA RESULT:      -7.7      2.602      5.709
REMARK  3 active torsions:
REMARK  status: ('A' for Active; 'I' for Inactive)
REMARK    1  A    between atoms: C2_2  and  C3_3 
REMARK    2  A    between atoms: C3_3  and  C4_4 
REMARK    3  A    between atoms: C12_13  and  C13_14 
ROOT
HETATM    1  C4  UNL     1      24.170   2.828  51.103  1.00  0.00    -0.035 C 
HETATM    2  C5  UNL     1      25.335   2.869  50.396  1.00  0.00     0.074 C 
HETATM    3  C6  UNL     1      26.317   2.353  51.200  1.00  0.00    -0.055 C 
HETATM    4  C7  UNL     1      27.125   1.914  51.886  1.00  0.00     0.011 C 
HETATM    5  N1  UNL     1      28.065   1.383  52.714  1.00  0.00    -0.345 N 
HETATM    6  C8  UNL     1      27.416   2.084  53.808  1.00  0.00     0.186 C 
HETATM    7  C9  UNL     1      26.040   1.601  53.942  1.00  0.00     0.028 C 
HETATM    8  C10 UNL     1      25.103   2.558  53.704  1.00  0.00     0.039 C 
HETATM    9  C11 UNL     1      24.261   2.305  52.498  1.00  0.00    -0.016 C 
HETATM   10  C12 UNL     1      23.321   1.393  52.533  1.00  0.00    -0.014 C 
HETATM   11  C19 UNL     1      23.520   0.023  53.124  1.00  0.00     0.030 C 
HETATM   12  C20 UNL     1      24.524  -0.443  53.903  1.00  0.00     0.089 C 
HETATM   13  N2  UNL     1      25.731   0.256  54.270  1.00  0.00    -0.368 N 
HETATM   14  H7  UNL     1      28.807   0.761  52.349  1.00  0.00     0.170 HD
HETATM   15  H18 UNL     1      26.506  -0.139  54.806  1.00  0.00     0.165 HD
ENDROOT
BRANCH  10  16
HETATM   16  C13 UNL     1      21.965   1.646  52.042  1.00  0.00    -0.025 A 
HETATM   17  C14 UNL     1      21.605   0.575  51.158  1.00  0.00     0.012 A 
HETATM   18  C15 UNL     1      20.300   0.503  50.642  1.00  0.00     0.001 A 
HETATM   19  C16 UNL     1      19.374   1.461  50.989  1.00  0.00     0.000 A 
HETATM   20  C17 UNL     1      19.707   2.492  51.837  1.00  0.00     0.001 A 
HETATM   21  C18 UNL     1      20.966   2.619  52.375  1.00  0.00     0.012 A 
ENDBRANCH  10  16
BRANCH   1  22
HETATM   22  C3  UNL     1      22.961   3.294  50.531  1.00  0.00     0.066 C 
BRANCH  22  23
HETATM   23  C2  UNL     1      23.297   3.058  49.029  1.00  0.00    -0.032 C 
HETATM   24  C1  UNL     1      22.538   2.493  48.114  1.00  0.00     0.007 C 
ENDBRANCH  22  23
ENDBRANCH   1  22
TORSDOF 3
ENDMDL
MODEL 7
REMARK VINA RESULT:      -7.7      2.530      5.528
REMARK  3 active torsions:
REMARK  status: ('A' for Active; 'I' for Inactive)
REMARK    1  A    between atoms: C2_2  and  C3_3 
REMARK    2  A    between atoms: C3_3  and  C4_4 
REMARK    3  A    between atoms: C12_13  and  C13_14 
ROOT
HETATM    1  C4  UNL     1      25.469   2.543  51.072  1.00  0.00    -0.035 C 
HETATM    2  C5  UNL     1      26.616   1.807  51.032  1.00  0.00     0.074 C 
HETATM    3  C6  UNL     1      26.443   0.740  51.873  1.00  0.00    -0.055 C 
HETATM    4  C7  UNL     1      26.277  -0.151  52.578  1.00  0.00     0.011 C 
HETATM    5  N1  UNL     1      26.056  -1.203  53.413  1.00  0.00    -0.345 N 
HETATM    6  C8  UNL     1      25.369  -0.280  54.300  1.00  0.00     0.186 C 
HETATM    7  C9  UNL     1      24.215   0.291  53.604  1.00  0.00     0.028 C 
HETATM    8  C10 UNL     1      24.301   1.636  53.421  1.00  0.00     0.039 C 
HETATM    9  C11 UNL     1      24.401   2.055  51.992  1.00  0.00    -0.016 C 
HETATM   10  C12 UNL     1      23.342   2.018  51.222  1.00  0.00    -0.014 C 
HETATM   11  C19 UNL     1      22.384   0.858  51.188  1.00  0.00     0.030 C 
HETATM   12  C20 UNL     1      22.265  -0.188  52.040  1.00  0.00     0.089 C 
HETATM   13  N2  UNL     1      23.128  -0.501  53.153  1.00  0.00    -0.368 N 
HETATM   14  H7  UNL     1      26.395  -2.151  53.177  1.00  0.00     0.170 HD
HETATM   15  H18 UNL     1      23.056  -1.331  53.743  1.00  0.00     0.165 HD
ENDROOT
BRANCH  10  16
HETATM   16  C13 UNL     1      22.964   3.136  50.355  1.00  0.00    -0.025 A 
HETATM   17  C14 UNL     1      22.878   2.646  49.009  1.00  0.00     0.012 A 
HETATM   18  C15 UNL     1      22.407   3.488  47.987  1.00  0.00     0.001 A 
HETATM   19  C16 UNL     1      22.031   4.778  48.284  1.00  0.00     0.000 A 
HETATM   20  C17 UNL     1      22.108   5.259  49.571  1.00  0.00     0.001 A 
HETATM   21  C18 UNL     1      22.560   4.487  50.615  1.00  0.00     0.012 A 
ENDBRANCH  10  16
BRANCH   1  22
HETATM   22  C3  UNL     1      25.340   3.721  50.295  1.00  0.00     0.066 C 
BRANCH  22  23
HETATM   23  C2  UNL     1      26.697   3.658  49.532  1.00  0.00    -0.032 C 
HETATM   24  C1  UNL     1      27.264   4.609  48.821  1.00  0.00     0.007 C 
ENDBRANCH  22  23
ENDBRANCH   1  22
TORSDOF 3
ENDMDL
MODEL 8
REMARK VINA RESULT:      -7.6      2.927      5.476
REMARK  3 active torsions:
REMARK  status: ('A' for Active; 'I' for Inactive)
REMARK    1  A    between atoms: C2_2  and  C3_3 
REMARK    2  A    between atoms: C3_3  and  C4_4 
REMARK    3  A    between atoms: C12_13  and  C13_14 
ROOT
HETATM    1  C4  UNL     1      20.461   0.802  52.810  1.00  0.00    -0.035 C 
HETATM    2  C5  UNL     1      19.500  -0.162  52.877  1.00  0.00     0.074 C 
HETATM    3  C6  UNL     1      18.746  -0.065  51.738  1.00  0.00    -0.055 C 
HETATM    4  C7  UNL     1      18.129   0.029  50.774  1.00  0.00     0.011 C 
HETATM    5  N1  UNL     1      17.416   0.154  49.622  1.00  0.00    -0.345 N 
HETATM    6  C8  UNL     1      17.543   1.594  49.766  1.00  0.00     0.186 C 
HETATM    7  C9  UNL     1      18.961   1.959  49.733  1.00  0.00     0.028 C 
HETATM    8  C10 UNL     1      19.407   2.511  50.893  1.00  0.00     0.039 C 
HETATM    9  C11 UNL     1      20.425   1.690  51.611  1.00  0.00    -0.016 C 
HETATM   10  C12 UNL     1      21.656   1.632  51.164  1.00  0.00    -0.014 C 
HETATM   11  C19 UNL     1      22.000   1.440  49.712  1.00  0.00     0.030 C 
HETATM   12  C20 UNL     1      21.208   1.532  48.618  1.00  0.00     0.089 C 
HETATM   13  N2  UNL     1      19.780   1.734  48.597  1.00  0.00    -0.368 N 
HETATM   14  H7  UNL     1      17.076  -0.680  49.112  1.00  0.00     0.170 HD
HETATM   15  H18 UNL     1      19.194   1.735  47.761  1.00  0.00     0.165 HD
ENDROOT
BRANCH  10  16
HETATM   16  C13 UNL     1      22.816   1.804  52.041  1.00  0.00    -0.025 A 
HETATM   17  C14 UNL     1      23.619   0.619  51.954  1.00  0.00     0.012 A 
HETATM   18  C15 UNL     1      24.864   0.568  52.602  1.00  0.00     0.001 A 
HETATM   19  C16 UNL     1      25.307   1.658  53.316  1.00  0.00     0.000 A 
HETATM   20  C17 UNL     1      24.548   2.802  53.405  1.00  0.00     0.001 A 
HETATM   21  C18 UNL     1      23.320   2.915  52.795  1.00  0.00     0.012 A 
ENDBRANCH  10  16
BRANCH   1  22
HETATM   22  C3  UNL     1      21.408   0.952  53.853  1.00  0.00     0.066 C 
BRANCH  22  23
HETATM   23  C2  UNL     1      21.307  -0.471  54.478  1.00  0.00    -0.032 C 
HETATM   24  C1  UNL     1      22.283  -1.206  54.966  1.00  0.00     0.007 C 
ENDBRANCH  22  23
ENDBRANCH   1  22
TORSDOF 3
ENDMDL
MODEL 9
REMARK VINA RESULT:      -7.6      3.190      5.480
REMARK  3 active torsions:
REMARK  status: ('A' for Active; 'I' for Inactive)
REMARK    1  A    between atoms: C2_2  and  C3_3 
REMARK    2  A    between atoms: C3_3  and  C4_4 
REMARK    3  A    between atoms: C12_13  and  C13_14 
ROOT
HETATM    1  C4  UNL     1      23.009   2.306  51.265  1.00  0.00    -0.035 C 
HETATM    2  C5  UNL     1      23.293   3.601  50.950  1.00  0.00     0.074 C 
HETATM    3  C6  UNL     1      22.585   3.909  49.819  1.00  0.00    -0.055 C 
HETATM    4  C7  UNL     1      21.980   4.150  48.874  1.00  0.00     0.011 C 
HETATM    5  N1  UNL     1      21.249   4.415  47.757  1.00  0.00    -0.345 N 
HETATM    6  C8  UNL     1      21.569   3.074  47.298  1.00  0.00     0.186 C 
HETATM    7  C9  UNL     1      21.032   2.097  48.247  1.00  0.00     0.028 C 
HETATM    8  C10 UNL     1      21.991   1.355  48.864  1.00  0.00     0.039 C 
HETATM    9  C11 UNL     1      22.092   1.584  50.335  1.00  0.00    -0.016 C 
HETATM   10  C12 UNL     1      21.188   1.085  51.141  1.00  0.00    -0.014 C 
HETATM   11  C19 UNL     1      19.709   1.155  50.868  1.00  0.00     0.030 C 
HETATM   12  C20 UNL     1      19.056   1.483  49.729  1.00  0.00     0.089 C 
HETATM   13  N2  UNL     1      19.643   1.964  48.502  1.00  0.00    -0.368 N 
HETATM   14  H7  UNL     1      20.786   5.331  47.628  1.00  0.00     0.170 HD
HETATM   15  H18 UNL     1      19.125   2.268  47.676  1.00  0.00     0.165 HD
ENDROOT
BRANCH  10  16
HETATM   16  C13 UNL     1      21.541   0.362  52.363  1.00  0.00    -0.025 A 
HETATM   17  C14 UNL     1      20.779   0.916  53.445  1.00  0.00     0.012 A 
HETATM   18  C15 UNL     1      20.832   0.320  54.716  1.00  0.00     0.001 A 
HETATM   19  C16 UNL     1      21.615  -0.794  54.916  1.00  0.00     0.000 A 
HETATM   20  C17 UNL     1      22.349  -1.336  53.887  1.00  0.00     0.001 A 
HETATM   21  C18 UNL     1      22.342  -0.800  52.620  1.00  0.00     0.012 A 
ENDBRANCH  10  16
BRANCH   1  22
HETATM   22  C3  UNL     1      23.595   1.694  52.401  1.00  0.00     0.066 C 
BRANCH  22  23
HETATM   23  C2  UNL     1      25.085   1.721  51.950  1.00  0.00    -0.032 C 
HETATM   24  C1  UNL     1      25.937   0.718  51.929  1.00  0.00     0.007 C 
ENDBRANCH  22  23
ENDBRANCH   1  22
TORSDOF 3
ENDMDL
