MODEL 1
REMARK VINA RESULT:      -7.9      0.000      0.000
REMARK  5 active torsions:
REMARK  status: ('A' for Active; 'I' for Inactive)
REMARK    1  A    between atoms: C2_2  and  C3_3 
REMARK    2  A    between atoms: C3_3  and  C4_4 
REMARK    3  A    between atoms: C4_4  and  N1_5 
REMARK    4  A    between atoms: N1_5  and  C5_6 
REMARK    5  A    between atoms: C15_20  and  N4_21 
ROOT
HETATM    1  C5  UNL     1      24.865   0.913  52.876  1.00  0.00     0.071 A 
HETATM    2  C6  UNL     1      24.746   1.724  51.728  1.00  0.00     0.089 A 
HETATM    3  C7  UNL     1      25.880   2.335  51.203  1.00  0.00     0.100 A 
HETATM    4  C8  UNL     1      27.071   2.125  51.825  1.00  0.00     0.071 A 
HETATM    5  C9  UNL     1      27.109   1.334  52.924  1.00  0.00     0.074 A 
HETATM    6  N2  UNL     1      28.321   1.182  53.476  1.00  0.00    -0.241 NA
HETATM    7  C10 UNL     1      28.477   0.416  54.576  1.00  0.00     0.233 A 
HETATM    8  N3  UNL     1      27.430  -0.212  55.150  1.00  0.00    -0.253 NA
HETATM    9  C11 UNL     1      26.186  -0.099  54.643  1.00  0.00     0.134 A 
HETATM   10  C12 UNL     1      26.081   0.680  53.538  1.00  0.00     0.039 A 
HETATM   11  O1  UNL     1      25.516   3.070  50.091  1.00  0.00    -0.341 OA
HETATM   12  C13 UNL     1      25.081   4.430  50.293  1.00  0.00     0.256 C 
HETATM   13  C14 UNL     1      23.949   4.377  51.285  1.00  0.00     0.184 C 
HETATM   14  O2  UNL     1      23.900   4.094  52.468  1.00  0.00    -0.293 OA
HETATM   15  C15 UNL     1      22.578   4.696  50.839  1.00  0.00     0.295 C 
HETATM   16  C20 UNL     1      21.983   3.452  50.195  1.00  0.00     0.063 C 
HETATM   17  C21 UNL     1      22.063   2.274  51.084  1.00  0.00     0.122 C 
HETATM   18  N5  UNL     1      23.396   1.817  51.304  1.00  0.00    -0.386 N 
HETATM   19  H25 UNL     1      23.495   0.882  50.800  1.00  0.00     0.159 HD
ENDROOT
BRANCH   1  20
HETATM   20  N1  UNL     1      23.723   0.245  53.417  1.00  0.00    -0.386 N 
HETATM   21  H6  UNL     1      23.540   0.902  54.218  1.00  0.00     0.159 HD
BRANCH  20  22
HETATM   22  C4  UNL     1      22.845  -0.870  53.265  1.00  0.00     0.137 C 
BRANCH  22  23
HETATM   23  C3  UNL     1      21.615  -0.860  54.048  1.00  0.00     0.086 C 
BRANCH  23  24
HETATM   24  C2  UNL     1      20.501  -0.386  53.507  1.00  0.00    -0.174 C 
HETATM   25  C1  UNL     1      19.518  -0.033  52.708  1.00  0.00     0.091 C 
ENDBRANCH  23  24
ENDBRANCH  22  23
ENDBRANCH  20  22
ENDBRANCH   1  20
BRANCH  15  26
HETATM   26  N4  UNL     1      22.750   5.708  49.774  1.00  0.00     0.100 N 
HETATM   27  C16 UNL     1      22.840   7.005  50.380  1.00  0.00     0.273 C 
HETATM   28  C17 UNL     1      21.427   7.413  50.747  1.00  0.00     0.032 C 
HETATM   29  C18 UNL     1      20.561   6.514  49.896  1.00  0.00     0.032 C 
HETATM   30  C19 UNL     1      21.543   5.813  48.975  1.00  0.00     0.273 C 
ENDBRANCH  15  26
TORSDOF 5
ENDMDL
MODEL 2
REMARK VINA RESULT:      -7.8      2.542      5.029
REMARK  5 active torsions:
REMARK  status: ('A' for Active; 'I' for Inactive)
REMARK    1  A    between atoms: C2_2  and  C3_3 
REMARK    2  A    between atoms: C3_3  and  C4_4 
REMARK    3  A    between atoms: C4_4  and  N1_5 
REMARK    4  A    between atoms: N1_5  and  C5_6 
REMARK    5  A    between atoms: C15_20  and  N4_21 
ROOT
HETATM    1  C5  UNL     1      24.727   1.882  52.466  1.00  0.00     0.071 A 
HETATM    2  C6  UNL     1      23.377   1.749  52.855  1.00  0.00     0.089 A 
HETATM    3  C7  UNL     1      22.952   0.569  53.456  1.00  0.00     0.100 A 
HETATM    4  C8  UNL     1      23.864  -0.422  53.645  1.00  0.00     0.071 A 
HETATM    5  C9  UNL     1      25.143  -0.224  53.245  1.00  0.00     0.074 A 
HETATM    6  N2  UNL     1      25.975  -1.251  53.468  1.00  0.00    -0.241 NA
HETATM    7  C10 UNL     1      27.273  -1.166  53.109  1.00  0.00     0.233 A 
HETATM    8  N3  UNL     1      27.768  -0.058  52.520  1.00  0.00    -0.253 NA
HETATM    9  C11 UNL     1      26.984   1.009  52.270  1.00  0.00     0.134 A 
HETATM   10  C12 UNL     1      25.688   0.875  52.649  1.00  0.00     0.039 A 
HETATM   11  O1  UNL     1      21.605   0.676  53.744  1.00  0.00    -0.341 OA
HETATM   12  C13 UNL     1      20.663   0.297  52.719  1.00  0.00     0.256 C 
HETATM   13  C14 UNL     1      21.008   1.107  51.497  1.00  0.00     0.184 C 
HETATM   14  O2  UNL     1      21.963   1.100  50.743  1.00  0.00    -0.293 OA
HETATM   15  C15 UNL     1      20.081   2.163  51.041  1.00  0.00     0.295 C 
HETATM   16  C20 UNL     1      20.343   3.417  51.864  1.00  0.00     0.063 C 
HETATM   17  C21 UNL     1      21.766   3.816  51.832  1.00  0.00     0.122 C 
HETATM   18  N5  UNL     1      22.628   2.902  52.506  1.00  0.00    -0.386 N 
HETATM   19  H25 UNL     1      22.976   3.390  53.388  1.00  0.00     0.159 HD
ENDROOT
BRANCH   1  20
HETATM   20  N1  UNL     1      25.200   3.096  51.879  1.00  0.00    -0.386 N 
HETATM   21  H6  UNL     1      25.631   3.513  52.743  1.00  0.00     0.159 HD
BRANCH  20  22
HETATM   22  C4  UNL     1      25.284   3.850  50.670  1.00  0.00     0.137 C 
BRANCH  22  23
HETATM   23  C3  UNL     1      26.228   3.385  49.661  1.00  0.00     0.086 C 
BRANCH  23  24
HETATM   24  C2  UNL     1      27.090   4.242  49.130  1.00  0.00    -0.174 C 
HETATM   25  C1  UNL     1      27.684   5.243  48.518  1.00  0.00     0.091 C 
ENDBRANCH  23  24
ENDBRANCH  22  23
ENDBRANCH  20  22
ENDBRANCH   1  20
BRANCH  15  26
HETATM   26  N4  UNL     1      18.734   1.669  51.401  1.00  0.00     0.100 N 
HETATM   27  C16 UNL     1      18.208   0.918  50.299  1.00  0.00     0.273 C 
HETATM   28  C17 UNL     1      17.728   1.927  49.275  1.00  0.00     0.032 C 
HETATM   29  C18 UNL     1      17.585   3.204  50.068  1.00  0.00     0.032 C 
HETATM   30  C19 UNL     1      17.801   2.775  51.509  1.00  0.00     0.273 C 
ENDBRANCH  15  26
TORSDOF 5
ENDMDL
MODEL 3
REMARK VINA RESULT:      -7.7      7.515     10.830
REMARK  5 active torsions:
REMARK  status: ('A' for Active; 'I' for Inactive)
REMARK    1  A    between atoms: C2_2  and  C3_3 
REMARK    2  A    between atoms: C3_3  and  C4_4 
REMARK    3  A    between atoms: C4_4  and  N1_5 
REMARK    4  A    between atoms: N1_5  and  C5_6 
REMARK    5  A    between atoms: C15_20  and  N4_21 
ROOT
HETATM    1  C5  UNL     1      28.842   8.706  48.965  1.00  0.00     0.071 A 
HETATM    2  C6  UNL     1      30.228   8.475  48.833  1.00  0.00     0.089 A 
HETATM    3  C7  UNL     1      31.069   9.534  48.511  1.00  0.00     0.100 A 
HETATM    4  C8  UNL     1      30.517  10.764  48.332  1.00  0.00     0.071 A 
HETATM    5  C9  UNL     1      29.178  10.911  48.474  1.00  0.00     0.074 A 
HETATM    6  N2  UNL     1      28.717  12.154  48.279  1.00  0.00    -0.241 NA
HETATM    7  C10 UNL     1      27.399  12.418  48.393  1.00  0.00     0.233 A 
HETATM    8  N3  UNL     1      26.512  11.448  48.703  1.00  0.00    -0.253 NA
HETATM    9  C11 UNL     1      26.913  10.178  48.911  1.00  0.00     0.134 A 
HETATM   10  C12 UNL     1      28.246   9.964  48.785  1.00  0.00     0.039 A 
HETATM   11  O1  UNL     1      32.367   9.066  48.438  1.00  0.00    -0.341 OA
HETATM   12  C13 UNL     1      32.825   8.536  47.177  1.00  0.00     0.256 C 
HETATM   13  C14 UNL     1      31.851   7.457  46.785  1.00  0.00     0.184 C 
HETATM   14  O2  UNL     1      30.681   7.482  46.448  1.00  0.00    -0.293 OA
HETATM   15  C15 UNL     1      32.290   6.047  46.789  1.00  0.00     0.295 C 
HETATM   16  C20 UNL     1      32.194   5.521  48.215  1.00  0.00     0.063 C 
HETATM   17  C21 UNL     1      30.851   5.731  48.795  1.00  0.00     0.122 C 
HETATM   18  N5  UNL     1      30.538   7.104  49.023  1.00  0.00    -0.386 N 
HETATM   19  H25 UNL     1      30.525   7.252  50.080  1.00  0.00     0.159 HD
ENDROOT
BRANCH   1  20
HETATM   20  N1  UNL     1      27.958   7.644  49.330  1.00  0.00    -0.386 N 
HETATM   21  H6  UNL     1      28.224   7.581  50.346  1.00  0.00     0.159 HD
BRANCH  20  22
HETATM   22  C4  UNL     1      26.955   6.747  48.854  1.00  0.00     0.137 C 
BRANCH  22  23
HETATM   23  C3  UNL     1      27.374   5.385  48.543  1.00  0.00     0.086 C 
BRANCH  23  24
HETATM   24  C2  UNL     1      26.820   4.369  49.191  1.00  0.00    -0.174 C 
HETATM   25  C1  UNL     1      26.499   3.198  49.696  1.00  0.00     0.091 C 
ENDBRANCH  23  24
ENDBRANCH  22  23
ENDBRANCH  20  22
ENDBRANCH   1  20
BRANCH  15  26
HETATM   26  N4  UNL     1      33.724   6.093  46.429  1.00  0.00     0.100 N 
HETATM   27  C16 UNL     1      33.843   6.030  45.001  1.00  0.00     0.273 C 
HETATM   28  C17 UNL     1      33.637   4.580  44.611  1.00  0.00     0.032 C 
HETATM   29  C18 UNL     1      33.879   3.824  45.896  1.00  0.00     0.032 C 
HETATM   30  C19 UNL     1      34.393   4.880  46.859  1.00  0.00     0.273 C 
ENDBRANCH  15  26
TORSDOF 5
ENDMDL
MODEL 4
REMARK VINA RESULT:      -7.3      2.201      4.923
REMARK  5 active torsions:
REMARK  status: ('A' for Active; 'I' for Inactive)
REMARK    1  A    between atoms: C2_2  and  C3_3 
REMARK    2  A    between atoms: C3_3  and  C4_4 
REMARK    3  A    between atoms: C4_4  and  N1_5 
REMARK    4  A    between atoms: N1_5  and  C5_6 
REMARK    5  A    between atoms: C15_20  and  N4_21 
ROOT
HETATM    1  C5  UNL     1      24.151   2.972  52.144  1.00  0.00     0.071 A 
HETATM    2  C6  UNL     1      23.306   4.080  51.924  1.00  0.00     0.089 A 
HETATM    3  C7  UNL     1      21.932   3.934  52.089  1.00  0.00     0.100 A 
HETATM    4  C8  UNL     1      21.453   2.717  52.459  1.00  0.00     0.071 A 
HETATM    5  C9  UNL     1      22.325   1.698  52.652  1.00  0.00     0.074 A 
HETATM    6  N2  UNL     1      21.769   0.532  53.012  1.00  0.00    -0.241 NA
HETATM    7  C10 UNL     1      22.541  -0.552  53.231  1.00  0.00     0.233 A 
HETATM    8  N3  UNL     1      23.882  -0.499  53.093  1.00  0.00    -0.253 NA
HETATM    9  C11 UNL     1      24.502   0.642  52.733  1.00  0.00     0.134 A 
HETATM   10  C12 UNL     1      23.683   1.704  52.526  1.00  0.00     0.039 A 
HETATM   11  O1  UNL     1      21.321   5.144  51.820  1.00  0.00    -0.341 OA
HETATM   12  C13 UNL     1      20.959   5.429  50.453  1.00  0.00     0.256 C 
HETATM   13  C14 UNL     1      22.214   5.277  49.635  1.00  0.00     0.184 C 
HETATM   14  O2  UNL     1      22.900   4.314  49.343  1.00  0.00    -0.293 OA
HETATM   15  C15 UNL     1      22.835   6.473  49.030  1.00  0.00     0.295 C 
HETATM   16  C20 UNL     1      23.689   7.155  50.090  1.00  0.00     0.063 C 
HETATM   17  C21 UNL     1      24.658   6.225  50.706  1.00  0.00     0.122 C 
HETATM   18  N5  UNL     1      24.047   5.213  51.504  1.00  0.00    -0.386 N 
HETATM   19  H25 UNL     1      24.289   5.427  52.521  1.00  0.00     0.159 HD
ENDROOT
BRANCH   1  20
HETATM   20  N1  UNL     1      25.569   3.100  52.017  1.00  0.00    -0.386 N 
HETATM   21  H6  UNL     1      25.764   3.472  52.982  1.00  0.00     0.159 HD
BRANCH  20  22
HETATM   22  C4  UNL     1      26.681   2.918  51.142  1.00  0.00     0.137 C 
BRANCH  22  23
HETATM   23  C3  UNL     1      26.451   3.137  49.719  1.00  0.00     0.086 C 
BRANCH  23  24
HETATM   24  C2  UNL     1      27.117   4.096  49.090  1.00  0.00    -0.174 C 
HETATM   25  C1  UNL     1      27.557   5.231  48.591  1.00  0.00     0.091 C 
ENDBRANCH  23  24
ENDBRANCH  22  23
ENDBRANCH  20  22
ENDBRANCH   1  20
BRANCH  15  26
HETATM   26  N4  UNL     1      21.704   7.376  48.723  1.00  0.00     0.100 N 
HETATM   27  C16 UNL     1      21.153   7.008  47.452  1.00  0.00     0.273 C 
HETATM   28  C17 UNL     1      22.083   7.570  46.395  1.00  0.00     0.032 C 
HETATM   29  C18 UNL     1      22.864   8.631  47.132  1.00  0.00     0.032 C 
HETATM   30  C19 UNL     1      22.182   8.725  48.485  1.00  0.00     0.273 C 
ENDBRANCH  15  26
TORSDOF 5
ENDMDL
MODEL 5
REMARK VINA RESULT:      -7.2      2.241      4.675
REMARK  5 active torsions:
REMARK  status: ('A' for Active; 'I' for Inactive)
REMARK    1  A    between atoms: C2_2  and  C3_3 
REMARK    2  A    between atoms: C3_3  and  C4_4 
REMARK    3  A    between atoms: C4_4  and  N1_5 
REMARK    4  A    between atoms: N1_5  and  C5_6 
REMARK    5  A    between atoms: C15_20  and  N4_21 
ROOT
HETATM    1  C5  UNL     1      23.323   1.663  52.586  1.00  0.00     0.071 A 
HETATM    2  C6  UNL     1      22.488   2.608  51.954  1.00  0.00     0.089 A 
HETATM    3  C7  UNL     1      21.108   2.503  52.095  1.00  0.00     0.100 A 
HETATM    4  C8  UNL     1      20.613   1.482  52.845  1.00  0.00     0.071 A 
HETATM    5  C9  UNL     1      21.476   0.611  53.422  1.00  0.00     0.074 A 
HETATM    6  N2  UNL     1      20.905  -0.365  54.141  1.00  0.00    -0.241 NA
HETATM    7  C10 UNL     1      21.667  -1.290  54.760  1.00  0.00     0.233 A 
HETATM    8  N3  UNL     1      23.013  -1.263  54.675  1.00  0.00    -0.253 NA
HETATM    9  C11 UNL     1      23.648  -0.308  53.967  1.00  0.00     0.134 A 
HETATM   10  C12 UNL     1      22.839   0.599  53.364  1.00  0.00     0.039 A 
HETATM   11  O1  UNL     1      20.509   3.531  51.393  1.00  0.00    -0.341 OA
HETATM   12  C13 UNL     1      20.215   3.314  49.997  1.00  0.00     0.256 C 
HETATM   13  C14 UNL     1      21.509   2.910  49.343  1.00  0.00     0.184 C 
HETATM   14  O2  UNL     1      22.210   1.920  49.438  1.00  0.00    -0.293 OA
HETATM   15  C15 UNL     1      22.157   3.832  48.388  1.00  0.00     0.295 C 
HETATM   16  C20 UNL     1      22.956   4.857  49.180  1.00  0.00     0.063 C 
HETATM   17  C21 UNL     1      23.896   4.219  50.127  1.00  0.00     0.122 C 
HETATM   18  N5  UNL     1      23.248   3.538  51.199  1.00  0.00    -0.386 N 
HETATM   19  H25 UNL     1      23.437   4.097  52.087  1.00  0.00     0.159 HD
ENDROOT
BRANCH   1  20
HETATM   20  N1  UNL     1      24.745   1.765  52.487  1.00  0.00    -0.386 N 
HETATM   21  H6  UNL     1      24.914   2.266  53.397  1.00  0.00     0.159 HD
BRANCH  20  22
HETATM   22  C4  UNL     1      25.882   1.458  51.682  1.00  0.00     0.137 C 
BRANCH  22  23
HETATM   23  C3  UNL     1      26.930   0.647  52.290  1.00  0.00     0.086 C 
BRANCH  23  24
HETATM   24  C2  UNL     1      26.794  -0.671  52.330  1.00  0.00    -0.174 C 
HETATM   25  C1  UNL     1      26.884  -1.958  52.586  1.00  0.00     0.091 C 
ENDBRANCH  23  24
ENDBRANCH  22  23
ENDBRANCH  20  22
ENDBRANCH   1  20
BRANCH  15  26
HETATM   26  N4  UNL     1      21.042   4.549  47.733  1.00  0.00     0.100 N 
HETATM   27  C16 UNL     1      20.578   3.766  46.625  1.00  0.00     0.273 C 
HETATM   28  C17 UNL     1      21.571   3.975  45.499  1.00  0.00     0.032 C 
HETATM   29  C18 UNL     1      22.293   5.243  45.887  1.00  0.00     0.032 C 
HETATM   30  C19 UNL     1      21.524   5.757  47.091  1.00  0.00     0.273 C 
ENDBRANCH  15  26
TORSDOF 5
ENDMDL
MODEL 6
REMARK VINA RESULT:      -7.0      8.221     10.523
REMARK  5 active torsions:
REMARK  status: ('A' for Active; 'I' for Inactive)
REMARK    1  A    between atoms: C2_2  and  C3_3 
REMARK    2  A    between atoms: C3_3  and  C4_4 
REMARK    3  A    between atoms: C4_4  and  N1_5 
REMARK    4  A    between atoms: N1_5  and  C5_6 
REMARK    5  A    between atoms: C15_20  and  N4_21 
ROOT
HETATM    1  C5  UNL     1      33.182   6.306  48.166  1.00  0.00     0.071 A 
HETATM    2  C6  UNL     1      32.197   7.134  47.588  1.00  0.00     0.089 A 
HETATM    3  C7  UNL     1      32.517   8.446  47.255  1.00  0.00     0.100 A 
HETATM    4  C8  UNL     1      33.780   8.883  47.503  1.00  0.00     0.071 A 
HETATM    5  C9  UNL     1      34.674   8.032  48.062  1.00  0.00     0.074 A 
HETATM    6  N2  UNL     1      35.894   8.544  48.274  1.00  0.00    -0.241 NA
HETATM    7  C10 UNL     1      36.864   7.787  48.827  1.00  0.00     0.233 A 
HETATM    8  N3  UNL     1      36.639   6.504  49.180  1.00  0.00    -0.253 NA
HETATM    9  C11 UNL     1      35.434   5.930  48.992  1.00  0.00     0.134 A 
HETATM   10  C12 UNL     1      34.493   6.732  48.434  1.00  0.00     0.039 A 
HETATM   11  O1  UNL     1      31.402   9.052  46.710  1.00  0.00    -0.341 OA
HETATM   12  C13 UNL     1      30.469   9.685  47.610  1.00  0.00     0.256 C 
HETATM   13  C14 UNL     1      30.064   8.638  48.615  1.00  0.00     0.184 C 
HETATM   14  O2  UNL     1      30.669   8.068  49.504  1.00  0.00    -0.293 OA
HETATM   15  C15 UNL     1      28.684   8.113  48.599  1.00  0.00     0.295 C 
HETATM   16  C20 UNL     1      28.598   7.028  47.536  1.00  0.00     0.063 C 
HETATM   17  C21 UNL     1      29.631   5.987  47.718  1.00  0.00     0.122 C 
HETATM   18  N5  UNL     1      30.957   6.454  47.478  1.00  0.00    -0.386 N 
HETATM   19  H25 UNL     1      31.294   5.995  46.576  1.00  0.00     0.159 HD
ENDROOT
BRANCH   1  20
HETATM   20  N1  UNL     1      32.892   4.943  48.486  1.00  0.00    -0.386 N 
HETATM   21  H6  UNL     1      32.774   5.064  49.525  1.00  0.00     0.159 HD
BRANCH  20  22
HETATM   22  C4  UNL     1      32.723   3.632  47.951  1.00  0.00     0.137 C 
BRANCH  22  23
HETATM   23  C3  UNL     1      33.931   2.894  47.604  1.00  0.00     0.086 C 
BRANCH  23  24
HETATM   24  C2  UNL     1      34.599   3.215  46.503  1.00  0.00    -0.174 C 
HETATM   25  C1  UNL     1      35.153   3.821  45.476  1.00  0.00     0.091 C 
ENDBRANCH  23  24
ENDBRANCH  22  23
ENDBRANCH  20  22
ENDBRANCH   1  20
BRANCH  15  26
HETATM   26  N4  UNL     1      27.849   9.246  48.145  1.00  0.00     0.100 N 
HETATM   27  C16 UNL     1      27.447  10.011  49.290  1.00  0.00     0.273 C 
HETATM   28  C17 UNL     1      26.316   9.247  49.948  1.00  0.00     0.032 C 
HETATM   29  C18 UNL     1      25.829   8.319  48.860  1.00  0.00     0.032 C 
HETATM   30  C19 UNL     1      26.584   8.767  47.622  1.00  0.00     0.273 C 
ENDBRANCH  15  26
TORSDOF 5
ENDMDL
MODEL 7
REMARK VINA RESULT:      -6.8      2.167      6.843
REMARK  5 active torsions:
REMARK  status: ('A' for Active; 'I' for Inactive)
REMARK    1  A    between atoms: C2_2  and  C3_3 
REMARK    2  A    between atoms: C3_3  and  C4_4 
REMARK    3  A    between atoms: C4_4  and  N1_5 
REMARK    4  A    between atoms: N1_5  and  C5_6 
REMARK    5  A    between atoms: C15_20  and  N4_21 
ROOT
HETATM    1  C5  UNL     1      20.103   2.744  50.335  1.00  0.00     0.071 A 
HETATM    2  C6  UNL     1      21.030   2.769  51.398  1.00  0.00     0.089 A 
HETATM    3  C7  UNL     1      21.625   3.973  51.758  1.00  0.00     0.100 A 
HETATM    4  C8  UNL     1      21.288   5.091  51.061  1.00  0.00     0.071 A 
HETATM    5  C9  UNL     1      20.392   4.992  50.051  1.00  0.00     0.074 A 
HETATM    6  N2  UNL     1      20.118   6.140  49.416  1.00  0.00    -0.241 NA
HETATM    7  C10 UNL     1      19.240   6.160  48.392  1.00  0.00     0.233 A 
HETATM    8  N3  UNL     1      18.617   5.037  47.978  1.00  0.00    -0.253 NA
HETATM    9  C11 UNL     1      18.848   3.851  48.575  1.00  0.00     0.134 A 
HETATM   10  C12 UNL     1      19.738   3.883  49.599  1.00  0.00     0.039 A 
HETATM   11  O1  UNL     1      22.486   3.747  52.814  1.00  0.00    -0.341 OA
HETATM   12  C13 UNL     1      23.842   3.359  52.510  1.00  0.00     0.256 C 
HETATM   13  C14 UNL     1      23.753   2.140  51.630  1.00  0.00     0.184 C 
HETATM   14  O2  UNL     1      23.357   1.970  50.491  1.00  0.00    -0.293 OA
HETATM   15  C15 UNL     1      24.191   0.832  52.156  1.00  0.00     0.295 C 
HETATM   16  C20 UNL     1      23.052   0.240  52.975  1.00  0.00     0.063 C 
HETATM   17  C21 UNL     1      21.789   0.184  52.210  1.00  0.00     0.122 C 
HETATM   18  N5  UNL     1      21.239   1.469  51.925  1.00  0.00    -0.386 N 
HETATM   19  H25 UNL     1      20.354   1.569  52.513  1.00  0.00     0.159 HD
ENDROOT
BRANCH   1  20
HETATM   20  N1  UNL     1      19.449   1.528  49.966  1.00  0.00    -0.386 N 
HETATM   21  H6  UNL     1      20.148   1.203  49.250  1.00  0.00     0.159 HD
BRANCH  20  22
HETATM   22  C4  UNL     1      18.314   0.697  50.206  1.00  0.00     0.137 C 
BRANCH  22  23
HETATM   23  C3  UNL     1      17.834   0.606  51.580  1.00  0.00     0.086 C 
BRANCH  23  24
HETATM   24  C2  UNL     1      18.084  -0.489  52.287  1.00  0.00    -0.174 C 
HETATM   25  C1  UNL     1      18.215  -1.403  53.223  1.00  0.00     0.091 C 
ENDBRANCH  23  24
ENDBRANCH  22  23
ENDBRANCH  20  22
ENDBRANCH   1  20
BRANCH  15  26
HETATM   26  N4  UNL     1      25.293   1.146  53.092  1.00  0.00     0.100 N 
HETATM   27  C16 UNL     1      26.522   1.199  52.356  1.00  0.00     0.273 C 
HETATM   28  C17 UNL     1      26.942  -0.236  52.108  1.00  0.00     0.032 C 
HETATM   29  C18 UNL     1      26.159  -1.022  53.133  1.00  0.00     0.032 C 
HETATM   30  C19 UNL     1      25.514   0.041  54.005  1.00  0.00     0.273 C 
ENDBRANCH  15  26
TORSDOF 5
ENDMDL
MODEL 8
REMARK VINA RESULT:      -6.7      5.452      7.938
REMARK  5 active torsions:
REMARK  status: ('A' for Active; 'I' for Inactive)
REMARK    1  A    between atoms: C2_2  and  C3_3 
REMARK    2  A    between atoms: C3_3  and  C4_4 
REMARK    3  A    between atoms: C4_4  and  N1_5 
REMARK    4  A    between atoms: N1_5  and  C5_6 
REMARK    5  A    between atoms: C15_20  and  N4_21 
ROOT
HETATM    1  C5  UNL     1      25.663   6.562  48.838  1.00  0.00     0.071 A 
HETATM    2  C6  UNL     1      26.758   7.097  48.127  1.00  0.00     0.089 A 
HETATM    3  C7  UNL     1      27.924   6.350  48.005  1.00  0.00     0.100 A 
HETATM    4  C8  UNL     1      27.965   5.120  48.583  1.00  0.00     0.071 A 
HETATM    5  C9  UNL     1      26.876   4.671  49.251  1.00  0.00     0.074 A 
HETATM    6  N2  UNL     1      27.001   3.451  49.792  1.00  0.00    -0.241 NA
HETATM    7  C10 UNL     1      25.979   2.903  50.481  1.00  0.00     0.233 A 
HETATM    8  N3  UNL     1      24.812   3.559  50.648  1.00  0.00    -0.253 NA
HETATM    9  C11 UNL     1      24.623   4.788  50.129  1.00  0.00     0.134 A 
HETATM   10  C12 UNL     1      25.678   5.296  49.445  1.00  0.00     0.039 A 
HETATM   11  O1  UNL     1      28.844   7.077  47.273  1.00  0.00    -0.341 OA
HETATM   12  C13 UNL     1      29.703   7.992  47.986  1.00  0.00     0.256 C 
HETATM   13  C14 UNL     1      28.799   8.912  48.763  1.00  0.00     0.184 C 
HETATM   14  O2  UNL     1      28.057   8.735  49.711  1.00  0.00    -0.293 OA
HETATM   15  C15 UNL     1      28.704  10.333  48.374  1.00  0.00     0.295 C 
HETATM   16  C20 UNL     1      27.716  10.448  47.221  1.00  0.00     0.063 C 
HETATM   17  C21 UNL     1      26.414   9.828  47.541  1.00  0.00     0.122 C 
HETATM   18  N5  UNL     1      26.475   8.408  47.665  1.00  0.00    -0.386 N 
HETATM   19  H25 UNL     1      25.958   7.997  46.828  1.00  0.00     0.159 HD
ENDROOT
BRANCH   1  20
HETATM   20  N1  UNL     1      24.439   7.292  48.950  1.00  0.00    -0.386 N 
HETATM   21  H6  UNL     1      24.691   7.859  49.800  1.00  0.00     0.159 HD
BRANCH  20  22
HETATM   22  C4  UNL     1      23.149   7.498  48.376  1.00  0.00     0.137 C 
BRANCH  22  23
HETATM   23  C3  UNL     1      22.878   6.850  47.099  1.00  0.00     0.086 C 
BRANCH  23  24
HETATM   24  C2  UNL     1      22.540   5.567  47.077  1.00  0.00    -0.174 C 
HETATM   25  C1  UNL     1      22.166   4.339  47.363  1.00  0.00     0.091 C 
ENDBRANCH  23  24
ENDBRANCH  22  23
ENDBRANCH  20  22
ENDBRANCH   1  20
BRANCH  15  26
HETATM   26  N4  UNL     1      30.043  10.675  47.847  1.00  0.00     0.100 N 
HETATM   27  C16 UNL     1      30.892  11.040  48.944  1.00  0.00     0.273 C 
HETATM   28  C17 UNL     1      30.518  12.457  49.331  1.00  0.00     0.032 C 
HETATM   29  C18 UNL     1      29.792  12.981  48.116  1.00  0.00     0.032 C 
HETATM   30  C19 UNL     1      29.985  11.899  47.069  1.00  0.00     0.273 C 
ENDBRANCH  15  26
TORSDOF 5
ENDMDL
MODEL 9
REMARK VINA RESULT:      -6.5      9.656     11.698
REMARK  5 active torsions:
REMARK  status: ('A' for Active; 'I' for Inactive)
REMARK    1  A    between atoms: C2_2  and  C3_3 
REMARK    2  A    between atoms: C3_3  and  C4_4 
REMARK    3  A    between atoms: C4_4  and  N1_5 
REMARK    4  A    between atoms: N1_5  and  C5_6 
REMARK    5  A    between atoms: C15_20  and  N4_21 
ROOT
HETATM    1  C5  UNL     1      33.488   6.900  46.902  1.00  0.00     0.071 A 
HETATM    2  C6  UNL     1      32.889   7.775  47.832  1.00  0.00     0.089 A 
HETATM    3  C7  UNL     1      32.162   7.250  48.895  1.00  0.00     0.100 A 
HETATM    4  C8  UNL     1      32.056   5.898  48.996  1.00  0.00     0.071 A 
HETATM    5  C9  UNL     1      32.657   5.119  48.065  1.00  0.00     0.074 A 
HETATM    6  N2  UNL     1      32.500   3.799  48.239  1.00  0.00    -0.241 NA
HETATM    7  C10 UNL     1      33.055   2.927  47.371  1.00  0.00     0.233 A 
HETATM    8  N3  UNL     1      33.775   3.352  46.312  1.00  0.00    -0.253 NA
HETATM    9  C11 UNL     1      33.970   4.665  46.083  1.00  0.00     0.134 A 
HETATM   10  C12 UNL     1      33.393   5.501  46.982  1.00  0.00     0.039 A 
HETATM   11  O1  UNL     1      31.678   8.292  49.662  1.00  0.00    -0.341 OA
HETATM   12  C13 UNL     1      30.406   8.867  49.294  1.00  0.00     0.256 C 
HETATM   13  C14 UNL     1      30.523   9.281  47.851  1.00  0.00     0.184 C 
HETATM   14  O2  UNL     1      30.635   8.651  46.816  1.00  0.00    -0.293 OA
HETATM   15  C15 UNL     1      30.532  10.718  47.508  1.00  0.00     0.295 C 
HETATM   16  C20 UNL     1      31.945  11.248  47.705  1.00  0.00     0.063 C 
HETATM   17  C21 UNL     1      32.946  10.451  46.965  1.00  0.00     0.122 C 
HETATM   18  N5  UNL     1      33.111   9.130  47.476  1.00  0.00    -0.386 N 
HETATM   19  H25 UNL     1      34.075   9.087  47.931  1.00  0.00     0.159 HD
ENDROOT
BRANCH   1  20
HETATM   20  N1  UNL     1      34.270   7.410  45.820  1.00  0.00    -0.386 N 
HETATM   21  H6  UNL     1      35.199   7.429  46.314  1.00  0.00     0.159 HD
BRANCH  20  22
HETATM   22  C4  UNL     1      34.235   7.848  44.463  1.00  0.00     0.137 C 
BRANCH  22  23
HETATM   23  C3  UNL     1      33.021   7.570  43.705  1.00  0.00     0.086 C 
BRANCH  23  24
HETATM   24  C2  UNL     1      32.924   6.437  43.021  1.00  0.00    -0.174 C 
HETATM   25  C1  UNL     1      33.097   5.248  42.487  1.00  0.00     0.091 C 
ENDBRANCH  23  24
ENDBRANCH  22  23
ENDBRANCH  20  22
ENDBRANCH   1  20
BRANCH  15  26
HETATM   26  N4  UNL     1      29.672  11.358  48.527  1.00  0.00     0.100 N 
HETATM   27  C16 UNL     1      28.317  11.354  48.056  1.00  0.00     0.273 C 
HETATM   28  C17 UNL     1      28.206  12.474  47.042  1.00  0.00     0.032 C 
HETATM   29  C18 UNL     1      29.396  13.353  47.345  1.00  0.00     0.032 C 
HETATM   30  C19 UNL     1      29.971  12.775  48.625  1.00  0.00     0.273 C 
ENDBRANCH  15  26
TORSDOF 5
ENDMDL
