MODEL 1
REMARK VINA RESULT:      -8.2      0.000      0.000
REMARK  6 active torsions:
REMARK  status: ('A' for Active; 'I' for Inactive)
REMARK    1  A    between atoms: C2_2  and  O1_3 
REMARK    2  A    between atoms: O1_3  and  C3_4 
REMARK    3  A    between atoms: C9_12  and  N3_13 
REMARK    4  A    between atoms: N3_13  and  C10_14 
REMARK    5  A    between atoms: C18_24  and  N4_25 
REMARK    6  A    between atoms: N4_25  and  C19_26 
ROOT
HETATM    1  C3  UNL     1      25.854   0.266  54.163  1.00  0.00     0.097 A 
HETATM    2  C4  UNL     1      24.908  -0.688  54.494  1.00  0.00     0.071 A 
HETATM    3  C5  UNL     1      23.591  -0.607  54.137  1.00  0.00     0.071 A 
HETATM    4  N1  UNL     1      22.744  -1.590  54.507  1.00  0.00    -0.259 NA
HETATM    5  C6  UNL     1      21.442  -1.526  54.164  1.00  0.00     0.142 A 
HETATM    6  C7  UNL     1      20.988  -0.446  53.430  1.00  0.00     0.089 A 
HETATM    7  C8  UNL     1      19.610  -0.367  53.060  1.00  0.00     0.103 C 
HETATM    8  N2  UNL     1      18.500  -0.299  52.743  1.00  0.00    -0.191 NA
HETATM    9  C9  UNL     1      21.859   0.556  53.055  1.00  0.00     0.067 A 
HETATM   10  C16 UNL     1      23.197   0.493  53.406  1.00  0.00     0.023 A 
HETATM   11  C17 UNL     1      24.119   1.459  53.064  1.00  0.00     0.048 A 
HETATM   12  C18 UNL     1      25.455   1.384  53.422  1.00  0.00     0.064 A 
ENDROOT
BRANCH   9  13
HETATM   13  N3  UNL     1      21.442   1.683  52.303  1.00  0.00    -0.354 N 
HETATM   14  H8  UNL     1      20.913   2.379  52.849  1.00  0.00     0.166 HD
BRANCH  13  15
HETATM   15  C10 UNL     1      21.730   1.828  50.918  1.00  0.00     0.034 A 
HETATM   16  C11 UNL     1      21.358   0.819  50.051  1.00  0.00     0.032 A 
HETATM   17  C12 UNL     1      21.630   0.941  48.704  1.00  0.00     0.046 A 
HETATM   18  C13 UNL     1      22.275   2.102  48.309  1.00  0.00     0.138 A 
HETATM   19  F1  UNL     1      22.546   2.224  46.969  1.00  0.00    -0.204 F 
HETATM   20  C14 UNL     1      22.659   3.125  49.153  1.00  0.00     0.074 A 
HETATM   21 CL1  UNL     1      23.471   4.540  48.512  1.00  0.00    -0.081 Cl
HETATM   22  C15 UNL     1      22.373   2.980  50.514  1.00  0.00     0.056 A 
ENDBRANCH  13  15
ENDBRANCH   9  13
BRANCH  12  23
HETATM   23  N4  UNL     1      26.376   2.401  53.048  1.00  0.00    -0.362 N 
HETATM   24  H13 UNL     1      26.659   3.096  53.771  1.00  0.00     0.162 HD
BRANCH  23  25
HETATM   25  C19 UNL     1      26.871   2.416  51.668  1.00  0.00     0.345 C 
HETATM   26  F2  UNL     1      26.873   1.117  51.164  1.00  0.00    -0.234 F 
ENDBRANCH  23  25
ENDBRANCH  12  23
BRANCH   1  27
HETATM   27  O1  UNL     1      27.184   0.235  54.495  1.00  0.00    -0.349 OA
BRANCH  27  28
HETATM   28  C2  UNL     1      28.155  -0.523  53.805  1.00  0.00     0.171 C 
HETATM   29  C1  UNL     1      29.447   0.183  53.574  1.00  0.00     0.034 C 
ENDBRANCH  27  28
ENDBRANCH   1  27
TORSDOF 6
ENDMDL
MODEL 2
REMARK VINA RESULT:      -8.2      3.145      4.382
REMARK  6 active torsions:
REMARK  status: ('A' for Active; 'I' for Inactive)
REMARK    1  A    between atoms: C2_2  and  O1_3 
REMARK    2  A    between atoms: O1_3  and  C3_4 
REMARK    3  A    between atoms: C9_12  and  N3_13 
REMARK    4  A    between atoms: N3_13  and  C10_14 
REMARK    5  A    between atoms: C18_24  and  N4_25 
REMARK    6  A    between atoms: N4_25  and  C19_26 
ROOT
HETATM    1  C3  UNL     1      26.515   0.913  54.108  1.00  0.00     0.097 A 
HETATM    2  C4  UNL     1      26.025   2.202  53.988  1.00  0.00     0.071 A 
HETATM    3  C5  UNL     1      24.874   2.518  53.323  1.00  0.00     0.071 A 
HETATM    4  N1  UNL     1      24.477   3.806  53.261  1.00  0.00    -0.259 NA
HETATM    5  C6  UNL     1      23.345   4.135  52.608  1.00  0.00     0.142 A 
HETATM    6  C7  UNL     1      22.596   3.140  52.008  1.00  0.00     0.089 A 
HETATM    7  C8  UNL     1      21.393   3.477  51.314  1.00  0.00     0.103 C 
HETATM    8  N2  UNL     1      20.411   3.735  50.761  1.00  0.00    -0.191 NA
HETATM    9  C9  UNL     1      23.006   1.825  52.075  1.00  0.00     0.067 A 
HETATM   10  C16 UNL     1      24.169   1.484  52.743  1.00  0.00     0.023 A 
HETATM   11  C17 UNL     1      24.635   0.190  52.847  1.00  0.00     0.048 A 
HETATM   12  C18 UNL     1      25.801  -0.138  53.519  1.00  0.00     0.064 A 
ENDROOT
BRANCH   9  13
HETATM   13  N3  UNL     1      22.274   0.770  51.475  1.00  0.00    -0.354 N 
HETATM   14  H8  UNL     1      22.679   0.426  50.592  1.00  0.00     0.166 HD
BRANCH  13  15
HETATM   15  C10 UNL     1      21.084   0.241  52.049  1.00  0.00     0.034 A 
HETATM   16  C11 UNL     1      21.129  -0.253  53.337  1.00  0.00     0.032 A 
HETATM   17  C12 UNL     1      19.986  -0.770  53.910  1.00  0.00     0.046 A 
HETATM   18  C13 UNL     1      18.843  -0.755  53.127  1.00  0.00     0.138 A 
HETATM   19  F1  UNL     1      17.706  -1.269  53.697  1.00  0.00    -0.204 F 
HETATM   20  C14 UNL     1      18.769  -0.268  51.837  1.00  0.00     0.074 A 
HETATM   21 CL1  UNL     1      17.252  -0.312  50.961  1.00  0.00    -0.081 Cl
HETATM   22  C15 UNL     1      19.941   0.252  51.277  1.00  0.00     0.056 A 
ENDBRANCH  13  15
ENDBRANCH   9  13
BRANCH  12  23
HETATM   23  N4  UNL     1      26.248  -1.486  53.605  1.00  0.00    -0.362 N 
HETATM   24  H13 UNL     1      26.138  -1.981  54.515  1.00  0.00     0.162 HD
BRANCH  23  25
HETATM   25  C19 UNL     1      26.839  -2.098  52.411  1.00  0.00     0.345 C 
HETATM   26  F2  UNL     1      27.922  -2.889  52.785  1.00  0.00    -0.234 F 
ENDBRANCH  23  25
ENDBRANCH  12  23
BRANCH   1  27
HETATM   27  O1  UNL     1      27.660   0.541  54.761  1.00  0.00    -0.349 OA
BRANCH  27  28
HETATM   28  C2  UNL     1      28.962   0.898  54.345  1.00  0.00     0.171 C 
HETATM   29  C1  UNL     1      29.716  -0.188  53.658  1.00  0.00     0.034 C 
ENDBRANCH  27  28
ENDBRANCH   1  27
TORSDOF 6
ENDMDL
MODEL 3
REMARK VINA RESULT:      -8.2      2.982      5.817
REMARK  6 active torsions:
REMARK  status: ('A' for Active; 'I' for Inactive)
REMARK    1  A    between atoms: C2_2  and  O1_3 
REMARK    2  A    between atoms: O1_3  and  C3_4 
REMARK    3  A    between atoms: C9_12  and  N3_13 
REMARK    4  A    between atoms: N3_13  and  C10_14 
REMARK    5  A    between atoms: C18_24  and  N4_25 
REMARK    6  A    between atoms: N4_25  and  C19_26 
ROOT
HETATM    1  C3  UNL     1      23.551   3.349  49.560  1.00  0.00     0.097 A 
HETATM    2  C4  UNL     1      22.542   2.419  49.734  1.00  0.00     0.071 A 
HETATM    3  C5  UNL     1      22.467   1.572  50.805  1.00  0.00     0.071 A 
HETATM    4  N1  UNL     1      21.442   0.697  50.886  1.00  0.00    -0.259 NA
HETATM    5  C6  UNL     1      21.353  -0.145  51.935  1.00  0.00     0.142 A 
HETATM    6  C7  UNL     1      22.319  -0.100  52.922  1.00  0.00     0.089 A 
HETATM    7  C8  UNL     1      22.235  -0.988  54.039  1.00  0.00     0.103 C 
HETATM    8  N2  UNL     1      22.170  -1.692  54.955  1.00  0.00    -0.191 NA
HETATM    9  C9  UNL     1      23.364   0.796  52.834  1.00  0.00     0.067 A 
HETATM   10  C16 UNL     1      23.459   1.662  51.758  1.00  0.00     0.023 A 
HETATM   11  C17 UNL     1      24.476   2.580  51.609  1.00  0.00     0.048 A 
HETATM   12  C18 UNL     1      24.559   3.441  50.527  1.00  0.00     0.064 A 
ENDROOT
BRANCH   9  13
HETATM   13  N3  UNL     1      24.379   0.879  53.820  1.00  0.00    -0.354 N 
HETATM   14  H8  UNL     1      24.086   1.359  54.684  1.00  0.00     0.166 HD
BRANCH  13  15
HETATM   15  C10 UNL     1      25.682   0.345  53.624  1.00  0.00     0.034 A 
HETATM   16  C11 UNL     1      25.814  -0.873  52.987  1.00  0.00     0.032 A 
HETATM   17  C12 UNL     1      27.070  -1.407  52.787  1.00  0.00     0.046 A 
HETATM   18  C13 UNL     1      28.138  -0.660  53.255  1.00  0.00     0.138 A 
HETATM   19  F1  UNL     1      29.388  -1.191  53.057  1.00  0.00    -0.204 F 
HETATM   20  C14 UNL     1      28.036   0.559  53.896  1.00  0.00     0.074 A 
HETATM   21 CL1  UNL     1      29.478   1.396  54.435  1.00  0.00    -0.081 Cl
HETATM   22  C15 UNL     1      26.753   1.082  54.086  1.00  0.00     0.056 A 
ENDBRANCH  13  15
ENDBRANCH   9  13
BRANCH  12  23
HETATM   23  N4  UNL     1      25.625   4.376  50.409  1.00  0.00    -0.362 N 
HETATM   24  H13 UNL     1      25.547   5.275  50.929  1.00  0.00     0.162 HD
BRANCH  23  25
HETATM   25  C19 UNL     1      26.768   4.022  49.563  1.00  0.00     0.345 C 
HETATM   26  F2  UNL     1      26.692   2.673  49.223  1.00  0.00    -0.234 F 
ENDBRANCH  23  25
ENDBRANCH  12  23
BRANCH   1  27
HETATM   27  O1  UNL     1      23.675   4.220  48.509  1.00  0.00    -0.349 OA
BRANCH  27  28
HETATM   28  C2  UNL     1      22.799   5.302  48.268  1.00  0.00     0.171 C 
HETATM   29  C1  UNL     1      23.323   6.632  48.687  1.00  0.00     0.034 C 
ENDBRANCH  27  28
ENDBRANCH   1  27
TORSDOF 6
ENDMDL
MODEL 4
REMARK VINA RESULT:      -8.2      3.246      6.987
REMARK  6 active torsions:
REMARK  status: ('A' for Active; 'I' for Inactive)
REMARK    1  A    between atoms: C2_2  and  O1_3 
REMARK    2  A    between atoms: O1_3  and  C3_4 
REMARK    3  A    between atoms: C9_12  and  N3_13 
REMARK    4  A    between atoms: N3_13  and  C10_14 
REMARK    5  A    between atoms: C18_24  and  N4_25 
REMARK    6  A    between atoms: N4_25  and  C19_26 
ROOT
HETATM    1  C3  UNL     1      20.844   0.535  52.109  1.00  0.00     0.097 A 
HETATM    2  C4  UNL     1      21.224   1.055  50.884  1.00  0.00     0.071 A 
HETATM    3  C5  UNL     1      22.420   1.677  50.661  1.00  0.00     0.071 A 
HETATM    4  N1  UNL     1      22.700   2.152  49.429  1.00  0.00    -0.259 NA
HETATM    5  C6  UNL     1      23.875   2.769  49.192  1.00  0.00     0.142 A 
HETATM    6  C7  UNL     1      24.786   2.907  50.222  1.00  0.00     0.089 A 
HETATM    7  C8  UNL     1      26.036   3.559  49.982  1.00  0.00     0.103 C 
HETATM    8  N2  UNL     1      27.055   4.072  49.798  1.00  0.00    -0.191 NA
HETATM    9  C9  UNL     1      24.495   2.420  51.479  1.00  0.00     0.067 A 
HETATM   10  C16 UNL     1      23.289   1.786  51.726  1.00  0.00     0.023 A 
HETATM   11  C17 UNL     1      22.936   1.278  52.957  1.00  0.00     0.048 A 
HETATM   12  C18 UNL     1      21.725   0.646  53.191  1.00  0.00     0.064 A 
ENDROOT
BRANCH   9  13
HETATM   13  N3  UNL     1      25.396   2.538  52.567  1.00  0.00    -0.354 N 
HETATM   14  H8  UNL     1      25.206   3.341  53.185  1.00  0.00     0.166 HD
BRANCH  13  15
HETATM   15  C10 UNL     1      26.466   1.625  52.777  1.00  0.00     0.034 A 
HETATM   16  C11 UNL     1      27.681   2.112  53.215  1.00  0.00     0.032 A 
HETATM   17  C12 UNL     1      28.731   1.242  53.424  1.00  0.00     0.046 A 
HETATM   18  C13 UNL     1      28.481  -0.096  53.170  1.00  0.00     0.138 A 
HETATM   19  F1  UNL     1      29.525  -0.962  53.376  1.00  0.00    -0.204 F 
HETATM   20  C14 UNL     1      27.278  -0.612  52.730  1.00  0.00     0.074 A 
HETATM   21 CL1  UNL     1      27.104  -2.333  52.450  1.00  0.00    -0.081 Cl
HETATM   22  C15 UNL     1      26.228   0.289  52.527  1.00  0.00     0.056 A 
ENDBRANCH  13  15
ENDBRANCH   9  13
BRANCH  12  23
HETATM   23  N4  UNL     1      21.397   0.133  54.477  1.00  0.00    -0.362 N 
HETATM   24  H13 UNL     1      20.747   0.686  55.074  1.00  0.00     0.162 HD
BRANCH  23  25
HETATM   25  C19 UNL     1      21.994  -1.142  54.888  1.00  0.00     0.345 C 
HETATM   26  F2  UNL     1      21.846  -2.074  53.863  1.00  0.00    -0.234 F 
ENDBRANCH  23  25
ENDBRANCH  12  23
BRANCH   1  27
HETATM   27  O1  UNL     1      19.660  -0.096  52.387  1.00  0.00    -0.349 OA
BRANCH  27  28
HETATM   28  C2  UNL     1      18.509  -0.016  51.573  1.00  0.00     0.171 C 
HETATM   29  C1  UNL     1      17.321  -0.746  52.100  1.00  0.00     0.034 C 
ENDBRANCH  27  28
ENDBRANCH   1  27
TORSDOF 6
ENDMDL
MODEL 5
REMARK VINA RESULT:      -7.6      2.967      4.674
REMARK  6 active torsions:
REMARK  status: ('A' for Active; 'I' for Inactive)
REMARK    1  A    between atoms: C2_2  and  O1_3 
REMARK    2  A    between atoms: O1_3  and  C3_4 
REMARK    3  A    between atoms: C9_12  and  N3_13 
REMARK    4  A    between atoms: N3_13  and  C10_14 
REMARK    5  A    between atoms: C18_24  and  N4_25 
REMARK    6  A    between atoms: N4_25  and  C19_26 
ROOT
HETATM    1  C3  UNL     1      26.878  -0.131  53.249  1.00  0.00     0.097 A 
HETATM    2  C4  UNL     1      27.247   0.761  52.258  1.00  0.00     0.071 A 
HETATM    3  C5  UNL     1      26.430   1.748  51.782  1.00  0.00     0.071 A 
HETATM    4  N1  UNL     1      26.881   2.571  50.812  1.00  0.00    -0.259 NA
HETATM    5  C6  UNL     1      26.088   3.548  50.331  1.00  0.00     0.142 A 
HETATM    6  C7  UNL     1      24.812   3.699  50.842  1.00  0.00     0.089 A 
HETATM    7  C8  UNL     1      23.963   4.733  50.340  1.00  0.00     0.103 C 
HETATM    8  N2  UNL     1      23.271   5.574  49.952  1.00  0.00    -0.191 NA
HETATM    9  C9  UNL     1      24.357   2.855  51.834  1.00  0.00     0.067 A 
HETATM   10  C16 UNL     1      25.168   1.849  52.330  1.00  0.00     0.023 A 
HETATM   11  C17 UNL     1      24.775   0.973  53.318  1.00  0.00     0.048 A 
HETATM   12  C18 UNL     1      25.597  -0.030  53.806  1.00  0.00     0.064 A 
ENDROOT
BRANCH   9  13
HETATM   13  N3  UNL     1      23.058   2.968  52.390  1.00  0.00    -0.354 N 
HETATM   14  H8  UNL     1      22.962   3.724  53.084  1.00  0.00     0.166 HD
BRANCH  13  15
HETATM   15  C10 UNL     1      21.988   2.109  52.016  1.00  0.00     0.034 A 
HETATM   16  C11 UNL     1      21.463   2.214  50.743  1.00  0.00     0.032 A 
HETATM   17  C12 UNL     1      20.425   1.389  50.363  1.00  0.00     0.046 A 
HETATM   18  C13 UNL     1      19.972   0.489  51.314  1.00  0.00     0.138 A 
HETATM   19  F1  UNL     1      18.939  -0.331  50.936  1.00  0.00    -0.204 F 
HETATM   20  C14 UNL     1      20.477   0.363  52.593  1.00  0.00     0.074 A 
HETATM   21 CL1  UNL     1      19.805  -0.823  53.695  1.00  0.00    -0.081 Cl
HETATM   22  C15 UNL     1      21.530   1.209  52.956  1.00  0.00     0.056 A 
ENDBRANCH  13  15
ENDBRANCH   9  13
BRANCH  12  23
HETATM   23  N4  UNL     1      25.154  -0.914  54.828  1.00  0.00    -0.362 N 
HETATM   24  H13 UNL     1      25.856  -1.257  55.517  1.00  0.00     0.162 HD
BRANCH  23  25
HETATM   25  C19 UNL     1      23.738  -1.293  54.852  1.00  0.00     0.345 C 
HETATM   26  F2  UNL     1      23.288  -1.318  56.170  1.00  0.00    -0.234 F 
ENDBRANCH  23  25
ENDBRANCH  12  23
BRANCH   1  27
HETATM   27  O1  UNL     1      27.655  -1.136  53.762  1.00  0.00    -0.349 OA
BRANCH  27  28
HETATM   28  C2  UNL     1      28.866  -1.576  53.183  1.00  0.00     0.171 C 
HETATM   29  C1  UNL     1      30.091  -0.935  53.739  1.00  0.00     0.034 C 
ENDBRANCH  27  28
ENDBRANCH   1  27
TORSDOF 6
ENDMDL
MODEL 6
REMARK VINA RESULT:      -7.4      3.196      6.162
REMARK  6 active torsions:
REMARK  status: ('A' for Active; 'I' for Inactive)
REMARK    1  A    between atoms: C2_2  and  O1_3 
REMARK    2  A    between atoms: O1_3  and  C3_4 
REMARK    3  A    between atoms: C9_12  and  N3_13 
REMARK    4  A    between atoms: N3_13  and  C10_14 
REMARK    5  A    between atoms: C18_24  and  N4_25 
REMARK    6  A    between atoms: N4_25  and  C19_26 
ROOT
HETATM    1  C3  UNL     1      22.767   2.877  49.041  1.00  0.00     0.097 A 
HETATM    2  C4  UNL     1      21.920   1.871  49.472  1.00  0.00     0.071 A 
HETATM    3  C5  UNL     1      22.047   1.235  50.676  1.00  0.00     0.071 A 
HETATM    4  N1  UNL     1      21.170   0.264  51.007  1.00  0.00    -0.259 NA
HETATM    5  C6  UNL     1      21.281  -0.372  52.190  1.00  0.00     0.142 A 
HETATM    6  C7  UNL     1      22.298  -0.019  53.056  1.00  0.00     0.089 A 
HETATM    7  C8  UNL     1      22.425  -0.687  54.313  1.00  0.00     0.103 C 
HETATM    8  N2  UNL     1      22.530  -1.210  55.339  1.00  0.00    -0.191 NA
HETATM    9  C9  UNL     1      23.191   0.975  52.712  1.00  0.00     0.067 A 
HETATM   10  C16 UNL     1      23.081   1.630  51.498  1.00  0.00     0.023 A 
HETATM   11  C17 UNL     1      23.939   2.630  51.093  1.00  0.00     0.048 A 
HETATM   12  C18 UNL     1      23.817   3.278  49.875  1.00  0.00     0.064 A 
ENDROOT
BRANCH   9  13
HETATM   13  N3  UNL     1      24.251   1.372  53.566  1.00  0.00    -0.354 N 
HETATM   14  H8  UNL     1      23.972   2.043  54.297  1.00  0.00     0.166 HD
BRANCH  13  15
HETATM   15  C10 UNL     1      25.578   0.884  53.416  1.00  0.00     0.034 A 
HETATM   16  C11 UNL     1      26.633   1.755  53.605  1.00  0.00     0.032 A 
HETATM   17  C12 UNL     1      27.928   1.300  53.463  1.00  0.00     0.046 A 
HETATM   18  C13 UNL     1      28.078  -0.037  53.132  1.00  0.00     0.138 A 
HETATM   19  F1  UNL     1      29.365  -0.490  52.990  1.00  0.00    -0.204 F 
HETATM   20  C14 UNL     1      27.042  -0.929  52.935  1.00  0.00     0.074 A 
HETATM   21 CL1  UNL     1      27.381  -2.598  52.518  1.00  0.00    -0.081 Cl
HETATM   22  C15 UNL     1      25.739  -0.446  53.085  1.00  0.00     0.056 A 
ENDBRANCH  13  15
ENDBRANCH   9  13
BRANCH  12  23
HETATM   23  N4  UNL     1      24.723   4.307  49.493  1.00  0.00    -0.362 N 
HETATM   24  H13 UNL     1      25.590   4.033  48.984  1.00  0.00     0.162 HD
BRANCH  23  25
HETATM   25  C19 UNL     1      24.386   5.691  49.840  1.00  0.00     0.345 C 
HETATM   26  F2  UNL     1      23.498   5.696  50.912  1.00  0.00    -0.234 F 
ENDBRANCH  23  25
ENDBRANCH  12  23
BRANCH   1  27
HETATM   27  O1  UNL     1      22.686   3.545  47.847  1.00  0.00    -0.349 OA
BRANCH  27  28
HETATM   28  C2  UNL     1      21.683   3.320  46.879  1.00  0.00     0.171 C 
HETATM   29  C1  UNL     1      22.006   3.830  45.517  1.00  0.00     0.034 C 
ENDBRANCH  27  28
ENDBRANCH   1  27
TORSDOF 6
ENDMDL
MODEL 7
REMARK VINA RESULT:      -7.3      3.212      6.467
REMARK  6 active torsions:
REMARK  status: ('A' for Active; 'I' for Inactive)
REMARK    1  A    between atoms: C2_2  and  O1_3 
REMARK    2  A    between atoms: O1_3  and  C3_4 
REMARK    3  A    between atoms: C9_12  and  N3_13 
REMARK    4  A    between atoms: N3_13  and  C10_14 
REMARK    5  A    between atoms: C18_24  and  N4_25 
REMARK    6  A    between atoms: N4_25  and  C19_26 
ROOT
HETATM    1  C3  UNL     1      19.876   0.852  50.918  1.00  0.00     0.097 A 
HETATM    2  C4  UNL     1      19.771   0.513  52.256  1.00  0.00     0.071 A 
HETATM    3  C5  UNL     1      20.827   0.097  53.018  1.00  0.00     0.071 A 
HETATM    4  N1  UNL     1      20.624  -0.212  54.317  1.00  0.00    -0.259 NA
HETATM    5  C6  UNL     1      21.654  -0.624  55.082  1.00  0.00     0.142 A 
HETATM    6  C7  UNL     1      22.915  -0.723  54.524  1.00  0.00     0.089 A 
HETATM    7  C8  UNL     1      24.015  -1.158  55.327  1.00  0.00     0.103 C 
HETATM    8  N2  UNL     1      24.915  -1.495  55.970  1.00  0.00    -0.191 NA
HETATM    9  C9  UNL     1      23.116  -0.405  53.197  1.00  0.00     0.067 A 
HETATM   10  C16 UNL     1      22.060   0.017  52.408  1.00  0.00     0.023 A 
HETATM   11  C17 UNL     1      22.192   0.350  51.076  1.00  0.00     0.048 A 
HETATM   12  C18 UNL     1      21.127   0.771  50.297  1.00  0.00     0.064 A 
ENDROOT
BRANCH   9  13
HETATM   13  N3  UNL     1      24.389  -0.491  52.580  1.00  0.00    -0.354 N 
HETATM   14  H8  UNL     1      24.460  -1.229  51.864  1.00  0.00     0.166 HD
BRANCH  13  15
HETATM   15  C10 UNL     1      25.468   0.368  52.929  1.00  0.00     0.034 A 
HETATM   16  C11 UNL     1      25.202   1.697  53.192  1.00  0.00     0.032 A 
HETATM   17  C12 UNL     1      26.235   2.546  53.531  1.00  0.00     0.046 A 
HETATM   18  C13 UNL     1      27.501   1.985  53.584  1.00  0.00     0.138 A 
HETATM   19  F1  UNL     1      28.529   2.829  53.920  1.00  0.00    -0.204 F 
HETATM   20  C14 UNL     1      27.796   0.661  53.324  1.00  0.00     0.074 A 
HETATM   21 CL1  UNL     1      29.449   0.087  53.430  1.00  0.00    -0.081 Cl
HETATM   22  C15 UNL     1      26.733  -0.181  52.984  1.00  0.00     0.056 A 
ENDBRANCH  13  15
ENDBRANCH   9  13
BRANCH  12  23
HETATM   23  N4  UNL     1      21.305   1.106  48.926  1.00  0.00    -0.362 N 
HETATM   24  H13 UNL     1      20.746   0.585  48.218  1.00  0.00     0.162 HD
BRANCH  23  25
HETATM   25  C19 UNL     1      22.264   2.162  48.589  1.00  0.00     0.345 C 
HETATM   26  F2  UNL     1      21.993   3.295  49.352  1.00  0.00    -0.234 F 
ENDBRANCH  23  25
ENDBRANCH  12  23
BRANCH   1  27
HETATM   27  O1  UNL     1      18.853   1.273  50.109  1.00  0.00    -0.349 OA
BRANCH  27  28
HETATM   28  C2  UNL     1      17.485   1.053  50.381  1.00  0.00     0.171 C 
HETATM   29  C1  UNL     1      16.929  -0.203  49.804  1.00  0.00     0.034 C 
ENDBRANCH  27  28
ENDBRANCH   1  27
TORSDOF 6
ENDMDL
MODEL 8
REMARK VINA RESULT:      -7.2      2.450      3.059
REMARK  6 active torsions:
REMARK  status: ('A' for Active; 'I' for Inactive)
REMARK    1  A    between atoms: C2_2  and  O1_3 
REMARK    2  A    between atoms: O1_3  and  C3_4 
REMARK    3  A    between atoms: C9_12  and  N3_13 
REMARK    4  A    between atoms: N3_13  and  C10_14 
REMARK    5  A    between atoms: C18_24  and  N4_25 
REMARK    6  A    between atoms: N4_25  and  C19_26 
ROOT
HETATM    1  C3  UNL     1      26.722   2.033  52.211  1.00  0.00     0.097 A 
HETATM    2  C4  UNL     1      25.899   1.147  52.883  1.00  0.00     0.071 A 
HETATM    3  C5  UNL     1      24.583   0.947  52.571  1.00  0.00     0.071 A 
HETATM    4  N1  UNL     1      23.860   0.059  53.285  1.00  0.00    -0.259 NA
HETATM    5  C6  UNL     1      22.562  -0.149  52.990  1.00  0.00     0.142 A 
HETATM    6  C7  UNL     1      21.982   0.554  51.951  1.00  0.00     0.089 A 
HETATM    7  C8  UNL     1      20.606   0.340  51.629  1.00  0.00     0.103 C 
HETATM    8  N2  UNL     1      19.498   0.166  51.350  1.00  0.00    -0.191 NA
HETATM    9  C9  UNL     1      22.726   1.459  51.224  1.00  0.00     0.067 A 
HETATM   10  C16 UNL     1      24.060   1.677  51.524  1.00  0.00     0.023 A 
HETATM   11  C17 UNL     1      24.858   2.567  50.838  1.00  0.00     0.048 A 
HETATM   12  C18 UNL     1      26.192   2.775  51.149  1.00  0.00     0.064 A 
ENDROOT
BRANCH   9  13
HETATM   13  N3  UNL     1      22.177   2.204  50.149  1.00  0.00    -0.354 N 
HETATM   14  H8  UNL     1      21.839   1.625  49.366  1.00  0.00     0.166 HD
BRANCH  13  15
HETATM   15  C10 UNL     1      22.107   3.625  50.160  1.00  0.00     0.034 A 
HETATM   16  C11 UNL     1      21.593   4.257  51.275  1.00  0.00     0.032 A 
HETATM   17  C12 UNL     1      21.516   5.634  51.304  1.00  0.00     0.046 A 
HETATM   18  C13 UNL     1      21.973   6.300  50.179  1.00  0.00     0.138 A 
HETATM   19  F1  UNL     1      21.895   7.670  50.207  1.00  0.00    -0.204 F 
HETATM   20  C14 UNL     1      22.490   5.694  49.051  1.00  0.00     0.074 A 
HETATM   21 CL1  UNL     1      23.033   6.666  47.697  1.00  0.00    -0.081 Cl
HETATM   22  C15 UNL     1      22.559   4.298  49.044  1.00  0.00     0.056 A 
ENDBRANCH  13  15
ENDBRANCH   9  13
BRANCH  12  23
HETATM   23  N4  UNL     1      26.984   3.702  50.416  1.00  0.00    -0.362 N 
HETATM   24  H13 UNL     1      28.015   3.686  50.559  1.00  0.00     0.162 HD
BRANCH  23  25
HETATM   25  C19 UNL     1      26.303   4.627  49.505  1.00  0.00     0.345 C 
HETATM   26  F2  UNL     1      25.632   5.597  50.246  1.00  0.00    -0.234 F 
ENDBRANCH  23  25
ENDBRANCH  12  23
BRANCH   1  27
HETATM   27  O1  UNL     1      28.044   2.272  52.483  1.00  0.00    -0.349 OA
BRANCH  27  28
HETATM   28  C2  UNL     1      28.666   1.979  53.716  1.00  0.00     0.171 C 
HETATM   29  C1  UNL     1      29.404   0.684  53.750  1.00  0.00     0.034 C 
ENDBRANCH  27  28
ENDBRANCH   1  27
TORSDOF 6
ENDMDL
MODEL 9
REMARK VINA RESULT:      -7.0      3.786      5.615
REMARK  6 active torsions:
REMARK  status: ('A' for Active; 'I' for Inactive)
REMARK    1  A    between atoms: C2_2  and  O1_3 
REMARK    2  A    between atoms: O1_3  and  C3_4 
REMARK    3  A    between atoms: C9_12  and  N3_13 
REMARK    4  A    between atoms: N3_13  and  C10_14 
REMARK    5  A    between atoms: C18_24  and  N4_25 
REMARK    6  A    between atoms: N4_25  and  C19_26 
ROOT
HETATM    1  C3  UNL     1      25.726   4.762  49.477  1.00  0.00     0.097 A 
HETATM    2  C4  UNL     1      26.507   3.687  49.864  1.00  0.00     0.071 A 
HETATM    3  C5  UNL     1      26.119   2.762  50.792  1.00  0.00     0.071 A 
HETATM    4  N1  UNL     1      26.952   1.747  51.104  1.00  0.00    -0.259 NA
HETATM    5  C6  UNL     1      26.585   0.826  52.017  1.00  0.00     0.142 A 
HETATM    6  C7  UNL     1      25.350   0.934  52.628  1.00  0.00     0.089 A 
HETATM    7  C8  UNL     1      24.950  -0.037  53.598  1.00  0.00     0.103 C 
HETATM    8  N2  UNL     1      24.609  -0.823  54.374  1.00  0.00    -0.191 NA
HETATM    9  C9  UNL     1      24.502   1.974  52.305  1.00  0.00     0.067 A 
HETATM   10  C16 UNL     1      24.876   2.921  51.368  1.00  0.00     0.023 A 
HETATM   11  C17 UNL     1      24.078   3.983  51.001  1.00  0.00     0.048 A 
HETATM   12  C18 UNL     1      24.465   4.925  50.062  1.00  0.00     0.064 A 
ENDROOT
BRANCH   9  13
HETATM   13  N3  UNL     1      23.227   2.127  52.904  1.00  0.00    -0.354 N 
HETATM   14  H8  UNL     1      23.221   2.747  53.727  1.00  0.00     0.166 HD
BRANCH  13  15
HETATM   15  C10 UNL     1      22.065   1.475  52.407  1.00  0.00     0.034 A 
HETATM   16  C11 UNL     1      21.625   1.778  51.134  1.00  0.00     0.032 A 
HETATM   17  C12 UNL     1      20.499   1.157  50.634  1.00  0.00     0.046 A 
HETATM   18  C13 UNL     1      19.875   0.247  51.471  1.00  0.00     0.138 A 
HETATM   19  F1  UNL     1      18.755  -0.371  50.975  1.00  0.00    -0.204 F 
HETATM   20  C14 UNL     1      20.292  -0.075  52.748  1.00  0.00     0.074 A 
HETATM   21 CL1  UNL     1      19.402  -1.249  53.698  1.00  0.00    -0.081 Cl
HETATM   22  C15 UNL     1      21.435   0.567  53.233  1.00  0.00     0.056 A 
ENDBRANCH  13  15
ENDBRANCH   9  13
BRANCH  12  23
HETATM   23  N4  UNL     1      23.612   6.007  49.709  1.00  0.00    -0.362 N 
HETATM   24  H13 UNL     1      23.000   5.897  48.873  1.00  0.00     0.162 HD
BRANCH  23  25
HETATM   25  C19 UNL     1      23.644   7.215  50.540  1.00  0.00     0.345 C 
HETATM   26  F2  UNL     1      24.611   7.069  51.531  1.00  0.00    -0.234 F 
ENDBRANCH  23  25
ENDBRANCH  12  23
BRANCH   1  27
HETATM   27  O1  UNL     1      26.065   5.716  48.554  1.00  0.00    -0.349 OA
BRANCH  27  28
HETATM   28  C2  UNL     1      27.103   6.658  48.732  1.00  0.00     0.171 C 
HETATM   29  C1  UNL     1      28.372   6.329  48.025  1.00  0.00     0.034 C 
ENDBRANCH  27  28
ENDBRANCH   1  27
TORSDOF 6
ENDMDL
