MODEL 1
REMARK VINA RESULT:      -6.7      0.000      0.000
REMARK  8 active torsions:
REMARK  status: ('A' for Active; 'I' for Inactive)
REMARK    1  A    between atoms: C2_2  and  C3_3 
REMARK    2  A    between atoms: C3_3  and  C7_9 
REMARK    3  A    between atoms: C4_4  and  C5_5 
REMARK    4  A    between atoms: C5_5  and  N1_6 
REMARK    5  A    between atoms: C7_9  and  C8_10 
REMARK       I    between atoms: C8_10  and  N2_12 
REMARK    6  A    between atoms: N2_12  and  S1_13 
REMARK    7  A    between atoms: S1_13  and  C9_16 
REMARK    8  A    between atoms: C10_17  and  C11_18 
ROOT
HETATM    1  C8  UNL     1      24.805   2.777  52.241  1.00  0.00     0.235 C 
HETATM    2  O1  UNL     1      24.874   2.644  50.999  1.00  0.00    -0.272 OA
HETATM    3  N2  UNL     1      24.047   3.935  52.552  1.00  0.00    -0.251 N 
HETATM    4  H10 UNL     1      23.830   4.286  53.532  1.00  0.00     0.181 HD
ENDROOT
BRANCH   1   5
HETATM    5  C7  UNL     1      25.353   1.973  53.364  1.00  0.00     0.142 C 
BRANCH   5   6
HETATM    6  C3  UNL     1      24.895   0.565  53.295  1.00  0.00    -0.052 C 
HETATM    7  C4  UNL     1      25.679  -0.484  53.170  1.00  0.00     0.002 C 
BRANCH   6   8
HETATM    8  C2  UNL     1      23.459   0.331  53.370  1.00  0.00    -0.003 C 
HETATM    9  C1  UNL     1      22.941  -0.809  53.758  1.00  0.00     0.012 C 
ENDBRANCH   6   8
BRANCH   7  10
HETATM   10  C5  UNL     1      27.138  -0.572  53.071  1.00  0.00     0.178 C 
BRANCH  10  11
HETATM   11  N1  UNL     1      27.780  -0.657  54.351  1.00  0.00    -0.270 NA
HETATM   12  C6  UNL     1      28.557   0.238  54.829  1.00  0.00     0.299 C 
HETATM   13  F1  UNL     1      29.125   1.444  54.593  1.00  0.00    -0.199 F 
ENDBRANCH  10  11
ENDBRANCH   7  10
ENDBRANCH   5   6
ENDBRANCH   1   5
BRANCH   3  14
HETATM   14  S1  UNL     1      23.441   4.822  51.211  1.00  0.00     0.255 S 
HETATM   15  O2  UNL     1      22.723   3.950  50.207  1.00  0.00    -0.201 OA
HETATM   16  O3  UNL     1      22.410   5.832  51.669  1.00  0.00    -0.201 OA
BRANCH  14  17
HETATM   17  C9  UNL     1      24.678   5.704  50.360  1.00  0.00     0.131 C 
HETATM   18  C10 UNL     1      25.221   5.624  49.155  1.00  0.00     0.014 C 
BRANCH  18  19
HETATM   19  C11 UNL     1      26.273   6.496  48.647  1.00  0.00     0.003 C 
HETATM   20  C12 UNL     1      27.423   5.906  48.468  1.00  0.00    -0.088 C 
HETATM   21  C13 UNL     1      27.467   4.455  48.811  1.00  0.00     0.043 C 
HETATM   22  C14 UNL     1      28.484   6.809  47.950  1.00  0.00     0.043 C 
ENDBRANCH  18  19
ENDBRANCH  14  17
ENDBRANCH   3  14
TORSDOF 8
ENDMDL
MODEL 2
REMARK VINA RESULT:      -6.7      1.018      1.315
REMARK  8 active torsions:
REMARK  status: ('A' for Active; 'I' for Inactive)
REMARK    1  A    between atoms: C2_2  and  C3_3 
REMARK    2  A    between atoms: C3_3  and  C7_9 
REMARK    3  A    between atoms: C4_4  and  C5_5 
REMARK    4  A    between atoms: C5_5  and  N1_6 
REMARK    5  A    between atoms: C7_9  and  C8_10 
REMARK       I    between atoms: C8_10  and  N2_12 
REMARK    6  A    between atoms: N2_12  and  S1_13 
REMARK    7  A    between atoms: S1_13  and  C9_16 
REMARK    8  A    between atoms: C10_17  and  C11_18 
ROOT
HETATM    1  C8  UNL     1      25.043   2.316  52.182  1.00  0.00     0.235 C 
HETATM    2  O1  UNL     1      25.491   1.951  51.072  1.00  0.00    -0.272 OA
HETATM    3  N2  UNL     1      24.448   3.597  52.054  1.00  0.00    -0.251 N 
HETATM    4  H10 UNL     1      23.989   4.147  52.841  1.00  0.00     0.181 HD
ENDROOT
BRANCH   1   5
HETATM    5  C7  UNL     1      25.037   1.669  53.519  1.00  0.00     0.142 C 
BRANCH   5   6
HETATM    6  C3  UNL     1      24.717   0.225  53.419  1.00  0.00    -0.052 C 
HETATM    7  C4  UNL     1      25.602  -0.744  53.319  1.00  0.00     0.002 C 
BRANCH   6   8
HETATM    8  C2  UNL     1      23.308  -0.144  53.430  1.00  0.00    -0.003 C 
HETATM    9  C1  UNL     1      22.774  -0.895  54.363  1.00  0.00     0.012 C 
ENDBRANCH   6   8
BRANCH   7  10
HETATM   10  C5  UNL     1      27.065  -0.694  53.282  1.00  0.00     0.178 C 
BRANCH  10  11
HETATM   11  N1  UNL     1      27.648  -0.439  54.568  1.00  0.00    -0.270 NA
HETATM   12  C6  UNL     1      28.753   0.178  54.749  1.00  0.00     0.299 C 
HETATM   13  F1  UNL     1      29.781   0.801  54.129  1.00  0.00    -0.199 F 
ENDBRANCH  10  11
ENDBRANCH   7  10
ENDBRANCH   5   6
ENDBRANCH   1   5
BRANCH   3  14
HETATM   14  S1  UNL     1      24.487   4.294  50.483  1.00  0.00     0.255 S 
HETATM   15  O2  UNL     1      23.641   3.537  49.485  1.00  0.00    -0.201 OA
HETATM   16  O3  UNL     1      23.910   5.693  50.512  1.00  0.00    -0.201 OA
BRANCH  14  17
HETATM   17  C9  UNL     1      26.096   4.417  49.830  1.00  0.00     0.131 C 
HETATM   18  C10 UNL     1      26.680   5.183  48.922  1.00  0.00     0.014 C 
BRANCH  18  19
HETATM   19  C11 UNL     1      28.082   5.102  48.528  1.00  0.00     0.003 C 
HETATM   20  C12 UNL     1      28.582   6.220  48.081  1.00  0.00    -0.088 C 
HETATM   21  C13 UNL     1      27.646   7.381  48.049  1.00  0.00     0.043 C 
HETATM   22  C14 UNL     1      30.011   6.120  47.685  1.00  0.00     0.043 C 
ENDBRANCH  18  19
ENDBRANCH  14  17
ENDBRANCH   3  14
TORSDOF 8
ENDMDL
MODEL 3
REMARK VINA RESULT:      -6.7      3.251      5.075
REMARK  8 active torsions:
REMARK  status: ('A' for Active; 'I' for Inactive)
REMARK    1  A    between atoms: C2_2  and  C3_3 
REMARK    2  A    between atoms: C3_3  and  C7_9 
REMARK    3  A    between atoms: C4_4  and  C5_5 
REMARK    4  A    between atoms: C5_5  and  N1_6 
REMARK    5  A    between atoms: C7_9  and  C8_10 
REMARK       I    between atoms: C8_10  and  N2_12 
REMARK    6  A    between atoms: N2_12  and  S1_13 
REMARK    7  A    between atoms: S1_13  and  C9_16 
REMARK    8  A    between atoms: C10_17  and  C11_18 
ROOT
HETATM    1  C8  UNL     1      23.761   0.933  52.834  1.00  0.00     0.235 C 
HETATM    2  O1  UNL     1      23.923   2.122  53.187  1.00  0.00    -0.272 OA
HETATM    3  N2  UNL     1      25.023   0.298  52.720  1.00  0.00    -0.251 N 
HETATM    4  H10 UNL     1      25.182  -0.716  52.436  1.00  0.00     0.181 HD
ENDROOT
BRANCH   1   5
HETATM    5  C7  UNL     1      22.543   0.136  52.535  1.00  0.00     0.142 C 
BRANCH   5   6
HETATM    6  C3  UNL     1      21.539   0.256  53.619  1.00  0.00    -0.052 C 
HETATM    7  C4  UNL     1      20.394   0.899  53.526  1.00  0.00     0.002 C 
BRANCH   6   8
HETATM    8  C2  UNL     1      21.851  -0.390  54.887  1.00  0.00    -0.003 C 
HETATM    9  C1  UNL     1      22.315  -1.613  54.969  1.00  0.00     0.012 C 
ENDBRANCH   6   8
BRANCH   7  10
HETATM   10  C5  UNL     1      19.807   1.635  52.404  1.00  0.00     0.178 C 
BRANCH  10  11
HETATM   11  N1  UNL     1      19.922   3.057  52.548  1.00  0.00    -0.270 NA
HETATM   12  C6  UNL     1      20.896   3.751  52.096  1.00  0.00     0.299 C 
HETATM   13  F1  UNL     1      22.068   3.696  51.420  1.00  0.00    -0.199 F 
ENDBRANCH  10  11
ENDBRANCH   7  10
ENDBRANCH   5   6
ENDBRANCH   1   5
BRANCH   3  14
HETATM   14  S1  UNL     1      26.393   1.271  53.079  1.00  0.00     0.255 S 
HETATM   15  O2  UNL     1      26.206   2.114  54.319  1.00  0.00    -0.201 OA
HETATM   16  O3  UNL     1      27.598   0.401  53.369  1.00  0.00    -0.201 OA
BRANCH  14  17
HETATM   17  C9  UNL     1      26.834   2.337  51.775  1.00  0.00     0.131 C 
HETATM   18  C10 UNL     1      26.246   2.743  50.661  1.00  0.00     0.014 C 
BRANCH  18  19
HETATM   19  C11 UNL     1      26.824   3.667  49.692  1.00  0.00     0.003 C 
HETATM   20  C12 UNL     1      26.158   4.779  49.542  1.00  0.00    -0.088 C 
HETATM   21  C13 UNL     1      24.930   4.915  50.378  1.00  0.00     0.043 C 
HETATM   22  C14 UNL     1      26.761   5.709  48.553  1.00  0.00     0.043 C 
ENDBRANCH  18  19
ENDBRANCH  14  17
ENDBRANCH   3  14
TORSDOF 8
ENDMDL
MODEL 4
REMARK VINA RESULT:      -6.5      3.526      7.371
REMARK  8 active torsions:
REMARK  status: ('A' for Active; 'I' for Inactive)
REMARK    1  A    between atoms: C2_2  and  C3_3 
REMARK    2  A    between atoms: C3_3  and  C7_9 
REMARK    3  A    between atoms: C4_4  and  C5_5 
REMARK    4  A    between atoms: C5_5  and  N1_6 
REMARK    5  A    between atoms: C7_9  and  C8_10 
REMARK       I    between atoms: C8_10  and  N2_12 
REMARK    6  A    between atoms: N2_12  and  S1_13 
REMARK    7  A    between atoms: S1_13  and  C9_16 
REMARK    8  A    between atoms: C10_17  and  C11_18 
ROOT
HETATM    1  C8  UNL     1      26.228   2.381  51.204  1.00  0.00     0.235 C 
HETATM    2  O1  UNL     1      25.584   2.889  52.149  1.00  0.00    -0.272 OA
HETATM    3  N2  UNL     1      27.083   1.367  51.705  1.00  0.00    -0.251 N 
HETATM    4  H10 UNL     1      27.744   0.771  51.121  1.00  0.00     0.181 HD
ENDROOT
BRANCH   1   5
HETATM    5  C7  UNL     1      26.240   2.653  49.743  1.00  0.00     0.142 C 
BRANCH   5   6
HETATM    6  C3  UNL     1      25.594   3.949  49.430  1.00  0.00    -0.052 C 
HETATM    7  C4  UNL     1      24.296   4.148  49.335  1.00  0.00     0.002 C 
BRANCH   6   8
HETATM    8  C2  UNL     1      26.471   5.091  49.209  1.00  0.00    -0.003 C 
HETATM    9  C1  UNL     1      27.642   4.989  48.629  1.00  0.00     0.012 C 
ENDBRANCH   6   8
BRANCH   7  10
HETATM   10  C5  UNL     1      23.178   3.216  49.500  1.00  0.00     0.178 C 
BRANCH  10  11
HETATM   11  N1  UNL     1      22.705   2.685  48.254  1.00  0.00    -0.270 NA
HETATM   12  C6  UNL     1      22.030   1.606  48.140  1.00  0.00     0.299 C 
HETATM   13  F1  UNL     1      21.477   0.575  48.822  1.00  0.00    -0.199 F 
ENDBRANCH  10  11
ENDBRANCH   7  10
ENDBRANCH   5   6
ENDBRANCH   1   5
BRANCH   3  14
HETATM   14  S1  UNL     1      27.025   1.100  53.402  1.00  0.00     0.255 S 
HETATM   15  O2  UNL     1      28.134   0.199  53.892  1.00  0.00    -0.201 OA
HETATM   16  O3  UNL     1      27.213   2.404  54.148  1.00  0.00    -0.201 OA
BRANCH  14  17
HETATM   17  C9  UNL     1      25.513   0.419  53.934  1.00  0.00     0.131 C 
HETATM   18  C10 UNL     1      24.499  -0.187  53.336  1.00  0.00     0.014 C 
BRANCH  18  19
HETATM   19  C11 UNL     1      23.304  -0.687  54.006  1.00  0.00     0.003 C 
HETATM   20  C12 UNL     1      22.183  -0.354  53.428  1.00  0.00    -0.088 C 
HETATM   21  C13 UNL     1      22.311   0.473  52.193  1.00  0.00     0.043 C 
HETATM   22  C14 UNL     1      20.976  -0.872  54.123  1.00  0.00     0.043 C 
ENDBRANCH  18  19
ENDBRANCH  14  17
ENDBRANCH   3  14
TORSDOF 8
ENDMDL
MODEL 5
REMARK VINA RESULT:      -6.4      4.242      6.725
REMARK  8 active torsions:
REMARK  status: ('A' for Active; 'I' for Inactive)
REMARK    1  A    between atoms: C2_2  and  C3_3 
REMARK    2  A    between atoms: C3_3  and  C7_9 
REMARK    3  A    between atoms: C4_4  and  C5_5 
REMARK    4  A    between atoms: C5_5  and  N1_6 
REMARK    5  A    between atoms: C7_9  and  C8_10 
REMARK       I    between atoms: C8_10  and  N2_12 
REMARK    6  A    between atoms: N2_12  and  S1_13 
REMARK    7  A    between atoms: S1_13  and  C9_16 
REMARK    8  A    between atoms: C10_17  and  C11_18 
ROOT
HETATM    1  C8  UNL     1      24.231  -0.649  53.786  1.00  0.00     0.235 C 
HETATM    2  O1  UNL     1      24.090  -0.968  54.987  1.00  0.00    -0.272 OA
HETATM    3  N2  UNL     1      22.956  -0.540  53.173  1.00  0.00    -0.251 N 
HETATM    4  H10 UNL     1      22.779  -0.281  52.156  1.00  0.00     0.181 HD
ENDROOT
BRANCH   1   5
HETATM    5  C7  UNL     1      25.435  -0.388  52.955  1.00  0.00     0.142 C 
BRANCH   5   6
HETATM    6  C3  UNL     1      26.045   0.921  53.285  1.00  0.00    -0.052 C 
HETATM    7  C4  UNL     1      27.082   1.098  54.077  1.00  0.00     0.002 C 
BRANCH   6   8
HETATM    8  C2  UNL     1      25.445   2.104  52.684  1.00  0.00    -0.003 C 
HETATM    9  C1  UNL     1      25.687   2.479  51.451  1.00  0.00     0.012 C 
ENDBRANCH   6   8
BRANCH   7  10
HETATM   10  C5  UNL     1      27.889   0.124  54.816  1.00  0.00     0.178 C 
BRANCH  10  11
HETATM   11  N1  UNL     1      29.150  -0.147  54.189  1.00  0.00    -0.270 NA
HETATM   12  C6  UNL     1      29.405  -1.198  53.506  1.00  0.00     0.299 C 
HETATM   13  F1  UNL     1      28.893  -2.363  53.046  1.00  0.00    -0.199 F 
ENDBRANCH  10  11
ENDBRANCH   7  10
ENDBRANCH   5   6
ENDBRANCH   1   5
BRANCH   3  14
HETATM   14  S1  UNL     1      21.603  -0.854  54.185  1.00  0.00     0.255 S 
HETATM   15  O2  UNL     1      21.714  -2.168  54.923  1.00  0.00    -0.201 OA
HETATM   16  O3  UNL     1      21.497   0.201  55.266  1.00  0.00    -0.201 OA
BRANCH  14  17
HETATM   17  C9  UNL     1      20.091  -0.856  53.322  1.00  0.00     0.131 C 
HETATM   18  C10 UNL     1      19.574  -0.134  52.340  1.00  0.00     0.014 C 
BRANCH  18  19
HETATM   19  C11 UNL     1      18.249  -0.325  51.762  1.00  0.00     0.003 C 
HETATM   20  C12 UNL     1      18.075   0.257  50.608  1.00  0.00    -0.088 C 
HETATM   21  C13 UNL     1      19.248   1.012  50.080  1.00  0.00     0.043 C 
HETATM   22  C14 UNL     1      16.720   0.052  50.034  1.00  0.00     0.043 C 
ENDBRANCH  18  19
ENDBRANCH  14  17
ENDBRANCH   3  14
TORSDOF 8
ENDMDL
MODEL 6
REMARK VINA RESULT:      -6.3      3.140      7.060
REMARK  8 active torsions:
REMARK  status: ('A' for Active; 'I' for Inactive)
REMARK    1  A    between atoms: C2_2  and  C3_3 
REMARK    2  A    between atoms: C3_3  and  C7_9 
REMARK    3  A    between atoms: C4_4  and  C5_5 
REMARK    4  A    between atoms: C5_5  and  N1_6 
REMARK    5  A    between atoms: C7_9  and  C8_10 
REMARK       I    between atoms: C8_10  and  N2_12 
REMARK    6  A    between atoms: N2_12  and  S1_13 
REMARK    7  A    between atoms: S1_13  and  C9_16 
REMARK    8  A    between atoms: C10_17  and  C11_18 
ROOT
HETATM    1  C8  UNL     1      26.086   2.538  51.358  1.00  0.00     0.235 C 
HETATM    2  O1  UNL     1      25.450   2.965  52.347  1.00  0.00    -0.272 OA
HETATM    3  N2  UNL     1      26.908   1.453  51.757  1.00  0.00    -0.251 N 
HETATM    4  H10 UNL     1      27.555   0.901  51.117  1.00  0.00     0.181 HD
ENDROOT
BRANCH   1   5
HETATM    5  C7  UNL     1      26.117   2.958  49.933  1.00  0.00     0.142 C 
BRANCH   5   6
HETATM    6  C3  UNL     1      24.891   3.703  49.563  1.00  0.00    -0.052 C 
HETATM    7  C4  UNL     1      24.773   5.014  49.552  1.00  0.00     0.002 C 
BRANCH   6   8
HETATM    8  C2  UNL     1      23.726   2.916  49.182  1.00  0.00    -0.003 C 
HETATM    9  C1  UNL     1      22.496   3.353  49.309  1.00  0.00     0.012 C 
ENDBRANCH   6   8
BRANCH   7  10
HETATM   10  C5  UNL     1      25.747   6.058  49.878  1.00  0.00     0.178 C 
BRANCH  10  11
HETATM   11  N1  UNL     1      26.483   6.512  48.733  1.00  0.00    -0.270 NA
HETATM   12  C6  UNL     1      27.547   5.958  48.293  1.00  0.00     0.299 C 
HETATM   13  F1  UNL     1      28.422   4.944  48.488  1.00  0.00    -0.199 F 
ENDBRANCH  10  11
ENDBRANCH   7  10
ENDBRANCH   5   6
ENDBRANCH   1   5
BRANCH   3  14
HETATM   14  S1  UNL     1      26.828   1.015  53.416  1.00  0.00     0.255 S 
HETATM   15  O2  UNL     1      27.976   0.131  53.845  1.00  0.00    -0.201 OA
HETATM   16  O3  UNL     1      26.926   2.246  54.292  1.00  0.00    -0.201 OA
BRANCH  14  17
HETATM   17  C9  UNL     1      25.346   0.203  53.837  1.00  0.00     0.131 C 
HETATM   18  C10 UNL     1      24.214  -0.062  53.206  1.00  0.00     0.014 C 
BRANCH  18  19
HETATM   19  C11 UNL     1      23.079  -0.777  53.777  1.00  0.00     0.003 C 
HETATM   20  C12 UNL     1      21.914  -0.358  53.365  1.00  0.00    -0.088 C 
HETATM   21  C13 UNL     1      21.940   0.771  52.390  1.00  0.00     0.043 C 
HETATM   22  C14 UNL     1      20.769  -1.098  53.957  1.00  0.00     0.043 C 
ENDBRANCH  18  19
ENDBRANCH  14  17
ENDBRANCH   3  14
TORSDOF 8
ENDMDL
MODEL 7
REMARK VINA RESULT:      -6.2      3.171      4.260
REMARK  8 active torsions:
REMARK  status: ('A' for Active; 'I' for Inactive)
REMARK    1  A    between atoms: C2_2  and  C3_3 
REMARK    2  A    between atoms: C3_3  and  C7_9 
REMARK    3  A    between atoms: C4_4  and  C5_5 
REMARK    4  A    between atoms: C5_5  and  N1_6 
REMARK    5  A    between atoms: C7_9  and  C8_10 
REMARK       I    between atoms: C8_10  and  N2_12 
REMARK    6  A    between atoms: N2_12  and  S1_13 
REMARK    7  A    between atoms: S1_13  and  C9_16 
REMARK    8  A    between atoms: C10_17  and  C11_18 
ROOT
HETATM    1  C8  UNL     1      24.012   2.054  52.983  1.00  0.00     0.235 C 
HETATM    2  O1  UNL     1      23.147   2.908  52.687  1.00  0.00    -0.272 OA
HETATM    3  N2  UNL     1      23.433   0.760  52.945  1.00  0.00    -0.251 N 
HETATM    4  H10 UNL     1      23.941  -0.151  53.154  1.00  0.00     0.181 HD
ENDROOT
BRANCH   1   5
HETATM    5  C7  UNL     1      25.449   2.171  53.345  1.00  0.00     0.142 C 
BRANCH   5   6
HETATM    6  C3  UNL     1      26.311   1.460  52.371  1.00  0.00    -0.052 C 
HETATM    7  C4  UNL     1      27.085   0.434  52.651  1.00  0.00     0.002 C 
BRANCH   6   8
HETATM    8  C2  UNL     1      26.296   1.942  50.997  1.00  0.00    -0.003 C 
HETATM    9  C1  UNL     1      26.640   3.163  50.665  1.00  0.00     0.012 C 
ENDBRANCH   6   8
BRANCH   7  10
HETATM   10  C5  UNL     1      27.312  -0.268  53.917  1.00  0.00     0.178 C 
BRANCH  10  11
HETATM   11  N1  UNL     1      28.356  -1.248  53.833  1.00  0.00    -0.270 NA
HETATM   12  C6  UNL     1      29.581  -0.977  53.585  1.00  0.00     0.299 C 
HETATM   13  F1  UNL     1      30.457   0.020  53.323  1.00  0.00    -0.199 F 
ENDBRANCH  10  11
ENDBRANCH   7  10
ENDBRANCH   5   6
ENDBRANCH   1   5
BRANCH   3  14
HETATM   14  S1  UNL     1      21.769   0.690  52.520  1.00  0.00     0.255 S 
HETATM   15  O2  UNL     1      21.165  -0.677  52.740  1.00  0.00    -0.201 OA
HETATM   16  O3  UNL     1      20.962   1.626  53.394  1.00  0.00    -0.201 OA
BRANCH  14  17
HETATM   17  C9  UNL     1      21.467   1.144  50.867  1.00  0.00     0.131 C 
HETATM   18  C10 UNL     1      22.227   1.388  49.811  1.00  0.00     0.014 C 
BRANCH  18  19
HETATM   19  C11 UNL     1      21.736   1.763  48.489  1.00  0.00     0.003 C 
HETATM   20  C12 UNL     1      22.317   2.812  47.976  1.00  0.00    -0.088 C 
HETATM   21  C13 UNL     1      23.373   3.445  48.818  1.00  0.00     0.043 C 
HETATM   22  C14 UNL     1      21.806   3.179  46.630  1.00  0.00     0.043 C 
ENDBRANCH  18  19
ENDBRANCH  14  17
ENDBRANCH   3  14
TORSDOF 8
ENDMDL
MODEL 8
REMARK VINA RESULT:      -6.2      3.847      5.967
REMARK  8 active torsions:
REMARK  status: ('A' for Active; 'I' for Inactive)
REMARK    1  A    between atoms: C2_2  and  C3_3 
REMARK    2  A    between atoms: C3_3  and  C7_9 
REMARK    3  A    between atoms: C4_4  and  C5_5 
REMARK    4  A    between atoms: C5_5  and  N1_6 
REMARK    5  A    between atoms: C7_9  and  C8_10 
REMARK       I    between atoms: C8_10  and  N2_12 
REMARK    6  A    between atoms: N2_12  and  S1_13 
REMARK    7  A    between atoms: S1_13  and  C9_16 
REMARK    8  A    between atoms: C10_17  and  C11_18 
ROOT
HETATM    1  C8  UNL     1      22.843   1.500  51.407  1.00  0.00     0.235 C 
HETATM    2  O1  UNL     1      23.280   2.024  52.456  1.00  0.00    -0.272 OA
HETATM    3  N2  UNL     1      23.553   2.013  50.292  1.00  0.00    -0.251 N 
HETATM    4  H10 UNL     1      23.389   1.740  49.276  1.00  0.00     0.181 HD
ENDROOT
BRANCH   1   5
HETATM    5  C7  UNL     1      21.774   0.499  51.160  1.00  0.00     0.142 C 
BRANCH   5   6
HETATM    6  C3  UNL     1      20.941   0.289  52.368  1.00  0.00    -0.052 C 
HETATM    7  C4  UNL     1      19.821   0.924  52.638  1.00  0.00     0.002 C 
BRANCH   6   8
HETATM    8  C2  UNL     1      21.406  -0.701  53.330  1.00  0.00    -0.003 C 
HETATM    9  C1  UNL     1      21.385  -0.502  54.626  1.00  0.00     0.012 C 
ENDBRANCH   6   8
BRANCH   7  10
HETATM   10  C5  UNL     1      19.108   1.956  51.881  1.00  0.00     0.178 C 
BRANCH  10  11
HETATM   11  N1  UNL     1      19.491   3.287  52.255  1.00  0.00    -0.270 NA
HETATM   12  C6  UNL     1      20.278   4.030  51.574  1.00  0.00     0.299 C 
HETATM   13  F1  UNL     1      21.033   4.098  50.453  1.00  0.00    -0.199 F 
ENDBRANCH  10  11
ENDBRANCH   7  10
ENDBRANCH   5   6
ENDBRANCH   1   5
BRANCH   3  14
HETATM   14  S1  UNL     1      24.777   3.167  50.641  1.00  0.00     0.255 S 
HETATM   15  O2  UNL     1      25.413   3.744  49.397  1.00  0.00    -0.201 OA
HETATM   16  O3  UNL     1      24.189   4.354  51.374  1.00  0.00    -0.201 OA
BRANCH  14  17
HETATM   17  C9  UNL     1      26.052   2.529  51.641  1.00  0.00     0.131 C 
HETATM   18  C10 UNL     1      26.608   1.338  51.799  1.00  0.00     0.014 C 
BRANCH  18  19
HETATM   19  C11 UNL     1      27.695   1.032  52.722  1.00  0.00     0.003 C 
HETATM   20  C12 UNL     1      27.777  -0.225  53.061  1.00  0.00    -0.088 C 
HETATM   21  C13 UNL     1      26.757  -1.127  52.453  1.00  0.00     0.043 C 
HETATM   22  C14 UNL     1      28.889  -0.519  54.002  1.00  0.00     0.043 C 
ENDBRANCH  18  19
ENDBRANCH  14  17
ENDBRANCH   3  14
TORSDOF 8
ENDMDL
MODEL 9
REMARK VINA RESULT:      -6.2      2.396      3.211
REMARK  8 active torsions:
REMARK  status: ('A' for Active; 'I' for Inactive)
REMARK    1  A    between atoms: C2_2  and  C3_3 
REMARK    2  A    between atoms: C3_3  and  C7_9 
REMARK    3  A    between atoms: C4_4  and  C5_5 
REMARK    4  A    between atoms: C5_5  and  N1_6 
REMARK    5  A    between atoms: C7_9  and  C8_10 
REMARK       I    between atoms: C8_10  and  N2_12 
REMARK    6  A    between atoms: N2_12  and  S1_13 
REMARK    7  A    between atoms: S1_13  and  C9_16 
REMARK    8  A    between atoms: C10_17  and  C11_18 
ROOT
HETATM    1  C8  UNL     1      24.479   2.630  52.283  1.00  0.00     0.235 C 
HETATM    2  O1  UNL     1      24.555   2.480  51.043  1.00  0.00    -0.272 OA
HETATM    3  N2  UNL     1      23.711   3.786  52.574  1.00  0.00    -0.251 N 
HETATM    4  H10 UNL     1      23.486   4.150  53.548  1.00  0.00     0.181 HD
ENDROOT
BRANCH   1   5
HETATM    5  C7  UNL     1      25.029   1.847  53.419  1.00  0.00     0.142 C 
BRANCH   5   6
HETATM    6  C3  UNL     1      25.299   0.443  53.028  1.00  0.00    -0.052 C 
HETATM    7  C4  UNL     1      24.523  -0.584  53.299  1.00  0.00     0.002 C 
BRANCH   6   8
HETATM    8  C2  UNL     1      26.525   0.187  52.284  1.00  0.00    -0.003 C 
HETATM    9  C1  UNL     1      27.397  -0.726  52.638  1.00  0.00     0.012 C 
ENDBRANCH   6   8
BRANCH   7  10
HETATM   10  C5  UNL     1      23.247  -0.646  54.017  1.00  0.00     0.178 C 
BRANCH  10  11
HETATM   11  N1  UNL     1      22.147  -0.143  53.246  1.00  0.00    -0.270 NA
HETATM   12  C6  UNL     1      21.095   0.382  53.748  1.00  0.00     0.299 C 
HETATM   13  F1  UNL     1      20.477   0.721  54.903  1.00  0.00    -0.199 F 
ENDBRANCH  10  11
ENDBRANCH   7  10
ENDBRANCH   5   6
ENDBRANCH   1   5
BRANCH   3  14
HETATM   14  S1  UNL     1      23.103   4.649  51.218  1.00  0.00     0.255 S 
HETATM   15  O2  UNL     1      22.406   3.756  50.218  1.00  0.00    -0.201 OA
HETATM   16  O3  UNL     1      22.054   5.649  51.656  1.00  0.00    -0.201 OA
BRANCH  14  17
HETATM   17  C9  UNL     1      24.334   5.538  50.366  1.00  0.00     0.131 C 
HETATM   18  C10 UNL     1      24.922   5.423  49.186  1.00  0.00     0.014 C 
BRANCH  18  19
HETATM   19  C11 UNL     1      25.958   6.312  48.671  1.00  0.00     0.003 C 
HETATM   20  C12 UNL     1      27.140   5.768  48.582  1.00  0.00    -0.088 C 
HETATM   21  C13 UNL     1      27.232   4.344  49.018  1.00  0.00     0.043 C 
HETATM   22  C14 UNL     1      28.183   6.687  48.056  1.00  0.00     0.043 C 
ENDBRANCH  18  19
ENDBRANCH  14  17
ENDBRANCH   3  14
TORSDOF 8
ENDMDL
