MODEL 1
REMARK VINA RESULT:      -8.8      0.000      0.000
REMARK  4 active torsions:
REMARK  status: ('A' for Active; 'I' for Inactive)
REMARK    1  A    between atoms: O1_2  and  C2_3 
REMARK    2  A    between atoms: C10_11  and  N1_12 
REMARK    3  A    between atoms: C10_11  and  C12_15 
REMARK    4  A    between atoms: C11_13  and  N2_14 
ROOT
HETATM    1  C2  UNL     1      22.456  -0.375  54.238  1.00  0.00     0.068 C 
HETATM    2  C3  UNL     1      21.109  -0.354  54.294  1.00  0.00     0.039 C 
HETATM    3  C4  UNL     1      20.218   0.137  53.208  1.00  0.00     0.030 C 
HETATM    4  C5  UNL     1      20.535   0.274  51.905  1.00  0.00     0.040 C 
HETATM    5  C6  UNL     1      21.857   0.224  51.194  1.00  0.00     0.098 C 
HETATM    6  C7  UNL     1      22.932   0.770  52.044  1.00  0.00    -0.041 C 
HETATM    7  C8  UNL     1      23.268   0.466  53.309  1.00  0.00     0.044 C 
HETATM    8  C9  UNL     1      23.955   1.809  51.776  1.00  0.00    -0.016 C 
HETATM    9  C10 UNL     1      25.195   1.886  52.077  1.00  0.00     0.038 C 
HETATM   10  C18 UNL     1      23.204   2.859  51.051  1.00  0.00     0.115 C 
HETATM   11  S1  UNL     1      21.853   3.350  52.104  1.00  0.00    -0.163 SA
HETATM   12  C19 UNL     1      20.725   4.561  51.409  1.00  0.00     0.093 C 
HETATM   13  C20 UNL     1      20.028   4.033  50.163  1.00  0.00     0.130 C 
HETATM   14  N3  UNL     1      19.452   2.738  50.390  1.00  0.00    -0.384 N 
HETATM   15  C21 UNL     1      18.853   1.486  50.643  1.00  0.00     0.202 C 
HETATM   16  N4  UNL     1      19.310   0.470  51.274  1.00  0.00    -0.249 NA
HETATM   17  H21 UNL     1      20.031   2.150  49.708  1.00  0.00     0.160 HD
ENDROOT
BRANCH   9  18
HETATM   18  N1  UNL     1      25.842   3.099  51.616  1.00  0.00    -0.389 NA
HETATM   19  C11 UNL     1      26.494   3.098  50.518  1.00  0.00     0.413 C 
BRANCH  19  20
HETATM   20  N2  UNL     1      26.213   1.771  50.294  1.00  0.00    -0.406 N 
HETATM   21  H10 UNL     1      26.488   0.802  50.134  1.00  0.00     0.152 HD
HETATM   22  H11 UNL     1      25.813   0.850  50.147  1.00  0.00     0.152 HD
ENDBRANCH  19  20
ENDBRANCH   9  18
BRANCH   9  23
HETATM   23  C12 UNL     1      26.308   1.168  52.725  1.00  0.00    -0.008 A 
HETATM   24  C13 UNL     1      27.214   1.788  53.606  1.00  0.00     0.017 A 
HETATM   25  C14 UNL     1      28.253   1.100  54.177  1.00  0.00     0.045 A 
HETATM   26  C15 UNL     1      28.364  -0.224  53.844  1.00  0.00     0.138 A 
HETATM   27  F1  UNL     1      29.444  -0.791  54.481  1.00  0.00    -0.204 F 
HETATM   28  C16 UNL     1      27.538  -0.928  52.995  1.00  0.00     0.073 A 
HETATM   29 CL1  UNL     1      27.874  -2.624  52.704  1.00  0.00    -0.081 Cl
HETATM   30  C17 UNL     1      26.509  -0.191  52.450  1.00  0.00     0.040 A 
ENDBRANCH   9  23
BRANCH   1  31
HETATM   31  O1  UNL     1      23.173  -1.213  55.075  1.00  0.00    -0.356 OA
HETATM   32  C1  UNL     1      24.523  -1.130  55.342  1.00  0.00     0.210 C 
ENDBRANCH   1  31
TORSDOF 4
ENDMDL
MODEL 2
REMARK VINA RESULT:      -8.3      2.518      4.295
REMARK  4 active torsions:
REMARK  status: ('A' for Active; 'I' for Inactive)
REMARK    1  A    between atoms: O1_2  and  C2_3 
REMARK    2  A    between atoms: C10_11  and  N1_12 
REMARK    3  A    between atoms: C10_11  and  C12_15 
REMARK    4  A    between atoms: C11_13  and  N2_14 
ROOT
HETATM    1  C2  UNL     1      25.289   2.969  50.290  1.00  0.00     0.068 C 
HETATM    2  C3  UNL     1      24.352   3.637  49.586  1.00  0.00     0.039 C 
HETATM    3  C4  UNL     1      22.969   3.916  50.057  1.00  0.00     0.030 C 
HETATM    4  C5  UNL     1      22.535   3.911  51.334  1.00  0.00     0.040 C 
HETATM    5  C6  UNL     1      23.177   3.417  52.598  1.00  0.00     0.098 C 
HETATM    6  C7  UNL     1      24.013   2.230  52.334  1.00  0.00    -0.041 C 
HETATM    7  C8  UNL     1      24.982   2.044  51.423  1.00  0.00     0.044 C 
HETATM    8  C9  UNL     1      24.041   0.894  52.978  1.00  0.00    -0.016 C 
HETATM    9  C10 UNL     1      25.007   0.127  53.311  1.00  0.00     0.038 C 
HETATM   10  C18 UNL     1      22.609   0.563  53.156  1.00  0.00     0.115 C 
HETATM   11  S1  UNL     1      21.856   0.635  51.543  1.00  0.00    -0.163 SA
HETATM   12  C19 UNL     1      20.083   0.358  51.499  1.00  0.00     0.093 C 
HETATM   13  C20 UNL     1      19.327   1.417  52.289  1.00  0.00     0.130 C 
HETATM   14  N3  UNL     1      19.736   2.743  51.920  1.00  0.00    -0.384 N 
HETATM   15  C21 UNL     1      20.118   4.038  51.514  1.00  0.00     0.202 C 
HETATM   16  N4  UNL     1      21.282   4.514  51.272  1.00  0.00    -0.249 NA
HETATM   17  H21 UNL     1      20.164   3.074  52.844  1.00  0.00     0.160 HD
ENDROOT
BRANCH   9  18
HETATM   18  N1  UNL     1      24.588  -1.119  53.925  1.00  0.00    -0.389 NA
HETATM   19  C11 UNL     1      24.582  -1.235  55.197  1.00  0.00     0.413 C 
BRANCH  19  20
HETATM   20  N2  UNL     1      25.033   0.054  55.366  1.00  0.00    -0.406 N 
HETATM   21  H10 UNL     1      25.410   0.934  55.015  1.00  0.00     0.152 HD
HETATM   22  H11 UNL     1      25.316   0.974  55.684  1.00  0.00     0.152 HD
ENDBRANCH  19  20
ENDBRANCH   9  18
BRANCH   9  23
HETATM   23  C12 UNL     1      26.476   0.011  53.348  1.00  0.00    -0.008 A 
HETATM   24  C13 UNL     1      27.168  -1.139  52.925  1.00  0.00     0.017 A 
HETATM   25  C14 UNL     1      28.534  -1.227  52.990  1.00  0.00     0.045 A 
HETATM   26  C15 UNL     1      29.192  -0.134  53.492  1.00  0.00     0.138 A 
HETATM   27  F1  UNL     1      30.550  -0.355  53.505  1.00  0.00    -0.204 F 
HETATM   28  C16 UNL     1      28.617   1.037  53.935  1.00  0.00     0.073 A 
HETATM   29 CL1  UNL     1      29.656   2.309  54.548  1.00  0.00    -0.081 Cl
HETATM   30  C17 UNL     1      27.242   1.074  53.845  1.00  0.00     0.040 A 
ENDBRANCH   9  23
BRANCH   1  31
HETATM   31  O1  UNL     1      26.629   3.118  49.980  1.00  0.00    -0.356 OA
HETATM   32  C1  UNL     1      27.171   4.102  49.181  1.00  0.00     0.210 C 
ENDBRANCH   1  31
TORSDOF 4
ENDMDL
MODEL 3
REMARK VINA RESULT:      -8.1      2.943      5.520
REMARK  4 active torsions:
REMARK  status: ('A' for Active; 'I' for Inactive)
REMARK    1  A    between atoms: O1_2  and  C2_3 
REMARK    2  A    between atoms: C10_11  and  N1_12 
REMARK    3  A    between atoms: C10_11  and  C12_15 
REMARK    4  A    between atoms: C11_13  and  N2_14 
ROOT
HETATM    1  C2  UNL     1      25.983   2.542  50.850  1.00  0.00     0.068 C 
HETATM    2  C3  UNL     1      26.664   3.293  49.960  1.00  0.00     0.039 C 
HETATM    3  C4  UNL     1      26.160   4.548  49.341  1.00  0.00     0.030 C 
HETATM    4  C5  UNL     1      25.171   5.337  49.807  1.00  0.00     0.040 C 
HETATM    5  C6  UNL     1      24.148   5.114  50.884  1.00  0.00     0.098 C 
HETATM    6  C7  UNL     1      23.745   3.697  50.941  1.00  0.00    -0.041 C 
HETATM    7  C8  UNL     1      24.500   2.589  51.022  1.00  0.00     0.044 C 
HETATM    8  C9  UNL     1      22.405   3.062  50.922  1.00  0.00    -0.016 C 
HETATM    9  C10 UNL     1      21.916   2.078  51.575  1.00  0.00     0.038 C 
HETATM   10  C18 UNL     1      21.670   3.830  49.890  1.00  0.00     0.115 C 
HETATM   11  S1  UNL     1      22.612   3.704  48.383  1.00  0.00    -0.163 SA
HETATM   12  C19 UNL     1      21.974   4.635  46.987  1.00  0.00     0.093 C 
HETATM   13  C20 UNL     1      21.954   6.130  47.268  1.00  0.00     0.130 C 
HETATM   14  N3  UNL     1      23.219   6.591  47.767  1.00  0.00    -0.384 N 
HETATM   15  C21 UNL     1      24.482   7.033  48.214  1.00  0.00     0.202 C 
HETATM   16  N4  UNL     1      25.285   6.506  49.060  1.00  0.00    -0.249 NA
HETATM   17  H21 UNL     1      22.932   6.908  48.749  1.00  0.00     0.160 HD
ENDROOT
BRANCH   9  18
HETATM   18  N1  UNL     1      20.537   1.776  51.244  1.00  0.00    -0.389 NA
HETATM   19  C11 UNL     1      20.270   0.916  50.338  1.00  0.00     0.413 C 
BRANCH  19  20
HETATM   20  N2  UNL     1      21.603   0.675  50.103  1.00  0.00    -0.406 N 
HETATM   21  H10 UNL     1      22.435   0.685  49.513  1.00  0.00     0.152 HD
HETATM   22  H11 UNL     1      22.589   0.437  50.123  1.00  0.00     0.152 HD
ENDBRANCH  19  20
ENDBRANCH   9  18
BRANCH   9  23
HETATM   23  C12 UNL     1      22.209   1.081  52.620  1.00  0.00    -0.008 A 
HETATM   24  C13 UNL     1      21.245   0.616  53.532  1.00  0.00     0.017 A 
HETATM   25  C14 UNL     1      21.551  -0.297  54.508  1.00  0.00     0.045 A 
HETATM   26  C15 UNL     1      22.850  -0.732  54.549  1.00  0.00     0.138 A 
HETATM   27  F1  UNL     1      23.021  -1.638  55.571  1.00  0.00    -0.204 F 
HETATM   28  C16 UNL     1      23.871  -0.344  53.710  1.00  0.00     0.073 A 
HETATM   29 CL1  UNL     1      25.467  -1.028  53.950  1.00  0.00    -0.081 Cl
HETATM   30  C17 UNL     1      23.509   0.572  52.746  1.00  0.00     0.040 A 
ENDBRANCH   9  23
BRANCH   1  31
HETATM   31  O1  UNL     1      26.658   1.661  51.676  1.00  0.00    -0.356 OA
HETATM   32  C1  UNL     1      27.471   2.004  52.735  1.00  0.00     0.210 C 
ENDBRANCH   1  31
TORSDOF 4
ENDMDL
MODEL 4
REMARK VINA RESULT:      -7.9      2.332      4.150
REMARK  4 active torsions:
REMARK  status: ('A' for Active; 'I' for Inactive)
REMARK    1  A    between atoms: O1_2  and  C2_3 
REMARK    2  A    between atoms: C10_11  and  N1_12 
REMARK    3  A    between atoms: C10_11  and  C12_15 
REMARK    4  A    between atoms: C11_13  and  N2_14 
ROOT
HETATM    1  C2  UNL     1      24.582   3.564  50.324  1.00  0.00     0.068 C 
HETATM    2  C3  UNL     1      23.866   4.362  49.505  1.00  0.00     0.039 C 
HETATM    3  C4  UNL     1      22.412   4.640  49.643  1.00  0.00     0.030 C 
HETATM    4  C5  UNL     1      21.663   4.487  50.754  1.00  0.00     0.040 C 
HETATM    5  C6  UNL     1      21.952   3.803  52.059  1.00  0.00     0.098 C 
HETATM    6  C7  UNL     1      22.814   2.624  51.854  1.00  0.00    -0.041 C 
HETATM    7  C8  UNL     1      23.983   2.515  51.202  1.00  0.00     0.044 C 
HETATM    8  C9  UNL     1      22.661   1.215  52.292  1.00  0.00    -0.016 C 
HETATM    9  C10 UNL     1      23.500   0.367  52.750  1.00  0.00     0.038 C 
HETATM   10  C18 UNL     1      21.228   0.929  52.052  1.00  0.00     0.115 C 
HETATM   11  S1  UNL     1      20.918   1.247  50.327  1.00  0.00    -0.163 SA
HETATM   12  C19 UNL     1      19.213   1.060  49.796  1.00  0.00     0.093 C 
HETATM   13  C20 UNL     1      18.291   2.040  50.506  1.00  0.00     0.130 C 
HETATM   14  N3  UNL     1      18.795   3.382  50.441  1.00  0.00    -0.384 N 
HETATM   15  C21 UNL     1      19.283   4.701  50.329  1.00  0.00     0.202 C 
HETATM   16  N4  UNL     1      20.475   5.150  50.459  1.00  0.00    -0.249 NA
HETATM   17  H21 UNL     1      18.974   3.569  51.480  1.00  0.00     0.160 HD
ENDROOT
BRANCH   9  18
HETATM   18  N1  UNL     1      22.923  -0.928  53.058  1.00  0.00    -0.389 NA
HETATM   19  C11 UNL     1      22.403  -1.139  54.206  1.00  0.00     0.413 C 
BRANCH  19  20
HETATM   20  N2  UNL     1      22.686   0.140  54.625  1.00  0.00    -0.406 N 
HETATM   21  H10 UNL     1      22.556   0.938  55.247  1.00  0.00     0.152 HD
HETATM   22  H11 UNL     1      23.031   1.079  54.786  1.00  0.00     0.152 HD
ENDBRANCH  19  20
ENDBRANCH   9  18
BRANCH   9  23
HETATM   23  C12 UNL     1      24.908   0.180  53.143  1.00  0.00    -0.008 A 
HETATM   24  C13 UNL     1      25.643   1.144  53.857  1.00  0.00     0.017 A 
HETATM   25  C14 UNL     1      26.958   0.953  54.190  1.00  0.00     0.045 A 
HETATM   26  C15 UNL     1      27.522  -0.230  53.790  1.00  0.00     0.138 A 
HETATM   27  F1  UNL     1      28.839  -0.293  54.185  1.00  0.00    -0.204 F 
HETATM   28  C16 UNL     1      26.899  -1.240  53.089  1.00  0.00     0.073 A 
HETATM   29 CL1  UNL     1      27.821  -2.672  52.672  1.00  0.00    -0.081 Cl
HETATM   30  C17 UNL     1      25.578  -0.997  52.781  1.00  0.00     0.040 A 
ENDBRANCH   9  23
BRANCH   1  31
HETATM   31  O1  UNL     1      25.959   3.691  50.389  1.00  0.00    -0.356 OA
HETATM   32  C1  UNL     1      26.785   4.094  49.362  1.00  0.00     0.210 C 
ENDBRANCH   1  31
TORSDOF 4
ENDMDL
MODEL 5
REMARK VINA RESULT:      -7.9      5.545      8.441
REMARK  4 active torsions:
REMARK  status: ('A' for Active; 'I' for Inactive)
REMARK    1  A    between atoms: O1_2  and  C2_3 
REMARK    2  A    between atoms: C10_11  and  N1_12 
REMARK    3  A    between atoms: C10_11  and  C12_15 
REMARK    4  A    between atoms: C11_13  and  N2_14 
ROOT
HETATM    1  C2  UNL     1      27.189   5.414  48.724  1.00  0.00     0.068 C 
HETATM    2  C3  UNL     1      28.156   6.197  48.202  1.00  0.00     0.039 C 
HETATM    3  C4  UNL     1      28.198   7.680  48.302  1.00  0.00     0.030 C 
HETATM    4  C5  UNL     1      27.548   8.448  49.200  1.00  0.00     0.040 C 
HETATM    5  C6  UNL     1      26.450   8.123  50.172  1.00  0.00     0.098 C 
HETATM    6  C7  UNL     1      25.544   7.100  49.619  1.00  0.00    -0.041 C 
HETATM    7  C8  UNL     1      25.823   5.900  49.084  1.00  0.00     0.044 C 
HETATM    8  C9  UNL     1      24.068   7.077  49.479  1.00  0.00    -0.016 C 
HETATM    9  C10 UNL     1      23.206   6.150  49.660  1.00  0.00     0.038 C 
HETATM   10  C18 UNL     1      23.740   8.446  49.020  1.00  0.00     0.115 C 
HETATM   11  S1  UNL     1      24.660   8.723  47.520  1.00  0.00    -0.163 SA
HETATM   12  C19 UNL     1      24.505  10.362  46.804  1.00  0.00     0.093 C 
HETATM   13  C20 UNL     1      25.028  11.439  47.743  1.00  0.00     0.130 C 
HETATM   14  N3  UNL     1      26.339  11.121  48.234  1.00  0.00    -0.384 N 
HETATM   15  C21 UNL     1      27.644  10.814  48.671  1.00  0.00     0.202 C 
HETATM   16  N4  UNL     1      28.137   9.702  49.069  1.00  0.00    -0.249 NA
HETATM   17  H21 UNL     1      26.130  11.014  49.279  1.00  0.00     0.160 HD
ENDROOT
BRANCH   9  18
HETATM   18  N1  UNL     1      21.838   6.556  49.404  1.00  0.00    -0.389 NA
HETATM   19  C11 UNL     1      21.130   7.048  50.348  1.00  0.00     0.413 C 
BRANCH  19  20
HETATM   20  N2  UNL     1      22.162   6.932  51.250  1.00  0.00    -0.406 N 
HETATM   21  H10 UNL     1      23.144   7.002  51.514  1.00  0.00     0.152 HD
HETATM   22  H11 UNL     1      22.777   6.795  52.044  1.00  0.00     0.152 HD
ENDBRANCH  19  20
ENDBRANCH   9  18
BRANCH   9  23
HETATM   23  C12 UNL     1      23.039   4.747  50.080  1.00  0.00    -0.008 A 
HETATM   24  C13 UNL     1      23.443   4.268  51.340  1.00  0.00     0.017 A 
HETATM   25  C14 UNL     1      23.295   2.953  51.697  1.00  0.00     0.045 A 
HETATM   26  C15 UNL     1      22.733   2.127  50.759  1.00  0.00     0.138 A 
HETATM   27  F1  UNL     1      22.645   0.841  51.242  1.00  0.00    -0.204 F 
HETATM   28  C16 UNL     1      22.305   2.488  49.500  1.00  0.00     0.073 A 
HETATM   29 CL1  UNL     1      21.619   1.257  48.456  1.00  0.00    -0.081 Cl
HETATM   30  C17 UNL     1      22.474   3.821  49.193  1.00  0.00     0.040 A 
ENDBRANCH   9  23
BRANCH   1  31
HETATM   31  O1  UNL     1      27.433   4.072  48.957  1.00  0.00    -0.356 OA
HETATM   32  C1  UNL     1      26.587   3.196  49.603  1.00  0.00     0.210 C 
ENDBRANCH   1  31
TORSDOF 4
ENDMDL
MODEL 6
REMARK VINA RESULT:      -7.5      3.711      5.407
REMARK  4 active torsions:
REMARK  status: ('A' for Active; 'I' for Inactive)
REMARK    1  A    between atoms: O1_2  and  C2_3 
REMARK    2  A    between atoms: C10_11  and  N1_12 
REMARK    3  A    between atoms: C10_11  and  C12_15 
REMARK    4  A    between atoms: C11_13  and  N2_14 
ROOT
HETATM    1  C2  UNL     1      21.276   1.988  49.209  1.00  0.00     0.068 C 
HETATM    2  C3  UNL     1      20.167   1.221  49.260  1.00  0.00     0.039 C 
HETATM    3  C4  UNL     1      19.566   0.673  50.505  1.00  0.00     0.030 C 
HETATM    4  C5  UNL     1      19.760   1.125  51.761  1.00  0.00     0.040 C 
HETATM    5  C6  UNL     1      20.758   2.095  52.325  1.00  0.00     0.098 C 
HETATM    6  C7  UNL     1      22.045   1.999  51.609  1.00  0.00    -0.041 C 
HETATM    7  C8  UNL     1      22.304   2.046  50.292  1.00  0.00     0.044 C 
HETATM    8  C9  UNL     1      23.429   1.820  52.111  1.00  0.00    -0.016 C 
HETATM    9  C10 UNL     1      24.540   2.346  51.760  1.00  0.00     0.038 C 
HETATM   10  C18 UNL     1      23.285   0.802  53.177  1.00  0.00     0.115 C 
HETATM   11  S1  UNL     1      22.537  -0.631  52.427  1.00  0.00    -0.163 SA
HETATM   12  C19 UNL     1      22.168  -1.989  53.541  1.00  0.00     0.093 C 
HETATM   13  C20 UNL     1      21.163  -1.584  54.610  1.00  0.00     0.130 C 
HETATM   14  N3  UNL     1      20.010  -0.949  54.037  1.00  0.00    -0.384 N 
HETATM   15  C21 UNL     1      18.865  -0.368  53.453  1.00  0.00     0.202 C 
HETATM   16  N4  UNL     1      18.771   0.491  52.509  1.00  0.00    -0.249 NA
HETATM   17  H21 UNL     1      20.102   0.030  54.461  1.00  0.00     0.160 HD
ENDROOT
BRANCH   9  18
HETATM   18  N1  UNL     1      25.681   1.883  52.525  1.00  0.00    -0.389 NA
HETATM   19  C11 UNL     1      25.977   2.443  53.635  1.00  0.00     0.413 C 
BRANCH  19  20
HETATM   20  N2  UNL     1      24.919   3.316  53.533  1.00  0.00    -0.406 N 
HETATM   21  H10 UNL     1      24.236   3.961  53.931  1.00  0.00     0.152 HD
HETATM   22  H11 UNL     1      24.156   3.925  53.260  1.00  0.00     0.152 HD
ENDBRANCH  19  20
ENDBRANCH   9  18
BRANCH   9  23
HETATM   23  C12 UNL     1      25.156   3.323  50.844  1.00  0.00    -0.008 A 
HETATM   24  C13 UNL     1      26.322   3.054  50.104  1.00  0.00     0.017 A 
HETATM   25  C14 UNL     1      26.886   3.989  49.275  1.00  0.00     0.045 A 
HETATM   26  C15 UNL     1      26.254   5.203  49.207  1.00  0.00     0.138 A 
HETATM   27  F1  UNL     1      26.921   6.045  48.347  1.00  0.00    -0.204 F 
HETATM   28  C16 UNL     1      25.114   5.573  49.887  1.00  0.00     0.073 A 
HETATM   29 CL1  UNL     1      24.479   7.190  49.654  1.00  0.00    -0.081 Cl
HETATM   30  C17 UNL     1      24.587   4.595  50.703  1.00  0.00     0.040 A 
ENDBRANCH   9  23
BRANCH   1  31
HETATM   31  O1  UNL     1      21.518   2.787  48.106  1.00  0.00    -0.356 OA
HETATM   32  C1  UNL     1      22.572   2.657  47.227  1.00  0.00     0.210 C 
ENDBRANCH   1  31
TORSDOF 4
ENDMDL
MODEL 7
REMARK VINA RESULT:      -7.5      3.376      4.704
REMARK  4 active torsions:
REMARK  status: ('A' for Active; 'I' for Inactive)
REMARK    1  A    between atoms: O1_2  and  C2_3 
REMARK    2  A    between atoms: C10_11  and  N1_12 
REMARK    3  A    between atoms: C10_11  and  C12_15 
REMARK    4  A    between atoms: C11_13  and  N2_14 
ROOT
HETATM    1  C2  UNL     1      23.432   1.512  52.615  1.00  0.00     0.068 C 
HETATM    2  C3  UNL     1      22.587   0.846  53.429  1.00  0.00     0.039 C 
HETATM    3  C4  UNL     1      21.201   0.440  53.072  1.00  0.00     0.030 C 
HETATM    4  C5  UNL     1      20.693   0.311  51.830  1.00  0.00     0.040 C 
HETATM    5  C6  UNL     1      21.223   0.738  50.491  1.00  0.00     0.098 C 
HETATM    6  C7  UNL     1      21.989   1.994  50.606  1.00  0.00    -0.041 C 
HETATM    7  C8  UNL     1      22.995   2.317  51.435  1.00  0.00     0.044 C 
HETATM    8  C9  UNL     1      21.887   3.270  49.858  1.00  0.00    -0.016 C 
HETATM    9  C10 UNL     1      22.776   4.068  49.403  1.00  0.00     0.038 C 
HETATM   10  C18 UNL     1      20.427   3.493  49.747  1.00  0.00     0.115 C 
HETATM   11  S1  UNL     1      19.778   3.509  51.406  1.00  0.00    -0.163 SA
HETATM   12  C19 UNL     1      17.996   3.674  51.543  1.00  0.00     0.093 C 
HETATM   13  C20 UNL     1      17.270   2.507  50.890  1.00  0.00     0.130 C 
HETATM   14  N3  UNL     1      17.790   1.245  51.336  1.00  0.00    -0.384 N 
HETATM   15  C21 UNL     1      18.284   0.015  51.818  1.00  0.00     0.202 C 
HETATM   16  N4  UNL     1      19.490  -0.363  52.021  1.00  0.00    -0.249 NA
HETATM   17  H21 UNL     1      18.185   0.866  50.415  1.00  0.00     0.160 HD
ENDROOT
BRANCH   9  18
HETATM   18  N1  UNL     1      22.236   5.228  48.721  1.00  0.00    -0.389 NA
HETATM   19  C11 UNL     1      21.967   5.169  47.473  1.00  0.00     0.413 C 
BRANCH  19  20
HETATM   20  N2  UNL     1      22.376   3.858  47.396  1.00  0.00    -0.406 N 
HETATM   21  H10 UNL     1      22.808   3.072  46.911  1.00  0.00     0.152 HD
HETATM   22  H11 UNL     1      22.610   2.880  47.529  1.00  0.00     0.152 HD
ENDBRANCH  19  20
ENDBRANCH   9  18
BRANCH   9  23
HETATM   23  C12 UNL     1      24.229   4.274  49.262  1.00  0.00    -0.008 A 
HETATM   24  C13 UNL     1      25.172   3.245  49.439  1.00  0.00     0.017 A 
HETATM   25  C14 UNL     1      26.519   3.470  49.323  1.00  0.00     0.045 A 
HETATM   26  C15 UNL     1      26.900   4.753  49.025  1.00  0.00     0.138 A 
HETATM   27  F1  UNL     1      28.271   4.840  48.940  1.00  0.00    -0.204 F 
HETATM   28  C16 UNL     1      26.064   5.831  48.833  1.00  0.00     0.073 A 
HETATM   29 CL1  UNL     1      26.773   7.393  48.467  1.00  0.00    -0.081 Cl
HETATM   30  C17 UNL     1      24.721   5.550  48.959  1.00  0.00     0.040 A 
ENDBRANCH   9  23
BRANCH   1  31
HETATM   31  O1  UNL     1      24.795   1.475  52.848  1.00  0.00    -0.356 OA
HETATM   32  C1  UNL     1      25.678   0.544  52.345  1.00  0.00     0.210 C 
ENDBRANCH   1  31
TORSDOF 4
ENDMDL
MODEL 8
REMARK VINA RESULT:      -7.5      2.911      3.933
REMARK  4 active torsions:
REMARK  status: ('A' for Active; 'I' for Inactive)
REMARK    1  A    between atoms: O1_2  and  C2_3 
REMARK    2  A    between atoms: C10_11  and  N1_12 
REMARK    3  A    between atoms: C10_11  and  C12_15 
REMARK    4  A    between atoms: C11_13  and  N2_14 
ROOT
HETATM    1  C2  UNL     1      20.673  -0.083  52.775  1.00  0.00     0.068 C 
HETATM    2  C3  UNL     1      19.454  -0.565  53.094  1.00  0.00     0.039 C 
HETATM    3  C4  UNL     1      18.208  -0.310  52.324  1.00  0.00     0.030 C 
HETATM    4  C5  UNL     1      18.120   0.088  51.039  1.00  0.00     0.040 C 
HETATM    5  C6  UNL     1      19.160   0.611  50.089  1.00  0.00     0.098 C 
HETATM    6  C7  UNL     1      20.173   1.408  50.806  1.00  0.00    -0.041 C 
HETATM    7  C8  UNL     1      20.899   1.102  51.894  1.00  0.00     0.044 C 
HETATM    8  C9  UNL     1      20.693   2.775  50.559  1.00  0.00    -0.016 C 
HETATM    9  C10 UNL     1      21.872   3.265  50.622  1.00  0.00     0.038 C 
HETATM   10  C18 UNL     1      19.480   3.554  50.220  1.00  0.00     0.115 C 
HETATM   11  S1  UNL     1      18.356   3.386  51.593  1.00  0.00    -0.163 SA
HETATM   12  C19 UNL     1      16.755   4.172  51.388  1.00  0.00     0.093 C 
HETATM   13  C20 UNL     1      15.980   3.577  50.221  1.00  0.00     0.130 C 
HETATM   14  N3  UNL     1      15.940   2.143  50.291  1.00  0.00    -0.384 N 
HETATM   15  C21 UNL     1      15.872   0.739  50.399  1.00  0.00     0.202 C 
HETATM   16  N4  UNL     1      16.782  -0.106  50.710  1.00  0.00    -0.249 NA
HETATM   17  H21 UNL     1      16.487   1.895  49.405  1.00  0.00     0.160 HD
ENDROOT
BRANCH   9  18
HETATM   18  N1  UNL     1      21.944   4.676  50.298  1.00  0.00    -0.389 NA
HETATM   19  C11 UNL     1      21.888   5.550  51.229  1.00  0.00     0.413 C 
BRANCH  19  20
HETATM   20  N2  UNL     1      21.777   4.582  52.199  1.00  0.00    -0.406 N 
HETATM   21  H10 UNL     1      21.243   3.910  52.751  1.00  0.00     0.152 HD
HETATM   22  H11 UNL     1      21.895   3.890  52.931  1.00  0.00     0.152 HD
ENDBRANCH  19  20
ENDBRANCH   9  18
BRANCH   9  23
HETATM   23  C12 UNL     1      23.284   2.935  50.883  1.00  0.00    -0.008 A 
HETATM   24  C13 UNL     1      23.702   2.148  51.973  1.00  0.00     0.017 A 
HETATM   25  C14 UNL     1      25.025   1.875  52.203  1.00  0.00     0.045 A 
HETATM   26  C15 UNL     1      25.922   2.410  51.316  1.00  0.00     0.138 A 
HETATM   27  F1  UNL     1      27.208   2.062  51.663  1.00  0.00    -0.204 F 
HETATM   28  C16 UNL     1      25.625   3.191  50.221  1.00  0.00     0.073 A 
HETATM   29 CL1  UNL     1      26.939   3.778  49.220  1.00  0.00    -0.081 Cl
HETATM   30  C17 UNL     1      24.281   3.434  50.034  1.00  0.00     0.040 A 
ENDBRANCH   9  23
BRANCH   1  31
HETATM   31  O1  UNL     1      21.812  -0.692  53.270  1.00  0.00    -0.356 OA
HETATM   32  C1  UNL     1      21.923  -1.342  54.481  1.00  0.00     0.210 C 
ENDBRANCH   1  31
TORSDOF 4
ENDMDL
MODEL 9
REMARK VINA RESULT:      -7.4      8.328     10.933
REMARK  4 active torsions:
REMARK  status: ('A' for Active; 'I' for Inactive)
REMARK    1  A    between atoms: O1_2  and  C2_3 
REMARK    2  A    between atoms: C10_11  and  N1_12 
REMARK    3  A    between atoms: C10_11  and  C12_15 
REMARK    4  A    between atoms: C11_13  and  N2_14 
ROOT
HETATM    1  C2  UNL     1      28.136   6.424  48.225  1.00  0.00     0.068 C 
HETATM    2  C3  UNL     1      27.081   7.172  48.608  1.00  0.00     0.039 C 
HETATM    3  C4  UNL     1      26.832   8.575  48.184  1.00  0.00     0.030 C 
HETATM    4  C5  UNL     1      27.352   9.197  47.105  1.00  0.00     0.040 C 
HETATM    5  C6  UNL     1      28.463   8.806  46.174  1.00  0.00     0.098 C 
HETATM    6  C7  UNL     1      29.514   8.062  46.894  1.00  0.00    -0.041 C 
HETATM    7  C8  UNL     1      29.414   6.989  47.697  1.00  0.00     0.044 C 
HETATM    8  C9  UNL     1      30.982   8.264  46.960  1.00  0.00    -0.016 C 
HETATM    9  C10 UNL     1      31.959   7.441  46.947  1.00  0.00     0.038 C 
HETATM   10  C18 UNL     1      31.126   9.733  47.086  1.00  0.00     0.115 C 
HETATM   11  S1  UNL     1      30.207  10.221  48.532  1.00  0.00    -0.163 SA
HETATM   12  C19 UNL     1      30.147  11.986  48.857  1.00  0.00     0.093 C 
HETATM   13  C20 UNL     1      29.462  12.744  47.729  1.00  0.00     0.130 C 
HETATM   14  N3  UNL     1      28.198  12.154  47.389  1.00  0.00    -0.384 N 
HETATM   15  C21 UNL     1      26.939  11.588  47.099  1.00  0.00     0.202 C 
HETATM   16  N4  UNL     1      26.596  10.360  46.983  1.00  0.00    -0.249 NA
HETATM   17  H21 UNL     1      28.398  11.840  46.385  1.00  0.00     0.160 HD
ENDROOT
BRANCH   9  18
HETATM   18  N1  UNL     1      33.263   8.069  47.035  1.00  0.00    -0.389 NA
HETATM   19  C11 UNL     1      33.825   8.221  48.173  1.00  0.00     0.413 C 
BRANCH  19  20
HETATM   20  N2  UNL     1      32.770   7.628  48.828  1.00  0.00    -0.406 N 
HETATM   21  H10 UNL     1      32.034   6.927  48.908  1.00  0.00     0.152 HD
HETATM   22  H11 UNL     1      32.032   7.327  49.454  1.00  0.00     0.152 HD
ENDBRANCH  19  20
ENDBRANCH   9  18
BRANCH   9  23
HETATM   23  C12 UNL     1      32.311   6.013  46.841  1.00  0.00    -0.008 A 
HETATM   24  C13 UNL     1      31.573   4.991  47.465  1.00  0.00     0.017 A 
HETATM   25  C14 UNL     1      31.935   3.673  47.367  1.00  0.00     0.045 A 
HETATM   26  C15 UNL     1      33.057   3.402  46.628  1.00  0.00     0.138 A 
HETATM   27  F1  UNL     1      33.308   2.049  46.613  1.00  0.00    -0.204 F 
HETATM   28  C16 UNL     1      33.851   4.321  45.979  1.00  0.00     0.073 A 
HETATM   29 CL1  UNL     1      35.252   3.750  45.093  1.00  0.00    -0.081 Cl
HETATM   30  C17 UNL     1      33.442   5.631  46.107  1.00  0.00     0.040 A 
ENDBRANCH   9  23
BRANCH   1  31
HETATM   31  O1  UNL     1      28.077   5.044  48.309  1.00  0.00    -0.356 OA
HETATM   32  C1  UNL     1      27.140   4.314  49.009  1.00  0.00     0.210 C 
ENDBRANCH   1  31
TORSDOF 4
ENDMDL
