MODEL 1
REMARK VINA RESULT:      -8.5      0.000      0.000
REMARK  4 active torsions:
REMARK  status: ('A' for Active; 'I' for Inactive)
REMARK    1  A    between atoms: C2_2  and  N1_3 
REMARK    2  A    between atoms: C2_2  and  C12_18 
REMARK    3  A    between atoms: N1_3  and  C3_4 
REMARK    4  A    between atoms: N4_15  and  O1_16 
ROOT
HETATM    1  C3  UNL     1      23.875   1.415  51.752  1.00  0.00     0.139 A 
HETATM    2  N2  UNL     1      22.581   1.146  51.712  1.00  0.00    -0.224 NA
HETATM    3  C4  UNL     1      21.910   0.305  52.479  1.00  0.00     0.236 A 
HETATM    4  N3  UNL     1      22.633  -0.346  53.402  1.00  0.00    -0.234 NA
HETATM    5  C5  UNL     1      23.924  -0.095  53.462  1.00  0.00     0.114 A 
HETATM    6  S1  UNL     1      25.202  -0.796  54.587  1.00  0.00    -0.072 SA
HETATM    7  C6  UNL     1      26.577   0.100  53.944  1.00  0.00     0.007 A 
HETATM    8  C7  UNL     1      26.009   0.924  52.869  1.00  0.00    -0.026 A 
HETATM    9  C8  UNL     1      24.676   0.791  52.666  1.00  0.00     0.053 A 
HETATM   10  C9  UNL     1      27.194   1.634  52.384  1.00  0.00     0.057 C 
HETATM   11  C10 UNL     1      27.804   2.336  53.595  1.00  0.00     0.125 C 
HETATM   12  N4  UNL     1      28.568   1.402  54.400  1.00  0.00    -0.195 NA
HETATM   13  C11 UNL     1      27.987   0.069  54.344  1.00  0.00     0.167 C 
ENDROOT
BRANCH   1  14
HETATM   14  N1  UNL     1      24.351   2.363  50.800  1.00  0.00    -0.366 N 
HETATM   15  H5  UNL     1      24.650   2.367  49.818  1.00  0.00     0.161 HD
BRANCH  14  16
HETATM   16  C2  UNL     1      24.502   3.752  51.179  1.00  0.00     0.112 C 
HETATM   17  C1  UNL     1      23.245   4.492  51.426  1.00  0.00     0.037 C 
BRANCH  16  18
HETATM   18  C12 UNL     1      25.444   4.464  50.275  1.00  0.00    -0.036 A 
HETATM   19  C13 UNL     1      26.458   3.763  49.668  1.00  0.00     0.009 A 
HETATM   20  C14 UNL     1      27.342   4.431  48.821  1.00  0.00     0.001 A 
HETATM   21  C15 UNL     1      27.223   5.782  48.577  1.00  0.00     0.000 A 
HETATM   22  C16 UNL     1      26.215   6.501  49.173  1.00  0.00     0.001 A 
HETATM   23  C17 UNL     1      25.342   5.833  50.012  1.00  0.00     0.009 A 
ENDBRANCH  16  18
ENDBRANCH  14  16
ENDBRANCH   1  14
BRANCH  12  24
HETATM   24  O1  UNL     1      29.828   1.329  53.917  1.00  0.00    -0.313 OA
HETATM   25  H11 UNL     1      30.489   1.117  54.622  1.00  0.00     0.237 HD
ENDBRANCH  12  24
TORSDOF 4
ENDMDL
MODEL 2
REMARK VINA RESULT:      -8.5      3.075      5.931
REMARK  4 active torsions:
REMARK  status: ('A' for Active; 'I' for Inactive)
REMARK    1  A    between atoms: C2_2  and  N1_3 
REMARK    2  A    between atoms: C2_2  and  C12_18 
REMARK    3  A    between atoms: N1_3  and  C3_4 
REMARK    4  A    between atoms: N4_15  and  O1_16 
ROOT
HETATM    1  C3  UNL     1      24.652   1.941  51.725  1.00  0.00     0.139 A 
HETATM    2  N2  UNL     1      24.910   3.089  51.122  1.00  0.00    -0.224 NA
HETATM    3  C4  UNL     1      24.070   4.083  50.890  1.00  0.00     0.236 A 
HETATM    4  N3  UNL     1      22.814   3.896  51.320  1.00  0.00    -0.234 NA
HETATM    5  C5  UNL     1      22.531   2.762  51.924  1.00  0.00     0.114 A 
HETATM    6  S1  UNL     1      20.935   2.177  52.631  1.00  0.00    -0.072 SA
HETATM    7  C6  UNL     1      21.508   0.611  53.201  1.00  0.00     0.007 A 
HETATM    8  C7  UNL     1      22.928   0.580  52.829  1.00  0.00    -0.026 A 
HETATM    9  C8  UNL     1      23.394   1.680  52.191  1.00  0.00     0.053 A 
HETATM   10  C9  UNL     1      23.336  -0.735  53.328  1.00  0.00     0.057 C 
HETATM   11  C10 UNL     1      22.970  -0.768  54.810  1.00  0.00     0.125 C 
HETATM   12  N4  UNL     1      21.554  -1.028  54.985  1.00  0.00    -0.195 NA
HETATM   13  C11 UNL     1      20.781  -0.460  53.891  1.00  0.00     0.167 C 
ENDROOT
BRANCH   1  14
HETATM   14  N1  UNL     1      25.743   1.031  51.840  1.00  0.00    -0.366 N 
HETATM   15  H5  UNL     1      26.204   0.322  51.258  1.00  0.00     0.161 HD
BRANCH  14  16
HETATM   16  C2  UNL     1      26.514   0.981  53.064  1.00  0.00     0.112 C 
HETATM   17  C1  UNL     1      27.198   2.236  53.445  1.00  0.00     0.037 C 
BRANCH  16  18
HETATM   18  C12 UNL     1      27.398  -0.215  53.103  1.00  0.00    -0.036 A 
HETATM   19  C13 UNL     1      26.904  -1.433  52.705  1.00  0.00     0.009 A 
HETATM   20  C14 UNL     1      27.733  -2.554  52.741  1.00  0.00     0.001 A 
HETATM   21  C15 UNL     1      29.040  -2.469  53.169  1.00  0.00     0.000 A 
HETATM   22  C16 UNL     1      29.553  -1.260  53.571  1.00  0.00     0.001 A 
HETATM   23  C17 UNL     1      28.727  -0.152  53.532  1.00  0.00     0.009 A 
ENDBRANCH  16  18
ENDBRANCH  14  16
ENDBRANCH   1  14
BRANCH  12  24
HETATM   24  O1  UNL     1      21.346  -2.363  54.994  1.00  0.00    -0.313 OA
HETATM   25  H11 UNL     1      20.547  -2.622  54.471  1.00  0.00     0.237 HD
ENDBRANCH  12  24
TORSDOF 4
ENDMDL
MODEL 3
REMARK VINA RESULT:      -8.1      3.837      6.143
REMARK  4 active torsions:
REMARK  status: ('A' for Active; 'I' for Inactive)
REMARK    1  A    between atoms: C2_2  and  N1_3 
REMARK    2  A    between atoms: C2_2  and  C12_18 
REMARK    3  A    between atoms: N1_3  and  C3_4 
REMARK    4  A    between atoms: N4_15  and  O1_16 
ROOT
HETATM    1  C3  UNL     1      23.682  -0.292  53.446  1.00  0.00     0.139 A 
HETATM    2  N2  UNL     1      23.965  -0.987  54.535  1.00  0.00    -0.224 NA
HETATM    3  C4  UNL     1      23.114  -1.505  55.403  1.00  0.00     0.236 A 
HETATM    4  N3  UNL     1      21.816  -1.297  55.141  1.00  0.00    -0.234 NA
HETATM    5  C5  UNL     1      21.507  -0.608  54.063  1.00  0.00     0.114 A 
HETATM    6  S1  UNL     1      19.853  -0.139  53.406  1.00  0.00    -0.072 SA
HETATM    7  C6  UNL     1      20.419   0.737  51.986  1.00  0.00     0.007 A 
HETATM    8  C7  UNL     1      21.883   0.643  52.055  1.00  0.00    -0.026 A 
HETATM    9  C8  UNL     1      22.381  -0.040  53.114  1.00  0.00     0.053 A 
HETATM   10  C9  UNL     1      22.284   1.384  50.858  1.00  0.00     0.057 C 
HETATM   11  C10 UNL     1      21.567   0.727  49.681  1.00  0.00     0.125 C 
HETATM   12  N4  UNL     1      20.186   1.162  49.612  1.00  0.00    -0.195 NA
HETATM   13  C11 UNL     1      19.655   1.426  50.941  1.00  0.00     0.167 C 
ENDROOT
BRANCH   1  14
HETATM   14  N1  UNL     1      24.796   0.163  52.681  1.00  0.00    -0.366 N 
HETATM   15  H5  UNL     1      25.171   0.030  51.735  1.00  0.00     0.161 HD
BRANCH  14  16
HETATM   16  C2  UNL     1      25.751   1.076  53.272  1.00  0.00     0.112 C 
HETATM   17  C1  UNL     1      25.756   2.448  52.717  1.00  0.00     0.037 C 
BRANCH  16  18
HETATM   18  C12 UNL     1      27.104   0.466  53.364  1.00  0.00    -0.036 A 
HETATM   19  C13 UNL     1      28.172   1.247  53.733  1.00  0.00     0.009 A 
HETATM   20  C14 UNL     1      29.441   0.676  53.820  1.00  0.00     0.001 A 
HETATM   21  C15 UNL     1      29.651  -0.658  53.541  1.00  0.00     0.000 A 
HETATM   22  C16 UNL     1      28.595  -1.455  53.171  1.00  0.00     0.001 A 
HETATM   23  C17 UNL     1      27.340  -0.883  53.087  1.00  0.00     0.009 A 
ENDBRANCH  16  18
ENDBRANCH  14  16
ENDBRANCH   1  14
BRANCH  12  24
HETATM   24  O1  UNL     1      20.117   2.308  48.900  1.00  0.00    -0.313 OA
HETATM   25  H11 UNL     1      19.428   2.269  48.191  1.00  0.00     0.237 HD
ENDBRANCH  12  24
TORSDOF 4
ENDMDL
MODEL 4
REMARK VINA RESULT:      -8.0      1.677      2.212
REMARK  4 active torsions:
REMARK  status: ('A' for Active; 'I' for Inactive)
REMARK    1  A    between atoms: C2_2  and  N1_3 
REMARK    2  A    between atoms: C2_2  and  C12_18 
REMARK    3  A    between atoms: N1_3  and  C3_4 
REMARK    4  A    between atoms: N4_15  and  O1_16 
ROOT
HETATM    1  C3  UNL     1      22.686   2.621  52.108  1.00  0.00     0.139 A 
HETATM    2  N2  UNL     1      21.418   2.989  52.021  1.00  0.00    -0.224 NA
HETATM    3  C4  UNL     1      20.362   2.356  52.502  1.00  0.00     0.236 A 
HETATM    4  N3  UNL     1      20.615   1.210  53.150  1.00  0.00    -0.234 NA
HETATM    5  C5  UNL     1      21.868   0.822  53.250  1.00  0.00     0.114 A 
HETATM    6  S1  UNL     1      22.570  -0.676  54.059  1.00  0.00    -0.072 SA
HETATM    7  C6  UNL     1      24.263  -0.350  53.694  1.00  0.00     0.007 A 
HETATM    8  C7  UNL     1      24.243   0.917  52.952  1.00  0.00    -0.026 A 
HETATM    9  C8  UNL     1      23.020   1.465  52.755  1.00  0.00     0.053 A 
HETATM   10  C9  UNL     1      25.667   1.125  52.684  1.00  0.00     0.057 C 
HETATM   11  C10 UNL     1      26.374   1.084  54.037  1.00  0.00     0.125 C 
HETATM   12  N4  UNL     1      26.553  -0.284  54.483  1.00  0.00    -0.195 NA
HETATM   13  C11 UNL     1      25.461  -1.129  54.024  1.00  0.00     0.167 C 
ENDROOT
BRANCH   1  14
HETATM   14  N1  UNL     1      23.636   3.486  51.492  1.00  0.00    -0.366 N 
HETATM   15  H5  UNL     1      24.444   4.051  51.777  1.00  0.00     0.161 HD
BRANCH  14  16
HETATM   16  C2  UNL     1      23.570   3.732  50.067  1.00  0.00     0.112 C 
HETATM   17  C1  UNL     1      23.123   2.591  49.238  1.00  0.00     0.037 C 
BRANCH  16  18
HETATM   18  C12 UNL     1      24.812   4.380  49.567  1.00  0.00    -0.036 A 
HETATM   19  C13 UNL     1      24.765   5.683  49.135  1.00  0.00     0.009 A 
HETATM   20  C14 UNL     1      25.929   6.292  48.666  1.00  0.00     0.001 A 
HETATM   21  C15 UNL     1      27.129   5.615  48.624  1.00  0.00     0.000 A 
HETATM   22  C16 UNL     1      27.196   4.311  49.052  1.00  0.00     0.001 A 
HETATM   23  C17 UNL     1      26.039   3.713  49.516  1.00  0.00     0.009 A 
ENDBRANCH  16  18
ENDBRANCH  14  16
ENDBRANCH   1  14
BRANCH  12  24
HETATM   24  O1  UNL     1      27.703  -0.771  53.966  1.00  0.00    -0.313 OA
HETATM   25  H11 UNL     1      28.495  -0.509  54.499  1.00  0.00     0.237 HD
ENDBRANCH  12  24
TORSDOF 4
ENDMDL
MODEL 5
REMARK VINA RESULT:      -8.0      1.755      2.791
REMARK  4 active torsions:
REMARK  status: ('A' for Active; 'I' for Inactive)
REMARK    1  A    between atoms: C2_2  and  N1_3 
REMARK    2  A    between atoms: C2_2  and  C12_18 
REMARK    3  A    between atoms: N1_3  and  C3_4 
REMARK    4  A    between atoms: N4_15  and  O1_16 
ROOT
HETATM    1  C3  UNL     1      22.481  -0.319  52.973  1.00  0.00     0.139 A 
HETATM    2  N2  UNL     1      21.374  -0.892  53.418  1.00  0.00    -0.224 NA
HETATM    3  C4  UNL     1      21.210  -1.552  54.551  1.00  0.00     0.236 A 
HETATM    4  N3  UNL     1      22.295  -1.648  55.333  1.00  0.00    -0.234 NA
HETATM    5  C5  UNL     1      23.409  -1.086  54.913  1.00  0.00     0.114 A 
HETATM    6  S1  UNL     1      25.064  -1.021  55.716  1.00  0.00    -0.072 SA
HETATM    7  C6  UNL     1      25.883  -0.097  54.459  1.00  0.00     0.007 A 
HETATM    8  C7  UNL     1      24.850   0.141  53.444  1.00  0.00    -0.026 A 
HETATM    9  C8  UNL     1      23.626  -0.374  53.716  1.00  0.00     0.053 A 
HETATM   10  C9  UNL     1      25.591   0.906  52.440  1.00  0.00     0.057 C 
HETATM   11  C10 UNL     1      26.190   2.108  53.167  1.00  0.00     0.125 C 
HETATM   12  N4  UNL     1      27.379   1.726  53.902  1.00  0.00    -0.195 NA
HETATM   13  C11 UNL     1      27.276   0.357  54.384  1.00  0.00     0.167 C 
ENDROOT
BRANCH   1  14
HETATM   14  N1  UNL     1      22.390   0.328  51.706  1.00  0.00    -0.366 N 
HETATM   15  H5  UNL     1      22.677   0.143  50.739  1.00  0.00     0.161 HD
BRANCH  14  16
HETATM   16  C2  UNL     1      21.728   1.610  51.598  1.00  0.00     0.112 C 
HETATM   17  C1  UNL     1      20.506   1.635  50.764  1.00  0.00     0.037 C 
BRANCH  16  18
HETATM   18  C12 UNL     1      22.692   2.695  51.273  1.00  0.00    -0.036 A 
HETATM   19  C13 UNL     1      22.889   3.714  52.172  1.00  0.00     0.009 A 
HETATM   20  C14 UNL     1      23.793   4.732  51.868  1.00  0.00     0.001 A 
HETATM   21  C15 UNL     1      24.496   4.741  50.683  1.00  0.00     0.000 A 
HETATM   22  C16 UNL     1      24.314   3.729  49.770  1.00  0.00     0.001 A 
HETATM   23  C17 UNL     1      23.416   2.723  50.078  1.00  0.00     0.009 A 
ENDBRANCH  16  18
ENDBRANCH  14  16
ENDBRANCH   1  14
BRANCH  12  24
HETATM   24  O1  UNL     1      28.450   1.800  53.082  1.00  0.00    -0.313 OA
HETATM   25  H11 UNL     1      29.304   1.838  53.581  1.00  0.00     0.237 HD
ENDBRANCH  12  24
TORSDOF 4
ENDMDL
MODEL 6
REMARK VINA RESULT:      -7.9      1.573      2.470
REMARK  4 active torsions:
REMARK  status: ('A' for Active; 'I' for Inactive)
REMARK    1  A    between atoms: C2_2  and  N1_3 
REMARK    2  A    between atoms: C2_2  and  C12_18 
REMARK    3  A    between atoms: N1_3  and  C3_4 
REMARK    4  A    between atoms: N4_15  and  O1_16 
ROOT
HETATM    1  C3  UNL     1      24.117   3.374  51.595  1.00  0.00     0.139 A 
HETATM    2  N2  UNL     1      22.989   4.001  51.302  1.00  0.00    -0.224 NA
HETATM    3  C4  UNL     1      21.757   3.610  51.575  1.00  0.00     0.236 A 
HETATM    4  N3  UNL     1      21.646   2.443  52.224  1.00  0.00    -0.234 NA
HETATM    5  C5  UNL     1      22.753   1.799  52.527  1.00  0.00     0.114 A 
HETATM    6  S1  UNL     1      22.972   0.193  53.402  1.00  0.00    -0.072 SA
HETATM    7  C6  UNL     1      24.733   0.149  53.343  1.00  0.00     0.007 A 
HETATM    8  C7  UNL     1      25.109   1.385  52.646  1.00  0.00    -0.026 A 
HETATM    9  C8  UNL     1      24.083   2.178  52.257  1.00  0.00     0.053 A 
HETATM   10  C9  UNL     1      26.570   1.284  52.633  1.00  0.00     0.057 C 
HETATM   11  C10 UNL     1      27.004   1.106  54.086  1.00  0.00     0.125 C 
HETATM   12  N4  UNL     1      26.812  -0.265  54.516  1.00  0.00    -0.195 NA
HETATM   13  C11 UNL     1      25.664  -0.863  53.852  1.00  0.00     0.167 C 
ENDROOT
BRANCH   1  14
HETATM   14  N1  UNL     1      25.320   4.012  51.177  1.00  0.00    -0.366 N 
HETATM   15  H5  UNL     1      26.061   4.585  51.598  1.00  0.00     0.161 HD
BRANCH  14  16
HETATM   16  C2  UNL     1      25.750   3.908  49.799  1.00  0.00     0.112 C 
HETATM   17  C1  UNL     1      26.527   2.696  49.457  1.00  0.00     0.037 C 
BRANCH  16  18
HETATM   18  C12 UNL     1      26.380   5.171  49.327  1.00  0.00    -0.036 A 
HETATM   19  C13 UNL     1      25.783   6.373  49.620  1.00  0.00     0.009 A 
HETATM   20  C14 UNL     1      26.372   7.557  49.178  1.00  0.00     0.001 A 
HETATM   21  C15 UNL     1      27.543   7.551  48.451  1.00  0.00     0.000 A 
HETATM   22  C16 UNL     1      28.156   6.359  48.149  1.00  0.00     0.001 A 
HETATM   23  C17 UNL     1      27.567   5.188  48.590  1.00  0.00     0.009 A 
ENDBRANCH  16  18
ENDBRANCH  14  16
ENDBRANCH   1  14
BRANCH  12  24
HETATM   24  O1  UNL     1      27.905  -0.989  54.192  1.00  0.00    -0.313 OA
HETATM   25  H11 UNL     1      27.729  -1.629  53.458  1.00  0.00     0.237 HD
ENDBRANCH  12  24
TORSDOF 4
ENDMDL
MODEL 7
REMARK VINA RESULT:      -7.7      2.521      4.163
REMARK  4 active torsions:
REMARK  status: ('A' for Active; 'I' for Inactive)
REMARK    1  A    between atoms: C2_2  and  N1_3 
REMARK    2  A    between atoms: C2_2  and  C12_18 
REMARK    3  A    between atoms: N1_3  and  C3_4 
REMARK    4  A    between atoms: N4_15  and  O1_16 
ROOT
HETATM    1  C3  UNL     1      25.523   0.975  52.333  1.00  0.00     0.139 A 
HETATM    2  N2  UNL     1      26.846   0.929  52.324  1.00  0.00    -0.224 NA
HETATM    3  C4  UNL     1      27.632   0.260  53.148  1.00  0.00     0.236 A 
HETATM    4  N3  UNL     1      27.010  -0.452  54.099  1.00  0.00    -0.234 NA
HETATM    5  C5  UNL     1      25.695  -0.423  54.129  1.00  0.00     0.114 A 
HETATM    6  S1  UNL     1      24.530  -1.267  55.278  1.00  0.00    -0.072 SA
HETATM    7  C6  UNL     1      23.038  -0.657  54.567  1.00  0.00     0.007 A 
HETATM    8  C7  UNL     1      23.480   0.189  53.451  1.00  0.00    -0.026 A 
HETATM    9  C8  UNL     1      24.820   0.274  53.272  1.00  0.00     0.053 A 
HETATM   10  C9  UNL     1      22.203   0.658  52.911  1.00  0.00     0.057 C 
HETATM   11  C10 UNL     1      21.380  -0.590  52.599  1.00  0.00     0.125 C 
HETATM   12  N4  UNL     1      20.787  -1.131  53.806  1.00  0.00    -0.195 NA
HETATM   13  C11 UNL     1      21.645  -0.898  54.957  1.00  0.00     0.167 C 
ENDROOT
BRANCH   1  14
HETATM   14  N1  UNL     1      24.915   1.786  51.331  1.00  0.00    -0.366 N 
HETATM   15  H5  UNL     1      24.533   1.665  50.386  1.00  0.00     0.161 HD
BRANCH  14  16
HETATM   16  C2  UNL     1      24.709   3.198  51.573  1.00  0.00     0.112 C 
HETATM   17  C1  UNL     1      23.307   3.614  51.799  1.00  0.00     0.037 C 
BRANCH  16  18
HETATM   18  C12 UNL     1      25.424   4.034  50.572  1.00  0.00    -0.036 A 
HETATM   19  C13 UNL     1      26.497   3.507  49.896  1.00  0.00     0.009 A 
HETATM   20  C14 UNL     1      27.168   4.290  48.957  1.00  0.00     0.001 A 
HETATM   21  C15 UNL     1      26.779   5.584  48.690  1.00  0.00     0.000 A 
HETATM   22  C16 UNL     1      25.707   6.130  49.355  1.00  0.00     0.001 A 
HETATM   23  C17 UNL     1      25.046   5.348  50.284  1.00  0.00     0.009 A 
ENDBRANCH  16  18
ENDBRANCH  14  16
ENDBRANCH   1  14
BRANCH  12  24
HETATM   24  O1  UNL     1      19.606  -0.516  54.033  1.00  0.00    -0.313 OA
HETATM   25  H11 UNL     1      19.520   0.332  53.530  1.00  0.00     0.237 HD
ENDBRANCH  12  24
TORSDOF 4
ENDMDL
MODEL 8
REMARK VINA RESULT:      -7.6      2.585      4.618
REMARK  4 active torsions:
REMARK  status: ('A' for Active; 'I' for Inactive)
REMARK    1  A    between atoms: C2_2  and  N1_3 
REMARK    2  A    between atoms: C2_2  and  C12_18 
REMARK    3  A    between atoms: N1_3  and  C3_4 
REMARK    4  A    between atoms: N4_15  and  O1_16 
ROOT
HETATM    1  C3  UNL     1      26.325   2.323  52.327  1.00  0.00     0.139 A 
HETATM    2  N2  UNL     1      27.638   2.254  52.471  1.00  0.00    -0.224 NA
HETATM    3  C4  UNL     1      28.329   1.339  53.128  1.00  0.00     0.236 A 
HETATM    4  N3  UNL     1      27.607   0.373  53.713  1.00  0.00    -0.234 NA
HETATM    5  C5  UNL     1      26.298   0.418  53.585  1.00  0.00     0.114 A 
HETATM    6  S1  UNL     1      25.016  -0.726  54.246  1.00  0.00    -0.072 SA
HETATM    7  C6  UNL     1      23.612   0.112  53.588  1.00  0.00     0.007 A 
HETATM    8  C7  UNL     1      24.174   1.262  52.868  1.00  0.00    -0.026 A 
HETATM    9  C8  UNL     1      25.524   1.372  52.895  1.00  0.00     0.053 A 
HETATM   10  C9  UNL     1      22.965   1.906  52.351  1.00  0.00     0.057 C 
HETATM   11  C10 UNL     1      22.214   0.843  51.554  1.00  0.00     0.125 C 
HETATM   12  N4  UNL     1      21.486  -0.045  52.438  1.00  0.00    -0.195 NA
HETATM   13  C11 UNL     1      22.187  -0.212  53.702  1.00  0.00     0.167 C 
ENDROOT
BRANCH   1  14
HETATM   14  N1  UNL     1      25.830   3.425  51.571  1.00  0.00    -0.366 N 
HETATM   15  H5  UNL     1      25.501   4.381  51.750  1.00  0.00     0.161 HD
BRANCH  14  16
HETATM   16  C2  UNL     1      25.706   3.315  50.134  1.00  0.00     0.112 C 
HETATM   17  C1  UNL     1      26.803   3.918  49.345  1.00  0.00     0.037 C 
BRANCH  16  18
HETATM   18  C12 UNL     1      24.350   3.717  49.671  1.00  0.00    -0.036 A 
HETATM   19  C13 UNL     1      23.810   4.899  50.113  1.00  0.00     0.009 A 
HETATM   20  C14 UNL     1      22.539   5.277  49.680  1.00  0.00     0.001 A 
HETATM   21  C15 UNL     1      21.809   4.488  48.817  1.00  0.00     0.000 A 
HETATM   22  C16 UNL     1      22.333   3.302  48.363  1.00  0.00     0.001 A 
HETATM   23  C17 UNL     1      23.593   2.934  48.796  1.00  0.00     0.009 A 
ENDBRANCH  16  18
ENDBRANCH  14  16
ENDBRANCH   1  14
BRANCH  12  24
HETATM   24  O1  UNL     1      20.273   0.488  52.701  1.00  0.00    -0.313 OA
HETATM   25  H11 UNL     1      19.838   0.066  53.483  1.00  0.00     0.237 HD
ENDBRANCH  12  24
TORSDOF 4
ENDMDL
MODEL 9
REMARK VINA RESULT:      -7.6      3.329      6.428
REMARK  4 active torsions:
REMARK  status: ('A' for Active; 'I' for Inactive)
REMARK    1  A    between atoms: C2_2  and  N1_3 
REMARK    2  A    between atoms: C2_2  and  C12_18 
REMARK    3  A    between atoms: N1_3  and  C3_4 
REMARK    4  A    between atoms: N4_15  and  O1_16 
ROOT
HETATM    1  C3  UNL     1      25.090   2.101  51.893  1.00  0.00     0.139 A 
HETATM    2  N2  UNL     1      26.128   2.758  51.401  1.00  0.00    -0.224 NA
HETATM    3  C4  UNL     1      26.203   3.395  50.246  1.00  0.00     0.236 A 
HETATM    4  N3  UNL     1      25.094   3.369  49.493  1.00  0.00    -0.234 NA
HETATM    5  C5  UNL     1      24.047   2.723  49.960  1.00  0.00     0.114 A 
HETATM    6  S1  UNL     1      22.385   2.484  49.205  1.00  0.00    -0.072 SA
HETATM    7  C6  UNL     1      21.685   1.527  50.509  1.00  0.00     0.007 A 
HETATM    8  C7  UNL     1      22.761   1.416  51.502  1.00  0.00    -0.026 A 
HETATM    9  C8  UNL     1      23.925   2.031  51.182  1.00  0.00     0.053 A 
HETATM   10  C9  UNL     1      22.118   0.618  52.547  1.00  0.00     0.057 C 
HETATM   11  C10 UNL     1      20.842   1.361  52.936  1.00  0.00     0.125 C 
HETATM   12  N4  UNL     1      19.792   1.123  51.965  1.00  0.00    -0.195 NA
HETATM   13  C11 UNL     1      20.346   0.945  50.632  1.00  0.00     0.167 C 
ENDROOT
BRANCH   1  14
HETATM   14  N1  UNL     1      25.278   1.490  53.166  1.00  0.00    -0.366 N 
HETATM   15  H5  UNL     1      25.209   1.759  54.155  1.00  0.00     0.161 HD
BRANCH  14  16
HETATM   16  C2  UNL     1      25.672   0.100  53.248  1.00  0.00     0.112 C 
HETATM   17  C1  UNL     1      24.890  -0.737  54.185  1.00  0.00     0.037 C 
BRANCH  16  18
HETATM   18  C12 UNL     1      27.144  -0.040  53.412  1.00  0.00    -0.036 A 
HETATM   19  C13 UNL     1      27.874   1.021  53.889  1.00  0.00     0.009 A 
HETATM   20  C14 UNL     1      29.254   0.890  54.042  1.00  0.00     0.001 A 
HETATM   21  C15 UNL     1      29.906  -0.282  53.725  1.00  0.00     0.000 A 
HETATM   22  C16 UNL     1      29.193  -1.355  53.247  1.00  0.00     0.001 A 
HETATM   23  C17 UNL     1      27.826  -1.219  53.097  1.00  0.00     0.009 A 
ENDBRANCH  16  18
ENDBRANCH  14  16
ENDBRANCH   1  14
BRANCH  12  24
HETATM   24  O1  UNL     1      19.130  -0.008  52.297  1.00  0.00    -0.313 OA
HETATM   25  H11 UNL     1      18.424   0.154  52.971  1.00  0.00     0.237 HD
ENDBRANCH  12  24
TORSDOF 4
ENDMDL
