MODEL 1
REMARK VINA RESULT:      -7.4      0.000      0.000
REMARK  6 active torsions:
REMARK  status: ('A' for Active; 'I' for Inactive)
REMARK    1  A    between atoms: N1_2  and  C3_4 
REMARK    2  A    between atoms: C3_4  and  C4_5 
REMARK    3  A    between atoms: C5_6  and  C6_7 
REMARK       I    between atoms: C6_7  and  N2_9 
REMARK    4  A    between atoms: N2_9  and  C7_10 
REMARK    5  A    between atoms: C10_15  and  N5_16 
REMARK    6  A    between atoms: N5_16  and  C11_17 
ROOT
HETATM    1  C7  UNL     1      24.415   4.162  50.715  1.00  0.00     0.133 C 
HETATM    2  C8  UNL     1      23.452   5.060  51.377  1.00  0.00     0.021 C 
HETATM    3  C9  UNL     1      22.239   5.196  51.912  1.00  0.00     0.107 C 
HETATM    4  N3  UNL     1      21.221   4.187  52.021  1.00  0.00    -0.288 N 
HETATM    5  N4  UNL     1      21.173   2.782  51.835  1.00  0.00    -0.157 NA
HETATM    6  C10 UNL     1      21.828   1.988  51.063  1.00  0.00     0.147 C 
HETATM    7  C17 UNL     1      22.875   2.147  50.068  1.00  0.00     0.050 C 
HETATM    8  C18 UNL     1      23.884   3.034  49.979  1.00  0.00     0.006 C 
HETATM    9  H13 UNL     1      20.307   4.643  52.310  1.00  0.00     0.188 HD
ENDROOT
BRANCH   1  10
HETATM   10  N2  UNL     1      25.382   4.917  49.943  1.00  0.00    -0.339 N 
HETATM   11  C6  UNL     1      26.595   4.541  49.329  1.00  0.00     0.297 C 
HETATM   12  O1  UNL     1      27.037   3.341  49.380  1.00  0.00    -0.258 OA
HETATM   13  H9  UNL     1      24.999   5.896  49.905  1.00  0.00     0.164 HD
BRANCH  11  14
HETATM   14  C5  UNL     1      27.391   5.489  48.618  1.00  0.00    -0.004 C 
HETATM   15  C4  UNL     1      28.077   6.292  48.035  1.00  0.00    -0.066 C 
BRANCH  15  16
HETATM   16  C3  UNL     1      28.915   7.281  47.347  1.00  0.00     0.365 C 
BRANCH  16  17
HETATM   17  N1  UNL     1      29.904   7.740  48.294  1.00  0.00     0.090 N 
HETATM   18  C1  UNL     1      29.387   8.839  49.030  1.00  0.00     0.310 C 
HETATM   19  C2  UNL     1      31.138   8.013  47.608  1.00  0.00     0.310 C 
ENDBRANCH  16  17
ENDBRANCH  15  16
ENDBRANCH  11  14
ENDBRANCH   1  10
BRANCH   6  20
HETATM   20  N5  UNL     1      21.392   0.626  51.261  1.00  0.00    -0.340 N 
HETATM   21  H14 UNL     1      20.826   0.215  50.459  1.00  0.00     0.167 HD
BRANCH  20  22
HETATM   22  C11 UNL     1      21.778   0.002  52.514  1.00  0.00     0.035 A 
HETATM   23  C12 UNL     1      20.839  -0.588  53.359  1.00  0.00     0.029 A 
HETATM   24  C13 UNL     1      21.253  -1.180  54.533  1.00  0.00     0.004 A 
HETATM   25  C14 UNL     1      22.587  -1.174  54.844  1.00  0.00     0.019 A 
HETATM   26  C15 UNL     1      23.548  -0.587  54.013  1.00  0.00     0.013 A 
HETATM   27 BR1  UNL     1      25.360  -0.669  54.592  1.00  0.00    -0.051 Br
HETATM   28  C16 UNL     1      23.107   0.005  52.833  1.00  0.00     0.048 A 
ENDBRANCH  20  22
ENDBRANCH   6  20
TORSDOF 6
ENDMDL
MODEL 2
REMARK VINA RESULT:      -7.4      3.149      3.867
REMARK  6 active torsions:
REMARK  status: ('A' for Active; 'I' for Inactive)
REMARK    1  A    between atoms: N1_2  and  C3_4 
REMARK    2  A    between atoms: C3_4  and  C4_5 
REMARK    3  A    between atoms: C5_6  and  C6_7 
REMARK       I    between atoms: C6_7  and  N2_9 
REMARK    4  A    between atoms: N2_9  and  C7_10 
REMARK    5  A    between atoms: C10_15  and  N5_16 
REMARK    6  A    between atoms: N5_16  and  C11_17 
ROOT
HETATM    1  C7  UNL     1      26.859   2.209  51.789  1.00  0.00     0.133 C 
HETATM    2  C8  UNL     1      27.996   2.107  52.720  1.00  0.00     0.021 C 
HETATM    3  C9  UNL     1      28.468   1.586  53.852  1.00  0.00     0.107 C 
HETATM    4  N3  UNL     1      27.777   0.708  54.757  1.00  0.00    -0.288 N 
HETATM    5  N4  UNL     1      26.570  -0.035  54.713  1.00  0.00    -0.157 NA
HETATM    6  C10 UNL     1      25.452   0.166  54.109  1.00  0.00     0.147 C 
HETATM    7  C17 UNL     1      24.924   1.195  53.230  1.00  0.00     0.050 C 
HETATM    8  C18 UNL     1      25.532   1.981  52.322  1.00  0.00     0.006 C 
HETATM    9  H13 UNL     1      28.336   0.623  55.656  1.00  0.00     0.188 HD
ENDROOT
BRANCH   1  10
HETATM   10  N2  UNL     1      26.936   3.427  51.007  1.00  0.00    -0.339 N 
HETATM   11  C6  UNL     1      26.250   3.846  49.849  1.00  0.00     0.297 C 
HETATM   12  O1  UNL     1      25.364   3.115  49.284  1.00  0.00    -0.258 OA
HETATM   13  H9  UNL     1      27.661   4.017  51.489  1.00  0.00     0.164 HD
BRANCH  11  14
HETATM   14  C5  UNL     1      26.514   5.114  49.247  1.00  0.00    -0.004 C 
HETATM   15  C4  UNL     1      26.758   6.179  48.736  1.00  0.00    -0.066 C 
BRANCH  15  16
HETATM   16  C3  UNL     1      27.078   7.473  48.122  1.00  0.00     0.365 C 
BRANCH  16  17
HETATM   17  N1  UNL     1      27.881   8.211  49.069  1.00  0.00     0.090 N 
HETATM   18  C1  UNL     1      27.036   8.866  50.004  1.00  0.00     0.310 C 
HETATM   19  C2  UNL     1      28.775   9.087  48.362  1.00  0.00     0.310 C 
ENDBRANCH  16  17
ENDBRANCH  15  16
ENDBRANCH  11  14
ENDBRANCH   1  10
BRANCH   6  20
HETATM   20  N5  UNL     1      24.529  -0.907  54.398  1.00  0.00    -0.340 N 
HETATM   21  H14 UNL     1      24.970  -1.773  54.833  1.00  0.00     0.167 HD
BRANCH  20  22
HETATM   22  C11 UNL     1      23.137  -0.667  54.062  1.00  0.00     0.035 A 
HETATM   23  C12 UNL     1      22.123  -0.782  55.013  1.00  0.00     0.029 A 
HETATM   24  C13 UNL     1      20.817  -0.532  54.651  1.00  0.00     0.004 A 
HETATM   25  C14 UNL     1      20.544  -0.174  53.358  1.00  0.00     0.019 A 
HETATM   26  C15 UNL     1      21.543  -0.053  52.386  1.00  0.00     0.013 A 
HETATM   27 BR1  UNL     1      20.993   0.457  50.636  1.00  0.00    -0.051 Br
HETATM   28  C16 UNL     1      22.856  -0.310  52.773  1.00  0.00     0.048 A 
ENDBRANCH  20  22
ENDBRANCH   6  20
TORSDOF 6
ENDMDL
MODEL 3
REMARK VINA RESULT:      -7.3      3.047      9.513
REMARK  6 active torsions:
REMARK  status: ('A' for Active; 'I' for Inactive)
REMARK    1  A    between atoms: N1_2  and  C3_4 
REMARK    2  A    between atoms: C3_4  and  C4_5 
REMARK    3  A    between atoms: C5_6  and  C6_7 
REMARK       I    between atoms: C6_7  and  N2_9 
REMARK    4  A    between atoms: N2_9  and  C7_10 
REMARK    5  A    between atoms: C10_15  and  N5_16 
REMARK    6  A    between atoms: N5_16  and  C11_17 
ROOT
HETATM    1  C7  UNL     1      25.117   4.506  49.556  1.00  0.00     0.133 C 
HETATM    2  C8  UNL     1      24.888   5.793  50.236  1.00  0.00     0.021 C 
HETATM    3  C9  UNL     1      25.337   7.025  50.474  1.00  0.00     0.107 C 
HETATM    4  N3  UNL     1      26.548   7.618  49.975  1.00  0.00    -0.288 N 
HETATM    5  N4  UNL     1      27.509   7.269  48.993  1.00  0.00    -0.157 NA
HETATM    6  C10 UNL     1      27.927   6.133  48.556  1.00  0.00     0.147 C 
HETATM    7  C17 UNL     1      27.625   4.742  48.847  1.00  0.00     0.050 C 
HETATM    8  C18 UNL     1      26.484   4.147  49.243  1.00  0.00     0.006 C 
HETATM    9  H13 UNL     1      26.727   8.529  50.490  1.00  0.00     0.188 HD
ENDROOT
BRANCH   1  10
HETATM   10  N2  UNL     1      24.405   3.433  50.222  1.00  0.00    -0.339 N 
HETATM   11  C6  UNL     1      24.721   2.653  51.352  1.00  0.00     0.297 C 
HETATM   12  O1  UNL     1      25.805   2.824  52.012  1.00  0.00    -0.258 OA
HETATM   13  H9  UNL     1      23.516   3.312  49.672  1.00  0.00     0.164 HD
BRANCH  11  14
HETATM   14  C5  UNL     1      23.842   1.628  51.817  1.00  0.00    -0.004 C 
HETATM   15  C4  UNL     1      23.115   0.748  52.204  1.00  0.00    -0.066 C 
BRANCH  15  16
HETATM   16  C3  UNL     1      22.239  -0.338  52.658  1.00  0.00     0.365 C 
BRANCH  16  17
HETATM   17  N1  UNL     1      21.978  -0.122  54.063  1.00  0.00     0.090 N 
HETATM   18  C1  UNL     1      22.255  -1.310  54.789  1.00  0.00     0.310 C 
HETATM   19  C2  UNL     1      20.641   0.379  54.233  1.00  0.00     0.310 C 
ENDBRANCH  16  17
ENDBRANCH  15  16
ENDBRANCH  11  14
ENDBRANCH   1  10
BRANCH   6  20
HETATM   20  N5  UNL     1      28.931   6.329  47.538  1.00  0.00    -0.340 N 
HETATM   21  H14 UNL     1      28.552   6.594  46.578  1.00  0.00     0.167 HD
BRANCH  20  22
HETATM   22  C11 UNL     1      30.311   6.143  47.950  1.00  0.00     0.035 A 
HETATM   23  C12 UNL     1      30.985   7.101  48.706  1.00  0.00     0.029 A 
HETATM   24  C13 UNL     1      32.291   6.876  49.085  1.00  0.00     0.004 A 
HETATM   25  C14 UNL     1      32.899   5.708  48.708  1.00  0.00     0.019 A 
HETATM   26  C15 UNL     1      32.243   4.733  47.949  1.00  0.00     0.013 A 
HETATM   27 BR1  UNL     1      33.233   3.165  47.513  1.00  0.00    -0.051 Br
HETATM   28  C16 UNL     1      30.925   4.981  47.577  1.00  0.00     0.048 A 
ENDBRANCH  20  22
ENDBRANCH   6  20
TORSDOF 6
ENDMDL
MODEL 4
REMARK VINA RESULT:      -7.1      1.762      2.404
REMARK  6 active torsions:
REMARK  status: ('A' for Active; 'I' for Inactive)
REMARK    1  A    between atoms: N1_2  and  C3_4 
REMARK    2  A    between atoms: C3_4  and  C4_5 
REMARK    3  A    between atoms: C5_6  and  C6_7 
REMARK       I    between atoms: C6_7  and  N2_9 
REMARK    4  A    between atoms: N2_9  and  C7_10 
REMARK    5  A    between atoms: C10_15  and  N5_16 
REMARK    6  A    between atoms: N5_16  and  C11_17 
ROOT
HETATM    1  C7  UNL     1      25.672   5.518  49.933  1.00  0.00     0.133 C 
HETATM    2  C8  UNL     1      24.891   6.443  50.773  1.00  0.00     0.021 C 
HETATM    3  C9  UNL     1      23.765   6.650  51.454  1.00  0.00     0.107 C 
HETATM    4  N3  UNL     1      22.659   5.743  51.599  1.00  0.00    -0.288 N 
HETATM    5  N4  UNL     1      22.436   4.373  51.307  1.00  0.00    -0.157 NA
HETATM    6  C10 UNL     1      22.914   3.592  50.403  1.00  0.00     0.147 C 
HETATM    7  C17 UNL     1      23.859   3.737  49.309  1.00  0.00     0.050 C 
HETATM    8  C18 UNL     1      24.944   4.523  49.175  1.00  0.00     0.006 C 
HETATM    9  H13 UNL     1      21.838   6.260  52.029  1.00  0.00     0.188 HD
ENDROOT
BRANCH   1  10
HETATM   10  N2  UNL     1      26.629   6.240  49.117  1.00  0.00    -0.339 N 
HETATM   11  C6  UNL     1      27.808   5.828  48.464  1.00  0.00     0.297 C 
HETATM   12  O1  UNL     1      28.222   4.617  48.512  1.00  0.00    -0.258 OA
HETATM   13  H9  UNL     1      26.269   7.228  49.083  1.00  0.00     0.164 HD
BRANCH  11  14
HETATM   14  C5  UNL     1      28.601   6.748  47.713  1.00  0.00    -0.004 C 
HETATM   15  C4  UNL     1      29.284   7.527  47.095  1.00  0.00    -0.066 C 
BRANCH  15  16
HETATM   16  C3  UNL     1      30.120   8.487  46.365  1.00  0.00     0.365 C 
BRANCH  16  17
HETATM   17  N1  UNL     1      30.422   9.571  47.272  1.00  0.00     0.090 N 
HETATM   18  C1  UNL     1      30.718  10.745  46.531  1.00  0.00     0.310 C 
HETATM   19  C2  UNL     1      31.459   9.164  48.180  1.00  0.00     0.310 C 
ENDBRANCH  16  17
ENDBRANCH  15  16
ENDBRANCH  11  14
ENDBRANCH   1  10
BRANCH   6  20
HETATM   20  N5  UNL     1      22.354   2.269  50.540  1.00  0.00    -0.340 N 
HETATM   21  H14 UNL     1      21.565   2.043  49.860  1.00  0.00     0.167 HD
BRANCH  20  22
HETATM   22  C11 UNL     1      22.932   1.428  51.573  1.00  0.00     0.035 A 
HETATM   23  C12 UNL     1      24.309   1.378  51.790  1.00  0.00     0.029 A 
HETATM   24  C13 UNL     1      24.813   0.575  52.791  1.00  0.00     0.004 A 
HETATM   25  C14 UNL     1      23.943  -0.160  53.553  1.00  0.00     0.019 A 
HETATM   26  C15 UNL     1      22.558  -0.126  53.352  1.00  0.00     0.013 A 
HETATM   27 BR1  UNL     1      21.491  -1.205  54.502  1.00  0.00    -0.051 Br
HETATM   28  C16 UNL     1      22.072   0.691  52.336  1.00  0.00     0.048 A 
ENDBRANCH  20  22
ENDBRANCH   6  20
TORSDOF 6
ENDMDL
MODEL 5
REMARK VINA RESULT:      -7.1      3.271      9.453
REMARK  6 active torsions:
REMARK  status: ('A' for Active; 'I' for Inactive)
REMARK    1  A    between atoms: N1_2  and  C3_4 
REMARK    2  A    between atoms: C3_4  and  C4_5 
REMARK    3  A    between atoms: C5_6  and  C6_7 
REMARK       I    between atoms: C6_7  and  N2_9 
REMARK    4  A    between atoms: N2_9  and  C7_10 
REMARK    5  A    between atoms: C10_15  and  N5_16 
REMARK    6  A    between atoms: N5_16  and  C11_17 
ROOT
HETATM    1  C7  UNL     1      24.016   4.008  50.335  1.00  0.00     0.133 C 
HETATM    2  C8  UNL     1      23.767   5.156  51.226  1.00  0.00     0.021 C 
HETATM    3  C9  UNL     1      24.108   6.397  51.569  1.00  0.00     0.107 C 
HETATM    4  N3  UNL     1      25.136   7.209  50.976  1.00  0.00    -0.288 N 
HETATM    5  N4  UNL     1      25.941   7.122  49.811  1.00  0.00    -0.157 NA
HETATM    6  C10 UNL     1      26.400   6.118  49.150  1.00  0.00     0.147 C 
HETATM    7  C17 UNL     1      26.315   4.673  49.276  1.00  0.00     0.050 C 
HETATM    8  C18 UNL     1      25.338   3.883  49.757  1.00  0.00     0.006 C 
HETATM    9  H13 UNL     1      25.300   8.063  51.584  1.00  0.00     0.188 HD
ENDROOT
BRANCH   1  10
HETATM   10  N2  UNL     1      23.560   2.772  50.939  1.00  0.00    -0.339 N 
HETATM   11  C6  UNL     1      23.947   2.102  52.117  1.00  0.00     0.297 C 
HETATM   12  O1  UNL     1      24.856   2.563  52.892  1.00  0.00    -0.258 OA
HETATM   13  H9  UNL     1      22.810   2.413  50.294  1.00  0.00     0.164 HD
BRANCH  11  14
HETATM   14  C5  UNL     1      23.342   0.867  52.502  1.00  0.00    -0.004 C 
HETATM   15  C4  UNL     1      22.821  -0.165  52.844  1.00  0.00    -0.066 C 
BRANCH  15  16
HETATM   16  C3  UNL     1      22.189  -1.415  53.284  1.00  0.00     0.365 C 
BRANCH  16  17
HETATM   17  N1  UNL     1      21.857  -1.260  54.681  1.00  0.00     0.090 N 
HETATM   18  C1  UNL     1      21.119  -0.061  54.867  1.00  0.00     0.310 C 
HETATM   19  C2  UNL     1      23.054  -1.349  55.474  1.00  0.00     0.310 C 
ENDBRANCH  16  17
ENDBRANCH  15  16
ENDBRANCH  11  14
ENDBRANCH   1  10
BRANCH   6  20
HETATM   20  N5  UNL     1      27.179   6.577  48.024  1.00  0.00    -0.340 N 
HETATM   21  H14 UNL     1      26.648   6.628  47.102  1.00  0.00     0.167 HD
BRANCH  20  22
HETATM   22  C11 UNL     1      28.567   6.907  48.293  1.00  0.00     0.035 A 
HETATM   23  C12 UNL     1      29.569   5.937  48.270  1.00  0.00     0.029 A 
HETATM   24  C13 UNL     1      30.875   6.299  48.518  1.00  0.00     0.004 A 
HETATM   25  C14 UNL     1      31.160   7.612  48.785  1.00  0.00     0.019 A 
HETATM   26  C15 UNL     1      30.172   8.603  48.815  1.00  0.00     0.013 A 
HETATM   27 BR1  UNL     1      30.739  10.380  49.199  1.00  0.00    -0.051 Br
HETATM   28  C16 UNL     1      28.860   8.215  48.561  1.00  0.00     0.048 A 
ENDBRANCH  20  22
ENDBRANCH   6  20
TORSDOF 6
ENDMDL
MODEL 6
REMARK VINA RESULT:      -7.1      1.995      2.602
REMARK  6 active torsions:
REMARK  status: ('A' for Active; 'I' for Inactive)
REMARK    1  A    between atoms: N1_2  and  C3_4 
REMARK    2  A    between atoms: C3_4  and  C4_5 
REMARK    3  A    between atoms: C5_6  and  C6_7 
REMARK       I    between atoms: C6_7  and  N2_9 
REMARK    4  A    between atoms: N2_9  and  C7_10 
REMARK    5  A    between atoms: C10_15  and  N5_16 
REMARK    6  A    between atoms: N5_16  and  C11_17 
ROOT
HETATM    1  C7  UNL     1      24.131   4.335  49.572  1.00  0.00     0.133 C 
HETATM    2  C8  UNL     1      23.546   3.494  48.511  1.00  0.00     0.021 C 
HETATM    3  C9  UNL     1      22.708   2.504  48.208  1.00  0.00     0.107 C 
HETATM    4  N3  UNL     1      21.891   1.749  49.118  1.00  0.00    -0.288 N 
HETATM    5  N4  UNL     1      21.525   1.875  50.483  1.00  0.00    -0.157 NA
HETATM    6  C10 UNL     1      22.133   2.377  51.499  1.00  0.00     0.147 C 
HETATM    7  C17 UNL     1      23.417   3.020  51.719  1.00  0.00     0.050 C 
HETATM    8  C18 UNL     1      24.170   3.791  50.913  1.00  0.00     0.006 C 
HETATM    9  H13 UNL     1      21.485   0.910  48.609  1.00  0.00     0.188 HD
ENDROOT
BRANCH   1  10
HETATM   10  N2  UNL     1      25.410   4.876  49.159  1.00  0.00    -0.339 N 
HETATM   11  C6  UNL     1      26.697   4.304  49.092  1.00  0.00     0.297 C 
HETATM   12  O1  UNL     1      26.915   3.086  49.422  1.00  0.00    -0.258 OA
HETATM   13  H9  UNL     1      25.211   5.873  48.885  1.00  0.00     0.164 HD
BRANCH  11  14
HETATM   14  C5  UNL     1      27.824   5.061  48.651  1.00  0.00    -0.004 C 
HETATM   15  C4  UNL     1      28.764   5.711  48.265  1.00  0.00    -0.066 C 
BRANCH  15  16
HETATM   16  C3  UNL     1      29.897   6.502  47.772  1.00  0.00     0.365 C 
BRANCH  16  17
HETATM   17  N1  UNL     1      30.619   6.986  48.926  1.00  0.00     0.090 N 
HETATM   18  C1  UNL     1      31.163   8.267  48.646  1.00  0.00     0.310 C 
HETATM   19  C2  UNL     1      31.588   6.005  49.335  1.00  0.00     0.310 C 
ENDBRANCH  16  17
ENDBRANCH  15  16
ENDBRANCH  11  14
ENDBRANCH   1  10
BRANCH   6  20
HETATM   20  N5  UNL     1      21.315   2.252  52.682  1.00  0.00    -0.340 N 
HETATM   21  H14 UNL     1      20.919   3.169  53.053  1.00  0.00     0.167 HD
BRANCH  20  22
HETATM   22  C11 UNL     1      21.138   0.908  53.204  1.00  0.00     0.035 A 
HETATM   23  C12 UNL     1      22.180   0.221  53.826  1.00  0.00     0.029 A 
HETATM   24  C13 UNL     1      21.962  -1.047  54.318  1.00  0.00     0.004 A 
HETATM   25  C14 UNL     1      20.720  -1.608  54.183  1.00  0.00     0.019 A 
HETATM   26  C15 UNL     1      19.660  -0.938  53.561  1.00  0.00     0.013 A 
HETATM   27 BR1  UNL     1      17.995  -1.859  53.459  1.00  0.00    -0.051 Br
HETATM   28  C16 UNL     1      19.901   0.342  53.071  1.00  0.00     0.048 A 
ENDBRANCH  20  22
ENDBRANCH   6  20
TORSDOF 6
ENDMDL
MODEL 7
REMARK VINA RESULT:      -7.0      3.116     10.036
REMARK  6 active torsions:
REMARK  status: ('A' for Active; 'I' for Inactive)
REMARK    1  A    between atoms: N1_2  and  C3_4 
REMARK    2  A    between atoms: C3_4  and  C4_5 
REMARK    3  A    between atoms: C5_6  and  C6_7 
REMARK       I    between atoms: C6_7  and  N2_9 
REMARK    4  A    between atoms: N2_9  and  C7_10 
REMARK    5  A    between atoms: C10_15  and  N5_16 
REMARK    6  A    between atoms: N5_16  and  C11_17 
ROOT
HETATM    1  C7  UNL     1      26.434   5.590  48.806  1.00  0.00     0.133 C 
HETATM    2  C8  UNL     1      26.335   6.901  49.473  1.00  0.00     0.021 C 
HETATM    3  C9  UNL     1      26.924   8.067  49.733  1.00  0.00     0.107 C 
HETATM    4  N3  UNL     1      28.224   8.499  49.298  1.00  0.00    -0.288 N 
HETATM    5  N4  UNL     1      29.183   8.024  48.367  1.00  0.00    -0.157 NA
HETATM    6  C10 UNL     1      29.475   6.842  47.953  1.00  0.00     0.147 C 
HETATM    7  C17 UNL     1      28.985   5.502  48.228  1.00  0.00     0.050 C 
HETATM    8  C18 UNL     1      27.759   5.059  48.565  1.00  0.00     0.006 C 
HETATM    9  H13 UNL     1      28.491   9.384  49.821  1.00  0.00     0.188 HD
ENDROOT
BRANCH   1  10
HETATM   10  N2  UNL     1      25.559   4.621  49.434  1.00  0.00    -0.339 N 
HETATM   11  C6  UNL     1      25.817   3.551  50.314  1.00  0.00     0.297 C 
HETATM   12  O1  UNL     1      27.000   3.278  50.720  1.00  0.00    -0.258 OA
HETATM   13  H9  UNL     1      24.592   4.865  49.095  1.00  0.00     0.164 HD
BRANCH  11  14
HETATM   14  C5  UNL     1      24.764   2.715  50.797  1.00  0.00    -0.004 C 
HETATM   15  C4  UNL     1      23.877   1.998  51.187  1.00  0.00    -0.066 C 
BRANCH  15  16
HETATM   16  C3  UNL     1      22.790   1.121  51.637  1.00  0.00     0.365 C 
BRANCH  16  17
HETATM   17  N1  UNL     1      22.971   0.905  53.054  1.00  0.00     0.090 N 
HETATM   18  C1  UNL     1      24.072   0.035  53.268  1.00  0.00     0.310 C 
HETATM   19  C2  UNL     1      21.735   0.452  53.634  1.00  0.00     0.310 C 
ENDBRANCH  16  17
ENDBRANCH  15  16
ENDBRANCH  11  14
ENDBRANCH   1  10
BRANCH   6  20
HETATM   20  N5  UNL     1      30.547   6.902  46.988  1.00  0.00    -0.340 N 
HETATM   21  H14 UNL     1      30.238   7.079  45.984  1.00  0.00     0.167 HD
BRANCH  20  22
HETATM   22  C11 UNL     1      31.891   6.717  47.506  1.00  0.00     0.035 A 
HETATM   23  C12 UNL     1      32.585   7.753  48.130  1.00  0.00     0.029 A 
HETATM   24  C13 UNL     1      33.854   7.527  48.618  1.00  0.00     0.004 A 
HETATM   25  C14 UNL     1      34.407   6.282  48.478  1.00  0.00     0.019 A 
HETATM   26  C15 UNL     1      33.730   5.227  47.855  1.00  0.00     0.013 A 
HETATM   27 BR1  UNL     1      34.641   3.558  47.746  1.00  0.00    -0.051 Br
HETATM   28  C16 UNL     1      32.450   5.477  47.369  1.00  0.00     0.048 A 
ENDBRANCH  20  22
ENDBRANCH   6  20
TORSDOF 6
ENDMDL
MODEL 8
REMARK VINA RESULT:      -6.8      3.700     10.031
REMARK  6 active torsions:
REMARK  status: ('A' for Active; 'I' for Inactive)
REMARK    1  A    between atoms: N1_2  and  C3_4 
REMARK    2  A    between atoms: C3_4  and  C4_5 
REMARK    3  A    between atoms: C5_6  and  C6_7 
REMARK       I    between atoms: C6_7  and  N2_9 
REMARK    4  A    between atoms: N2_9  and  C7_10 
REMARK    5  A    between atoms: C10_15  and  N5_16 
REMARK    6  A    between atoms: N5_16  and  C11_17 
ROOT
HETATM    1  C7  UNL     1      25.678   5.133  49.174  1.00  0.00     0.133 C 
HETATM    2  C8  UNL     1      25.547   6.406  49.905  1.00  0.00     0.021 C 
HETATM    3  C9  UNL     1      26.088   7.589  50.190  1.00  0.00     0.107 C 
HETATM    4  N3  UNL     1      27.340   8.109  49.710  1.00  0.00    -0.288 N 
HETATM    5  N4  UNL     1      28.271   7.727  48.711  1.00  0.00    -0.157 NA
HETATM    6  C10 UNL     1      28.601   6.581  48.227  1.00  0.00     0.147 C 
HETATM    7  C17 UNL     1      28.195   5.206  48.464  1.00  0.00     0.050 C 
HETATM    8  C18 UNL     1      27.013   4.684  48.841  1.00  0.00     0.006 C 
HETATM    9  H13 UNL     1      27.588   8.983  50.260  1.00  0.00     0.188 HD
ENDROOT
BRANCH   1  10
HETATM   10  N2  UNL     1      24.887   4.091  49.799  1.00  0.00    -0.339 N 
HETATM   11  C6  UNL     1      23.692   3.455  49.407  1.00  0.00     0.297 C 
HETATM   12  O1  UNL     1      23.091   3.752  48.316  1.00  0.00    -0.258 OA
HETATM   13  H9  UNL     1      25.398   3.855  50.688  1.00  0.00     0.164 HD
BRANCH  11  14
HETATM   14  C5  UNL     1      23.090   2.443  50.215  1.00  0.00    -0.004 C 
HETATM   15  C4  UNL     1      22.577   1.603  50.912  1.00  0.00    -0.066 C 
BRANCH  15  16
HETATM   16  C3  UNL     1      21.959   0.594  51.781  1.00  0.00     0.365 C 
BRANCH  16  17
HETATM   17  N1  UNL     1      23.014   0.002  52.571  1.00  0.00     0.090 N 
HETATM   18  C1  UNL     1      22.472  -1.003  53.415  1.00  0.00     0.310 C 
HETATM   19  C2  UNL     1      23.733   1.036  53.265  1.00  0.00     0.310 C 
ENDBRANCH  16  17
ENDBRANCH  15  16
ENDBRANCH  11  14
ENDBRANCH   1  10
BRANCH   6  20
HETATM   20  N5  UNL     1      29.616   6.741  47.214  1.00  0.00    -0.340 N 
HETATM   21  H14 UNL     1      29.274   6.620  46.212  1.00  0.00     0.167 HD
BRANCH  20  22
HETATM   22  C11 UNL     1      30.955   7.045  47.686  1.00  0.00     0.035 A 
HETATM   23  C12 UNL     1      31.614   6.224  48.601  1.00  0.00     0.029 A 
HETATM   24  C13 UNL     1      32.889   6.545  49.011  1.00  0.00     0.004 A 
HETATM   25  C14 UNL     1      33.485   7.671  48.507  1.00  0.00     0.019 A 
HETATM   26  C15 UNL     1      32.844   8.511  47.589  1.00  0.00     0.013 A 
HETATM   27 BR1  UNL     1      33.814  10.034  46.984  1.00  0.00    -0.051 Br
HETATM   28  C16 UNL     1      31.556   8.168  47.188  1.00  0.00     0.048 A 
ENDBRANCH  20  22
ENDBRANCH   6  20
TORSDOF 6
ENDMDL
MODEL 9
REMARK VINA RESULT:      -6.7      2.739      4.050
REMARK  6 active torsions:
REMARK  status: ('A' for Active; 'I' for Inactive)
REMARK    1  A    between atoms: N1_2  and  C3_4 
REMARK    2  A    between atoms: C3_4  and  C4_5 
REMARK    3  A    between atoms: C5_6  and  C6_7 
REMARK       I    between atoms: C6_7  and  N2_9 
REMARK    4  A    between atoms: N2_9  and  C7_10 
REMARK    5  A    between atoms: C10_15  and  N5_16 
REMARK    6  A    between atoms: N5_16  and  C11_17 
ROOT
HETATM    1  C7  UNL     1      26.762   5.478  49.210  1.00  0.00     0.133 C 
HETATM    2  C8  UNL     1      26.028   6.418  48.344  1.00  0.00     0.021 C 
HETATM    3  C9  UNL     1      24.842   6.888  47.961  1.00  0.00     0.107 C 
HETATM    4  N3  UNL     1      23.550   6.475  48.438  1.00  0.00    -0.288 N 
HETATM    5  N4  UNL     1      23.082   5.675  49.512  1.00  0.00    -0.157 NA
HETATM    6  C10 UNL     1      23.594   4.667  50.127  1.00  0.00     0.147 C 
HETATM    7  C17 UNL     1      24.829   3.911  50.018  1.00  0.00     0.050 C 
HETATM    8  C18 UNL     1      26.067   4.286  49.646  1.00  0.00     0.006 C 
HETATM    9  H13 UNL     1      22.799   6.887  47.812  1.00  0.00     0.188 HD
ENDROOT
BRANCH   1  10
HETATM   10  N2  UNL     1      28.072   5.183  48.663  1.00  0.00    -0.339 N 
HETATM   11  C6  UNL     1      29.177   6.009  48.370  1.00  0.00     0.297 C 
HETATM   12  O1  UNL     1      29.156   7.271  48.583  1.00  0.00    -0.258 OA
HETATM   13  H9  UNL     1      28.074   4.144  48.502  1.00  0.00     0.164 HD
BRANCH  11  14
HETATM   14  C5  UNL     1      30.378   5.472  47.817  1.00  0.00    -0.004 C 
HETATM   15  C4  UNL     1      31.399   5.011  47.369  1.00  0.00    -0.066 C 
BRANCH  15  16
HETATM   16  C3  UNL     1      32.652   4.454  46.846  1.00  0.00     0.365 C 
BRANCH  16  17
HETATM   17  N1  UNL     1      33.589   4.396  47.945  1.00  0.00     0.090 N 
HETATM   18  C1  UNL     1      34.238   5.651  48.087  1.00  0.00     0.310 C 
HETATM   19  C2  UNL     1      34.480   3.284  47.760  1.00  0.00     0.310 C 
ENDBRANCH  16  17
ENDBRANCH  15  16
ENDBRANCH  11  14
ENDBRANCH   1  10
BRANCH   6  20
HETATM   20  N5  UNL     1      22.698   4.208  51.162  1.00  0.00    -0.340 N 
HETATM   21  H14 UNL     1      22.471   4.930  51.912  1.00  0.00     0.167 HD
BRANCH  20  22
HETATM   22  C11 UNL     1      22.229   2.839  51.047  1.00  0.00     0.035 A 
HETATM   23  C12 UNL     1      21.543   2.392  49.919  1.00  0.00     0.029 A 
HETATM   24  C13 UNL     1      21.128   1.080  49.848  1.00  0.00     0.004 A 
HETATM   25  C14 UNL     1      21.400   0.240  50.895  1.00  0.00     0.019 A 
HETATM   26  C15 UNL     1      22.087   0.666  52.038  1.00  0.00     0.013 A 
HETATM   27 BR1  UNL     1      22.387  -0.630  53.400  1.00  0.00    -0.051 Br
HETATM   28  C16 UNL     1      22.497   1.995  52.088  1.00  0.00     0.048 A 
ENDBRANCH  20  22
ENDBRANCH   6  20
TORSDOF 6
ENDMDL
