MODEL 1
REMARK VINA RESULT:      -7.6      0.000      0.000
REMARK  9 active torsions:
REMARK  status: ('A' for Active; 'I' for Inactive)
REMARK    1  A    between atoms: C2_2  and  C3_3 
REMARK       I    between atoms: C3_3  and  N1_5 
REMARK    2  A    between atoms: N1_5  and  C4_6 
REMARK    3  A    between atoms: C6_8  and  N2_9 
REMARK    4  A    between atoms: N2_9  and  C7_10 
REMARK    5  A    between atoms: C12_19  and  O2_20 
REMARK    6  A    between atoms: C15_23  and  N7_24 
REMARK    7  A    between atoms: N7_24  and  C17_26 
REMARK    8  A    between atoms: C17_26  and  C18_27 
REMARK    9  A    between atoms: C18_27  and  N8_28 
ROOT
HETATM    1  C4  UNL     1      22.589   1.642  52.139  1.00  0.00     0.064 A 
HETATM    2  C5  UNL     1      23.644   1.850  53.002  1.00  0.00     0.065 A 
HETATM    3  C6  UNL     1      24.790   2.522  52.638  1.00  0.00     0.085 A 
HETATM    4  C12 UNL     1      24.804   2.982  51.317  1.00  0.00     0.097 A 
HETATM    5  C14 UNL     1      23.756   2.780  50.445  1.00  0.00     0.070 A 
HETATM    6  C15 UNL     1      22.622   2.103  50.842  1.00  0.00     0.059 A 
ENDROOT
BRANCH   3   7
HETATM    7  N2  UNL     1      25.886   2.759  53.507  1.00  0.00    -0.184 N 
HETATM    8  H6  UNL     1      25.845   3.634  54.113  1.00  0.00     0.184 HD
BRANCH   7   9
HETATM    9  C7  UNL     1      27.014   1.901  53.614  1.00  0.00     0.745 A 
HETATM   10  N3  UNL     1      26.799   0.662  53.280  1.00  0.00     0.038 NA
HETATM   11  N4  UNL     1      27.872  -0.227  53.366  1.00  0.00    -0.179 N 
HETATM   12  N5  UNL     1      27.925  -1.582  53.076  1.00  0.00    -0.212 NA
HETATM   13  C10 UNL     1      29.153   0.248  53.810  1.00  0.00     0.087 A 
HETATM   14  C8  UNL     1      29.259  -2.018  53.338  1.00  0.00     0.142 A 
HETATM   15  H7  UNL     1      27.197  -2.097  53.588  1.00  0.00     0.149 HD
HETATM   16  C9  UNL     1      29.976  -0.800  53.797  1.00  0.00     0.023 A 
HETATM   17  C11 UNL     1      29.297   1.668  54.165  1.00  0.00     0.169 A 
HETATM   18  N6  UNL     1      28.261   2.465  54.070  1.00  0.00    -0.071 NA
ENDBRANCH   7   9
ENDBRANCH   3   7
BRANCH   4  19
HETATM   19  O2  UNL     1      25.940   3.663  50.915  1.00  0.00    -0.354 OA
HETATM   20  C13 UNL     1      25.984   4.199  49.607  1.00  0.00     0.210 C 
ENDBRANCH   4  19
BRANCH   1  21
HETATM   21  N1  UNL     1      21.440   0.950  52.568  1.00  0.00    -0.322 N 
HETATM   22  C3  UNL     1      21.041  -0.294  53.149  1.00  0.00     0.244 C 
HETATM   23  O1  UNL     1      21.752  -1.249  53.482  1.00  0.00    -0.268 OA
HETATM   24  H4  UNL     1      20.703   1.676  52.338  1.00  0.00     0.169 HD
BRANCH  22  25
HETATM   25  C2  UNL     1      19.608  -0.467  53.386  1.00  0.00     0.064 C 
HETATM   26  C1  UNL     1      19.250   0.016  52.207  1.00  0.00     0.017 C 
ENDBRANCH  22  25
ENDBRANCH   1  21
BRANCH   6  27
HETATM   27  N7  UNL     1      21.602   1.946  49.871  1.00  0.00    -0.382 N 
HETATM   28  C16 UNL     1      21.451   0.937  48.812  1.00  0.00     0.150 C 
BRANCH  27  29
HETATM   29  C17 UNL     1      20.488   2.861  49.828  1.00  0.00     0.152 C 
BRANCH  29  30
HETATM   30  C18 UNL     1      20.278   3.505  48.476  1.00  0.00     0.291 C 
BRANCH  30  31
HETATM   31  N8  UNL     1      20.812   4.856  48.598  1.00  0.00     0.081 N 
HETATM   32  C19 UNL     1      20.765   5.381  49.929  1.00  0.00     0.309 C 
HETATM   33  C20 UNL     1      22.091   4.978  47.972  1.00  0.00     0.309 C 
ENDBRANCH  30  31
ENDBRANCH  29  30
ENDBRANCH  27  29
ENDBRANCH   6  27
TORSDOF 9
ENDMDL
MODEL 2
REMARK VINA RESULT:      -7.4      1.681      4.427
REMARK  9 active torsions:
REMARK  status: ('A' for Active; 'I' for Inactive)
REMARK    1  A    between atoms: C2_2  and  C3_3 
REMARK       I    between atoms: C3_3  and  N1_5 
REMARK    2  A    between atoms: N1_5  and  C4_6 
REMARK    3  A    between atoms: C6_8  and  N2_9 
REMARK    4  A    between atoms: N2_9  and  C7_10 
REMARK    5  A    between atoms: C12_19  and  O2_20 
REMARK    6  A    between atoms: C15_23  and  N7_24 
REMARK    7  A    between atoms: N7_24  and  C17_26 
REMARK    8  A    between atoms: C17_26  and  C18_27 
REMARK    9  A    between atoms: C18_27  and  N8_28 
ROOT
HETATM    1  C4  UNL     1      23.995   3.382  51.104  1.00  0.00     0.064 A 
HETATM    2  C5  UNL     1      24.512   2.331  51.832  1.00  0.00     0.065 A 
HETATM    3  C6  UNL     1      23.733   1.501  52.607  1.00  0.00     0.085 A 
HETATM    4  C12 UNL     1      22.367   1.805  52.601  1.00  0.00     0.097 A 
HETATM    5  C14 UNL     1      21.840   2.853  51.878  1.00  0.00     0.070 A 
HETATM    6  C15 UNL     1      22.648   3.665  51.112  1.00  0.00     0.059 A 
ENDROOT
BRANCH   3   7
HETATM    7  N2  UNL     1      24.236   0.407  53.358  1.00  0.00    -0.184 N 
HETATM    8  H6  UNL     1      23.523  -0.213  53.850  1.00  0.00     0.184 HD
BRANCH   7   9
HETATM    9  C7  UNL     1      25.617   0.096  53.480  1.00  0.00     0.745 A 
HETATM   10  N3  UNL     1      25.944  -1.114  53.131  1.00  0.00     0.038 NA
HETATM   11  N4  UNL     1      27.289  -1.475  53.230  1.00  0.00    -0.179 N 
HETATM   12  N5  UNL     1      27.908  -2.680  52.928  1.00  0.00    -0.212 NA
HETATM   13  C10 UNL     1      28.247  -0.516  53.704  1.00  0.00     0.087 A 
HETATM   14  C8  UNL     1      29.298  -2.523  53.214  1.00  0.00     0.142 A 
HETATM   15  H7  UNL     1      27.454  -3.460  53.421  1.00  0.00     0.149 HD
HETATM   16  C9  UNL     1      29.434  -1.125  53.699  1.00  0.00     0.023 A 
HETATM   17  C11 UNL     1      27.780   0.827  54.076  1.00  0.00     0.169 A 
HETATM   18  N6  UNL     1      26.508   1.121  53.966  1.00  0.00    -0.071 NA
ENDBRANCH   7   9
ENDBRANCH   3   7
BRANCH   4  19
HETATM   19  O2  UNL     1      21.554   0.991  53.370  1.00  0.00    -0.354 OA
HETATM   20  C13 UNL     1      20.177   0.913  53.052  1.00  0.00     0.210 C 
ENDBRANCH   4  19
BRANCH   1  21
HETATM   21  N1  UNL     1      24.839   4.197  50.326  1.00  0.00    -0.322 N 
HETATM   22  C3  UNL     1      26.112   4.180  49.673  1.00  0.00     0.244 C 
HETATM   23  O1  UNL     1      26.938   3.262  49.627  1.00  0.00    -0.268 OA
HETATM   24  H4  UNL     1      24.240   5.070  50.272  1.00  0.00     0.169 HD
BRANCH  22  25
HETATM   25  C2  UNL     1      26.492   5.402  48.966  1.00  0.00     0.064 C 
HETATM   26  C1  UNL     1      27.687   4.953  48.617  1.00  0.00     0.017 C 
ENDBRANCH  22  25
ENDBRANCH   1  21
BRANCH   6  27
HETATM   27  N7  UNL     1      22.008   4.716  50.407  1.00  0.00    -0.382 N 
HETATM   28  C16 UNL     1      21.899   6.145  50.736  1.00  0.00     0.150 C 
BRANCH  27  29
HETATM   29  C17 UNL     1      21.333   4.455  49.160  1.00  0.00     0.152 C 
BRANCH  29  30
HETATM   30  C18 UNL     1      22.239   4.512  47.951  1.00  0.00     0.291 C 
BRANCH  30  31
HETATM   31  N8  UNL     1      21.851   3.383  47.115  1.00  0.00     0.081 N 
HETATM   32  C19 UNL     1      21.977   3.629  45.710  1.00  0.00     0.309 C 
HETATM   33  C20 UNL     1      22.467   2.168  47.548  1.00  0.00     0.309 C 
ENDBRANCH  30  31
ENDBRANCH  29  30
ENDBRANCH  27  29
ENDBRANCH   6  27
TORSDOF 9
ENDMDL
MODEL 3
REMARK VINA RESULT:      -7.3      4.771      8.149
REMARK  9 active torsions:
REMARK  status: ('A' for Active; 'I' for Inactive)
REMARK    1  A    between atoms: C2_2  and  C3_3 
REMARK       I    between atoms: C3_3  and  N1_5 
REMARK    2  A    between atoms: N1_5  and  C4_6 
REMARK    3  A    between atoms: C6_8  and  N2_9 
REMARK    4  A    between atoms: N2_9  and  C7_10 
REMARK    5  A    between atoms: C12_19  and  O2_20 
REMARK    6  A    between atoms: C15_23  and  N7_24 
REMARK    7  A    between atoms: N7_24  and  C17_26 
REMARK    8  A    between atoms: C17_26  and  C18_27 
REMARK    9  A    between atoms: C18_27  and  N8_28 
ROOT
HETATM    1  C4  UNL     1      28.158   5.683  48.356  1.00  0.00     0.064 A 
HETATM    2  C5  UNL     1      27.551   4.529  48.804  1.00  0.00     0.065 A 
HETATM    3  C6  UNL     1      26.272   4.503  49.314  1.00  0.00     0.085 A 
HETATM    4  C12 UNL     1      25.629   5.745  49.345  1.00  0.00     0.097 A 
HETATM    5  C14 UNL     1      26.226   6.905  48.901  1.00  0.00     0.070 A 
HETATM    6  C15 UNL     1      27.508   6.896  48.395  1.00  0.00     0.059 A 
ENDROOT
BRANCH   3   7
HETATM    7  N2  UNL     1      25.620   3.329  49.773  1.00  0.00    -0.184 N 
HETATM    8  H6  UNL     1      24.804   2.969  49.191  1.00  0.00     0.184 HD
BRANCH   7   9
HETATM    9  C7  UNL     1      25.996   2.618  50.943  1.00  0.00     0.745 A 
HETATM   10  N3  UNL     1      27.224   2.805  51.333  1.00  0.00     0.038 NA
HETATM   11  N4  UNL     1      27.650   2.131  52.479  1.00  0.00    -0.179 N 
HETATM   12  N5  UNL     1      28.885   2.147  53.109  1.00  0.00    -0.212 NA
HETATM   13  C10 UNL     1      26.735   1.271  53.176  1.00  0.00     0.087 A 
HETATM   14  C8  UNL     1      28.795   1.278  54.238  1.00  0.00     0.142 A 
HETATM   15  H7  UNL     1      29.638   1.914  52.448  1.00  0.00     0.149 HD
HETATM   16  C9  UNL     1      27.401   0.764  54.214  1.00  0.00     0.023 A 
HETATM   17  C11 UNL     1      25.367   1.124  52.658  1.00  0.00     0.169 A 
HETATM   18  N6  UNL     1      25.012   1.776  51.578  1.00  0.00    -0.071 NA
ENDBRANCH   7   9
ENDBRANCH   3   7
BRANCH   4  19
HETATM   19  O2  UNL     1      24.341   5.758  49.852  1.00  0.00    -0.354 OA
HETATM   20  C13 UNL     1      24.134   6.234  51.168  1.00  0.00     0.210 C 
ENDBRANCH   4  19
BRANCH   1  21
HETATM   21  N1  UNL     1      29.468   5.649  47.841  1.00  0.00    -0.322 N 
HETATM   22  C3  UNL     1      30.831   5.567  48.266  1.00  0.00     0.244 C 
HETATM   23  O1  UNL     1      31.271   5.490  49.418  1.00  0.00    -0.268 OA
HETATM   24  H4  UNL     1      29.250   5.710  46.805  1.00  0.00     0.169 HD
BRANCH  22  25
HETATM   25  C2  UNL     1      31.840   5.573  47.207  1.00  0.00     0.064 C 
HETATM   26  C1  UNL     1      31.445   6.728  46.695  1.00  0.00     0.017 C 
ENDBRANCH  22  25
ENDBRANCH   1  21
BRANCH   6  27
HETATM   27  N7  UNL     1      28.031   8.142  47.966  1.00  0.00    -0.382 N 
HETATM   28  C16 UNL     1      28.218   8.671  46.607  1.00  0.00     0.150 C 
BRANCH  27  29
HETATM   29  C17 UNL     1      28.475   9.119  48.930  1.00  0.00     0.152 C 
BRANCH  29  30
HETATM   30  C18 UNL     1      29.953   9.044  49.240  1.00  0.00     0.291 C 
BRANCH  30  31
HETATM   31  N8  UNL     1      30.487  10.362  48.922  1.00  0.00     0.081 N 
HETATM   32  C19 UNL     1      31.368  10.377  47.793  1.00  0.00     0.309 C 
HETATM   33  C20 UNL     1      29.457  11.351  48.865  1.00  0.00     0.309 C 
ENDBRANCH  30  31
ENDBRANCH  29  30
ENDBRANCH  27  29
ENDBRANCH   6  27
TORSDOF 9
ENDMDL
MODEL 4
REMARK VINA RESULT:      -7.2      1.603      4.222
REMARK  9 active torsions:
REMARK  status: ('A' for Active; 'I' for Inactive)
REMARK    1  A    between atoms: C2_2  and  C3_3 
REMARK       I    between atoms: C3_3  and  N1_5 
REMARK    2  A    between atoms: N1_5  and  C4_6 
REMARK    3  A    between atoms: C6_8  and  N2_9 
REMARK    4  A    between atoms: N2_9  and  C7_10 
REMARK    5  A    between atoms: C12_19  and  O2_20 
REMARK    6  A    between atoms: C15_23  and  N7_24 
REMARK    7  A    between atoms: N7_24  and  C17_26 
REMARK    8  A    between atoms: C17_26  and  C18_27 
REMARK    9  A    between atoms: C18_27  and  N8_28 
ROOT
HETATM    1  C4  UNL     1      24.347   3.349  50.668  1.00  0.00     0.064 A 
HETATM    2  C5  UNL     1      25.045   3.011  51.807  1.00  0.00     0.065 A 
HETATM    3  C6  UNL     1      24.639   2.017  52.670  1.00  0.00     0.085 A 
HETATM    4  C12 UNL     1      23.455   1.369  52.300  1.00  0.00     0.097 A 
HETATM    5  C14 UNL     1      22.749   1.698  51.163  1.00  0.00     0.070 A 
HETATM    6  C15 UNL     1      23.183   2.698  50.321  1.00  0.00     0.059 A 
ENDROOT
BRANCH   3   7
HETATM    7  N2  UNL     1      25.342   1.642  53.844  1.00  0.00    -0.184 N 
HETATM    8  H6  UNL     1      24.869   1.841  54.777  1.00  0.00     0.184 HD
BRANCH   7   9
HETATM    9  C7  UNL     1      26.620   1.021  53.839  1.00  0.00     0.745 A 
HETATM   10  N3  UNL     1      26.619  -0.242  53.525  1.00  0.00     0.038 NA
HETATM   11  N4  UNL     1      27.847  -0.905  53.504  1.00  0.00    -0.179 N 
HETATM   12  N5  UNL     1      28.135  -2.229  53.207  1.00  0.00    -0.212 NA
HETATM   13  C10 UNL     1      29.048  -0.184  53.823  1.00  0.00     0.087 A 
HETATM   14  C8  UNL     1      29.547  -2.395  53.337  1.00  0.00     0.142 A 
HETATM   15  H7  UNL     1      27.573  -2.867  53.786  1.00  0.00     0.149 HD
HETATM   16  C9  UNL     1      30.054  -1.053  53.728  1.00  0.00     0.023 A 
HETATM   17  C11 UNL     1      28.947   1.242  54.166  1.00  0.00     0.169 A 
HETATM   18  N6  UNL     1      27.772   1.823  54.173  1.00  0.00    -0.071 NA
ENDBRANCH   7   9
ENDBRANCH   3   7
BRANCH   4  19
HETATM   19  O2  UNL     1      23.016   0.363  53.143  1.00  0.00    -0.354 OA
HETATM   20  C13 UNL     1      21.842  -0.347  52.800  1.00  0.00     0.210 C 
ENDBRANCH   4  19
BRANCH   1  21
HETATM   21  N1  UNL     1      24.811   4.373  49.821  1.00  0.00    -0.322 N 
HETATM   22  C3  UNL     1      25.071   5.779  49.812  1.00  0.00     0.244 C 
HETATM   23  O1  UNL     1      24.919   6.593  50.729  1.00  0.00    -0.268 OA
HETATM   24  H4  UNL     1      24.995   3.805  48.944  1.00  0.00     0.169 HD
BRANCH  22  25
HETATM   25  C2  UNL     1      25.583   6.334  48.559  1.00  0.00     0.064 C 
HETATM   26  C1  UNL     1      26.757   5.732  48.651  1.00  0.00     0.017 C 
ENDBRANCH  22  25
ENDBRANCH   1  21
BRANCH   6  27
HETATM   27  N7  UNL     1      22.385   2.961  49.180  1.00  0.00    -0.382 N 
HETATM   28  C16 UNL     1      22.530   2.487  47.796  1.00  0.00     0.150 C 
BRANCH  27  29
HETATM   29  C17 UNL     1      21.221   3.807  49.280  1.00  0.00     0.152 C 
BRANCH  29  30
HETATM   30  C18 UNL     1      19.974   3.207  48.671  1.00  0.00     0.291 C 
BRANCH  30  31
HETATM   31  N8  UNL     1      19.138   2.814  49.798  1.00  0.00     0.081 N 
HETATM   32  C19 UNL     1      19.194   1.416  50.104  1.00  0.00     0.309 C 
HETATM   33  C20 UNL     1      19.342   3.663  50.929  1.00  0.00     0.309 C 
ENDBRANCH  30  31
ENDBRANCH  29  30
ENDBRANCH  27  29
ENDBRANCH   6  27
TORSDOF 9
ENDMDL
MODEL 5
REMARK VINA RESULT:      -7.2      1.575      4.244
REMARK  9 active torsions:
REMARK  status: ('A' for Active; 'I' for Inactive)
REMARK    1  A    between atoms: C2_2  and  C3_3 
REMARK       I    between atoms: C3_3  and  N1_5 
REMARK    2  A    between atoms: N1_5  and  C4_6 
REMARK    3  A    between atoms: C6_8  and  N2_9 
REMARK    4  A    between atoms: N2_9  and  C7_10 
REMARK    5  A    between atoms: C12_19  and  O2_20 
REMARK    6  A    between atoms: C15_23  and  N7_24 
REMARK    7  A    between atoms: N7_24  and  C17_26 
REMARK    8  A    between atoms: C17_26  and  C18_27 
REMARK    9  A    between atoms: C18_27  and  N8_28 
ROOT
HETATM    1  C4  UNL     1      24.066   3.084  50.674  1.00  0.00     0.064 A 
HETATM    2  C5  UNL     1      24.620   2.426  51.751  1.00  0.00     0.065 A 
HETATM    3  C6  UNL     1      23.970   1.422  52.434  1.00  0.00     0.085 A 
HETATM    4  C12 UNL     1      22.693   1.118  51.949  1.00  0.00     0.097 A 
HETATM    5  C14 UNL     1      22.128   1.769  50.874  1.00  0.00     0.070 A 
HETATM    6  C15 UNL     1      22.807   2.769  50.212  1.00  0.00     0.059 A 
ENDROOT
BRANCH   3   7
HETATM    7  N2  UNL     1      24.520   0.722  53.538  1.00  0.00    -0.184 N 
HETATM    8  H6  UNL     1      23.850   0.440  54.317  1.00  0.00     0.184 HD
BRANCH   7   9
HETATM    9  C7  UNL     1      25.893   0.377  53.655  1.00  0.00     0.745 A 
HETATM   10  N3  UNL     1      26.195  -0.826  53.260  1.00  0.00     0.038 NA
HETATM   11  N4  UNL     1      27.531  -1.221  53.352  1.00  0.00    -0.179 N 
HETATM   12  N5  UNL     1      28.126  -2.426  53.007  1.00  0.00    -0.212 NA
HETATM   13  C10 UNL     1      28.508  -0.302  53.868  1.00  0.00     0.087 A 
HETATM   14  C8  UNL     1      29.517  -2.311  53.305  1.00  0.00     0.142 A 
HETATM   15  H7  UNL     1      27.652  -3.214  53.467  1.00  0.00     0.149 HD
HETATM   16  C9  UNL     1      29.681  -0.936  53.844  1.00  0.00     0.023 A 
HETATM   17  C11 UNL     1      28.068   1.036  54.289  1.00  0.00     0.169 A 
HETATM   18  N6  UNL     1      26.803   1.363  54.185  1.00  0.00    -0.071 NA
ENDBRANCH   7   9
ENDBRANCH   3   7
BRANCH   4  19
HETATM   19  O2  UNL     1      22.008   0.114  52.611  1.00  0.00    -0.354 OA
HETATM   20  C13 UNL     1      20.926   0.469  53.451  1.00  0.00     0.210 C 
ENDBRANCH   4  19
BRANCH   1  21
HETATM   21  N1  UNL     1      24.780   4.101  50.012  1.00  0.00    -0.322 N 
HETATM   22  C3  UNL     1      26.076   4.386  49.478  1.00  0.00     0.244 C 
HETATM   23  O1  UNL     1      27.078   3.662  49.470  1.00  0.00    -0.268 OA
HETATM   24  H4  UNL     1      24.017   4.833  49.940  1.00  0.00     0.169 HD
BRANCH  22  25
HETATM   25  C2  UNL     1      26.246   5.701  48.861  1.00  0.00     0.064 C 
HETATM   26  C1  UNL     1      27.524   5.516  48.573  1.00  0.00     0.017 C 
ENDBRANCH  22  25
ENDBRANCH   1  21
BRANCH   6  27
HETATM   27  N7  UNL     1      22.139   3.377  49.120  1.00  0.00    -0.382 N 
HETATM   28  C16 UNL     1      22.295   3.156  47.675  1.00  0.00     0.150 C 
BRANCH  27  29
HETATM   29  C17 UNL     1      21.127   4.379  49.349  1.00  0.00     0.152 C 
BRANCH  29  30
HETATM   30  C18 UNL     1      21.323   5.167  50.624  1.00  0.00     0.291 C 
BRANCH  30  31
HETATM   31  N8  UNL     1      21.460   6.557  50.210  1.00  0.00     0.081 N 
HETATM   32  C19 UNL     1      22.711   7.152  50.572  1.00  0.00     0.309 C 
HETATM   33  C20 UNL     1      21.111   6.736  48.835  1.00  0.00     0.309 C 
ENDBRANCH  30  31
ENDBRANCH  29  30
ENDBRANCH  27  29
ENDBRANCH   6  27
TORSDOF 9
ENDMDL
MODEL 6
REMARK VINA RESULT:      -7.0      3.556      7.120
REMARK  9 active torsions:
REMARK  status: ('A' for Active; 'I' for Inactive)
REMARK    1  A    between atoms: C2_2  and  C3_3 
REMARK       I    between atoms: C3_3  and  N1_5 
REMARK    2  A    between atoms: N1_5  and  C4_6 
REMARK    3  A    between atoms: C6_8  and  N2_9 
REMARK    4  A    between atoms: N2_9  and  C7_10 
REMARK    5  A    between atoms: C12_19  and  O2_20 
REMARK    6  A    between atoms: C15_23  and  N7_24 
REMARK    7  A    between atoms: N7_24  and  C17_26 
REMARK    8  A    between atoms: C17_26  and  C18_27 
REMARK    9  A    between atoms: C18_27  and  N8_28 
ROOT
HETATM    1  C4  UNL     1      26.293   1.964  51.824  1.00  0.00     0.064 A 
HETATM    2  C5  UNL     1      26.765   2.843  50.872  1.00  0.00     0.065 A 
HETATM    3  C6  UNL     1      25.956   3.431  49.926  1.00  0.00     0.085 A 
HETATM    4  C12 UNL     1      24.607   3.067  50.002  1.00  0.00     0.097 A 
HETATM    5  C14 UNL     1      24.123   2.190  50.948  1.00  0.00     0.070 A 
HETATM    6  C15 UNL     1      24.961   1.619  51.882  1.00  0.00     0.059 A 
ENDROOT
BRANCH   3   7
HETATM    7  N2  UNL     1      26.413   4.346  48.942  1.00  0.00    -0.184 N 
HETATM    8  H6  UNL     1      26.618   3.954  47.973  1.00  0.00     0.184 HD
BRANCH   7   9
HETATM    9  C7  UNL     1      26.600   5.734  49.175  1.00  0.00     0.745 A 
HETATM   10  N3  UNL     1      27.637   6.258  48.590  1.00  0.00     0.038 NA
HETATM   11  N4  UNL     1      27.872   7.621  48.784  1.00  0.00    -0.179 N 
HETATM   12  N5  UNL     1      28.886   8.425  48.286  1.00  0.00    -0.212 NA
HETATM   13  C10 UNL     1      26.975   8.383  49.607  1.00  0.00     0.087 A 
HETATM   14  C8  UNL     1      28.667   9.742  48.792  1.00  0.00     0.142 A 
HETATM   15  H7  UNL     1      29.810   8.030  48.505  1.00  0.00     0.149 HD
HETATM   16  C9  UNL     1      27.436   9.635  49.618  1.00  0.00     0.023 A 
HETATM   17  C11 UNL     1      25.830   7.701  50.227  1.00  0.00     0.169 A 
HETATM   18  N6  UNL     1      25.650   6.420  50.017  1.00  0.00    -0.071 NA
ENDBRANCH   7   9
ENDBRANCH   3   7
BRANCH   4  19
HETATM   19  O2  UNL     1      23.763   3.639  49.066  1.00  0.00    -0.354 OA
HETATM   20  C13 UNL     1      22.371   3.648  49.323  1.00  0.00     0.210 C 
ENDBRANCH   4  19
BRANCH   1  21
HETATM   21  N1  UNL     1      27.168   1.396  52.769  1.00  0.00    -0.322 N 
HETATM   22  C3  UNL     1      28.360   1.691  53.503  1.00  0.00     0.244 C 
HETATM   23  O1  UNL     1      29.042   2.721  53.476  1.00  0.00    -0.268 OA
HETATM   24  H4  UNL     1      26.694   0.458  52.904  1.00  0.00     0.169 HD
BRANCH  22  25
HETATM   25  C2  UNL     1      28.840   0.643  54.404  1.00  0.00     0.064 C 
HETATM   26  C1  UNL     1      28.901  -0.283  53.462  1.00  0.00     0.017 C 
ENDBRANCH  22  25
ENDBRANCH   1  21
BRANCH   6  27
HETATM   27  N7  UNL     1      24.367   0.729  52.811  1.00  0.00    -0.382 N 
HETATM   28  C16 UNL     1      24.962  -0.379  53.573  1.00  0.00     0.150 C 
BRANCH  27  29
HETATM   29  C17 UNL     1      22.966   0.841  53.137  1.00  0.00     0.152 C 
BRANCH  29  30
HETATM   30  C18 UNL     1      22.148  -0.367  52.740  1.00  0.00     0.291 C 
BRANCH  30  31
HETATM   31  N8  UNL     1      21.215  -0.586  53.837  1.00  0.00     0.081 N 
HETATM   32  C19 UNL     1      19.837  -0.509  53.453  1.00  0.00     0.309 C 
HETATM   33  C20 UNL     1      21.542  -1.761  54.583  1.00  0.00     0.309 C 
ENDBRANCH  30  31
ENDBRANCH  29  30
ENDBRANCH  27  29
ENDBRANCH   6  27
TORSDOF 9
ENDMDL
MODEL 7
REMARK VINA RESULT:      -6.8      1.834      7.487
REMARK  9 active torsions:
REMARK  status: ('A' for Active; 'I' for Inactive)
REMARK    1  A    between atoms: C2_2  and  C3_3 
REMARK       I    between atoms: C3_3  and  N1_5 
REMARK    2  A    between atoms: N1_5  and  C4_6 
REMARK    3  A    between atoms: C6_8  and  N2_9 
REMARK    4  A    between atoms: N2_9  and  C7_10 
REMARK    5  A    between atoms: C12_19  and  O2_20 
REMARK    6  A    between atoms: C15_23  and  N7_24 
REMARK    7  A    between atoms: N7_24  and  C17_26 
REMARK    8  A    between atoms: C17_26  and  C18_27 
REMARK    9  A    between atoms: C18_27  and  N8_28 
ROOT
HETATM    1  C4  UNL     1      23.836   1.537  52.607  1.00  0.00     0.064 A 
HETATM    2  C5  UNL     1      23.110   2.491  51.926  1.00  0.00     0.065 A 
HETATM    3  C6  UNL     1      23.691   3.430  51.102  1.00  0.00     0.085 A 
HETATM    4  C12 UNL     1      25.084   3.344  51.009  1.00  0.00     0.097 A 
HETATM    5  C14 UNL     1      25.820   2.396  51.685  1.00  0.00     0.070 A 
HETATM    6  C15 UNL     1      25.207   1.469  52.501  1.00  0.00     0.059 A 
ENDROOT
BRANCH   3   7
HETATM    7  N2  UNL     1      22.968   4.415  50.382  1.00  0.00    -0.184 N 
HETATM    8  H6  UNL     1      22.703   5.303  50.907  1.00  0.00     0.184 HD
BRANCH   7   9
HETATM    9  C7  UNL     1      22.592   4.285  49.018  1.00  0.00     0.745 A 
HETATM   10  N3  UNL     1      22.723   5.364  48.303  1.00  0.00     0.038 NA
HETATM   11  N4  UNL     1      22.368   5.295  46.954  1.00  0.00    -0.179 N 
HETATM   12  N5  UNL     1      22.408   6.277  45.976  1.00  0.00    -0.212 NA
HETATM   13  C10 UNL     1      21.881   4.057  46.413  1.00  0.00     0.087 A 
HETATM   14  C8  UNL     1      21.932   5.687  44.766  1.00  0.00     0.142 A 
HETATM   15  H7  UNL     1      21.893   7.115  46.275  1.00  0.00     0.149 HD
HETATM   16  C9  UNL     1      21.622   4.279  45.124  1.00  0.00     0.023 A 
HETATM   17  C11 UNL     1      21.768   2.891  47.301  1.00  0.00     0.169 A 
HETATM   18  N6  UNL     1      22.113   3.003  48.561  1.00  0.00    -0.071 NA
ENDBRANCH   7   9
ENDBRANCH   3   7
BRANCH   4  19
HETATM   19  O2  UNL     1      25.703   4.272  50.189  1.00  0.00    -0.354 OA
HETATM   20  C13 UNL     1      26.767   3.844  49.361  1.00  0.00     0.210 C 
ENDBRANCH   4  19
BRANCH   1  21
HETATM   21  N1  UNL     1      23.187   0.599  53.433  1.00  0.00    -0.322 N 
HETATM   22  C3  UNL     1      21.879   0.187  53.836  1.00  0.00     0.244 C 
HETATM   23  O1  UNL     1      20.787   0.647  53.485  1.00  0.00    -0.268 OA
HETATM   24  H4  UNL     1      24.034   0.098  53.828  1.00  0.00     0.169 HD
BRANCH  22  25
HETATM   25  C2  UNL     1      21.815  -0.923  54.786  1.00  0.00     0.064 C 
HETATM   26  C1  UNL     1      20.786  -1.507  54.195  1.00  0.00     0.017 C 
ENDBRANCH  22  25
ENDBRANCH   1  21
BRANCH   6  27
HETATM   27  N7  UNL     1      26.053   0.538  53.154  1.00  0.00    -0.382 N 
HETATM   28  C16 UNL     1      26.251  -0.897  52.901  1.00  0.00     0.150 C 
BRANCH  27  29
HETATM   29  C17 UNL     1      26.897   0.957  54.246  1.00  0.00     0.152 C 
BRANCH  29  30
HETATM   30  C18 UNL     1      27.864  -0.107  54.714  1.00  0.00     0.291 C 
BRANCH  30  31
HETATM   31  N8  UNL     1      29.193   0.427  54.448  1.00  0.00     0.081 N 
HETATM   32  C19 UNL     1      29.957  -0.349  53.517  1.00  0.00     0.309 C 
HETATM   33  C20 UNL     1      29.151   1.822  54.140  1.00  0.00     0.309 C 
ENDBRANCH  30  31
ENDBRANCH  29  30
ENDBRANCH  27  29
ENDBRANCH   6  27
TORSDOF 9
ENDMDL
MODEL 8
REMARK VINA RESULT:      -6.8      2.531      7.913
REMARK  9 active torsions:
REMARK  status: ('A' for Active; 'I' for Inactive)
REMARK    1  A    between atoms: C2_2  and  C3_3 
REMARK       I    between atoms: C3_3  and  N1_5 
REMARK    2  A    between atoms: N1_5  and  C4_6 
REMARK    3  A    between atoms: C6_8  and  N2_9 
REMARK    4  A    between atoms: N2_9  and  C7_10 
REMARK    5  A    between atoms: C12_19  and  O2_20 
REMARK    6  A    between atoms: C15_23  and  N7_24 
REMARK    7  A    between atoms: N7_24  and  C17_26 
REMARK    8  A    between atoms: C17_26  and  C18_27 
REMARK    9  A    between atoms: C18_27  and  N8_28 
ROOT
HETATM    1  C4  UNL     1      23.555   1.111  52.852  1.00  0.00     0.064 A 
HETATM    2  C5  UNL     1      22.476   1.880  52.473  1.00  0.00     0.065 A 
HETATM    3  C6  UNL     1      22.567   2.901  51.553  1.00  0.00     0.085 A 
HETATM    4  C12 UNL     1      23.848   3.100  51.026  1.00  0.00     0.097 A 
HETATM    5  C14 UNL     1      24.935   2.338  51.398  1.00  0.00     0.070 A 
HETATM    6  C15 UNL     1      24.808   1.324  52.322  1.00  0.00     0.059 A 
ENDROOT
BRANCH   3   7
HETATM    7  N2  UNL     1      21.472   3.701  51.137  1.00  0.00    -0.184 N 
HETATM    8  H6  UNL     1      21.676   4.721  50.908  1.00  0.00     0.184 HD
BRANCH   7   9
HETATM    9  C7  UNL     1      20.142   3.220  51.006  1.00  0.00     0.745 A 
HETATM   10  N3  UNL     1      19.250   3.867  51.698  1.00  0.00     0.038 NA
HETATM   11  N4  UNL     1      17.924   3.437  51.608  1.00  0.00    -0.179 N 
HETATM   12  N5  UNL     1      16.787   3.936  52.226  1.00  0.00    -0.212 NA
HETATM   13  C10 UNL     1      17.597   2.318  50.769  1.00  0.00     0.087 A 
HETATM   14  C8  UNL     1      15.687   3.132  51.799  1.00  0.00     0.142 A 
HETATM   15  H7  UNL     1      16.913   3.984  53.245  1.00  0.00     0.149 HD
HETATM   16  C9  UNL     1      16.281   2.130  50.876  1.00  0.00     0.023 A 
HETATM   17  C11 UNL     1      18.677   1.651  50.026  1.00  0.00     0.169 A 
HETATM   18  N6  UNL     1      19.906   2.089  50.142  1.00  0.00    -0.071 NA
ENDBRANCH   7   9
ENDBRANCH   3   7
BRANCH   4  19
HETATM   19  O2  UNL     1      23.979   4.118  50.098  1.00  0.00    -0.354 OA
HETATM   20  C13 UNL     1      24.610   5.321  50.493  1.00  0.00     0.210 C 
ENDBRANCH   4  19
BRANCH   1  21
HETATM   21  N1  UNL     1      23.401   0.077  53.796  1.00  0.00    -0.322 N 
HETATM   22  C3  UNL     1      22.402  -0.559  54.598  1.00  0.00     0.244 C 
HETATM   23  O1  UNL     1      21.195  -0.303  54.666  1.00  0.00    -0.268 OA
HETATM   24  H4  UNL     1      24.404  -0.262  53.849  1.00  0.00     0.169 HD
BRANCH  22  25
HETATM   25  C2  UNL     1      22.860  -1.657  55.449  1.00  0.00     0.064 C 
HETATM   26  C1  UNL     1      24.120  -1.253  55.470  1.00  0.00     0.017 C 
ENDBRANCH  22  25
ENDBRANCH   1  21
BRANCH   6  27
HETATM   27  N7  UNL     1      25.985   0.600  52.637  1.00  0.00    -0.382 N 
HETATM   28  C16 UNL     1      26.452  -0.705  52.145  1.00  0.00     0.150 C 
BRANCH  27  29
HETATM   29  C17 UNL     1      26.945   1.136  53.570  1.00  0.00     0.152 C 
BRANCH  29  30
HETATM   30  C18 UNL     1      27.466   0.120  54.563  1.00  0.00     0.291 C 
BRANCH  30  31
HETATM   31  N8  UNL     1      28.908   0.320  54.608  1.00  0.00     0.081 N 
HETATM   32  C19 UNL     1      29.651  -0.626  53.829  1.00  0.00     0.309 C 
HETATM   33  C20 UNL     1      29.262   1.682  54.355  1.00  0.00     0.309 C 
ENDBRANCH  30  31
ENDBRANCH  29  30
ENDBRANCH  27  29
ENDBRANCH   6  27
TORSDOF 9
ENDMDL
MODEL 9
REMARK VINA RESULT:      -6.8      3.970      8.881
REMARK  9 active torsions:
REMARK  status: ('A' for Active; 'I' for Inactive)
REMARK    1  A    between atoms: C2_2  and  C3_3 
REMARK       I    between atoms: C3_3  and  N1_5 
REMARK    2  A    between atoms: N1_5  and  C4_6 
REMARK    3  A    between atoms: C6_8  and  N2_9 
REMARK    4  A    between atoms: N2_9  and  C7_10 
REMARK    5  A    between atoms: C12_19  and  O2_20 
REMARK    6  A    between atoms: C15_23  and  N7_24 
REMARK    7  A    between atoms: N7_24  and  C17_26 
REMARK    8  A    between atoms: C17_26  and  C18_27 
REMARK    9  A    between atoms: C18_27  and  N8_28 
ROOT
HETATM    1  C4  UNL     1      20.733   2.059  52.440  1.00  0.00     0.064 A 
HETATM    2  C5  UNL     1      19.488   2.495  52.041  1.00  0.00     0.065 A 
HETATM    3  C6  UNL     1      19.286   3.684  51.374  1.00  0.00     0.085 A 
HETATM    4  C12 UNL     1      20.450   4.422  51.131  1.00  0.00     0.097 A 
HETATM    5  C14 UNL     1      21.699   3.997  51.527  1.00  0.00     0.070 A 
HETATM    6  C15 UNL     1      21.866   2.801  52.191  1.00  0.00     0.059 A 
ENDROOT
BRANCH   3   7
HETATM    7  N2  UNL     1      18.018   4.152  50.943  1.00  0.00    -0.184 N 
HETATM    8  H6  UNL     1      18.006   4.841  50.131  1.00  0.00     0.184 HD
BRANCH   7   9
HETATM    9  C7  UNL     1      16.785   3.751  51.523  1.00  0.00     0.745 A 
HETATM   10  N3  UNL     1      16.369   4.496  52.506  1.00  0.00     0.038 NA
HETATM   11  N4  UNL     1      15.162   4.150  53.115  1.00  0.00    -0.179 N 
HETATM   12  N5  UNL     1      14.493   4.759  54.167  1.00  0.00    -0.212 NA
HETATM   13  C10 UNL     1      14.434   3.005  52.645  1.00  0.00     0.087 A 
HETATM   14  C8  UNL     1      13.305   4.004  54.405  1.00  0.00     0.142 A 
HETATM   15  H7  UNL     1      15.108   4.861  54.984  1.00  0.00     0.149 HD
HETATM   16  C9  UNL     1      13.338   2.911  53.399  1.00  0.00     0.023 A 
HETATM   17  C11 UNL     1      14.986   2.224  51.527  1.00  0.00     0.169 A 
HETATM   18  N6  UNL     1      16.123   2.587  50.987  1.00  0.00    -0.071 NA
ENDBRANCH   7   9
ENDBRANCH   3   7
BRANCH   4  19
HETATM   19  O2  UNL     1      20.286   5.624  50.464  1.00  0.00    -0.354 OA
HETATM   20  C13 UNL     1      21.418   6.448  50.261  1.00  0.00     0.210 C 
ENDBRANCH   4  19
BRANCH   1  21
HETATM   21  N1  UNL     1      20.879   0.833  53.116  1.00  0.00    -0.322 N 
HETATM   22  C3  UNL     1      20.145  -0.348  53.452  1.00  0.00     0.244 C 
HETATM   23  O1  UNL     1      18.974  -0.629  53.175  1.00  0.00    -0.268 OA
HETATM   24  H4  UNL     1      21.887   0.924  53.430  1.00  0.00     0.169 HD
BRANCH  22  25
HETATM   25  C2  UNL     1      20.867  -1.359  54.225  1.00  0.00     0.064 C 
HETATM   26  C1  UNL     1      21.559  -0.478  54.929  1.00  0.00     0.017 C 
ENDBRANCH  22  25
ENDBRANCH   1  21
BRANCH   6  27
HETATM   27  N7  UNL     1      23.191   2.455  52.556  1.00  0.00    -0.382 N 
HETATM   28  C16 UNL     1      24.205   3.232  53.283  1.00  0.00     0.150 C 
BRANCH  27  29
HETATM   29  C17 UNL     1      23.729   1.162  52.213  1.00  0.00     0.152 C 
BRANCH  29  30
HETATM   30  C18 UNL     1      25.209   1.178  51.903  1.00  0.00     0.291 C 
BRANCH  30  31
HETATM   31  N8  UNL     1      25.816   0.241  52.840  1.00  0.00     0.081 N 
HETATM   32  C19 UNL     1      24.885  -0.665  53.442  1.00  0.00     0.309 C 
HETATM   33  C20 UNL     1      26.965  -0.398  52.279  1.00  0.00     0.309 C 
ENDBRANCH  30  31
ENDBRANCH  29  30
ENDBRANCH  27  29
ENDBRANCH   6  27
TORSDOF 9
ENDMDL
