MODEL 1
REMARK VINA RESULT:      -7.8      0.000      0.000
REMARK  3 active torsions:
REMARK  status: ('A' for Active; 'I' for Inactive)
REMARK    1  A    between atoms: C2_2  and  C3_3 
REMARK    2  A    between atoms: C3_3  and  C4_4 
REMARK    3  A    between atoms: C13_17  and  O2_18 
ROOT
HETATM    1  C4  UNL     1      27.137  -0.486  52.597  1.00  0.00    -0.008 C 
HETATM    2  C5  UNL     1      26.814   0.719  52.001  1.00  0.00     0.053 C 
HETATM    3  O1  UNL     1      26.135   2.048  51.864  1.00  0.00     0.000 OA
HETATM    4  C6  UNL     1      24.693   1.677  51.789  1.00  0.00     0.045 A 
HETATM    5  C7  UNL     1      23.373   1.565  51.195  1.00  0.00     0.041 A 
HETATM    6  C8  UNL     1      23.434   0.882  52.438  1.00  0.00     0.087 A 
HETATM    7  N1  UNL     1      22.399   0.102  52.852  1.00  0.00    -0.247 NA
HETATM    8  C9  UNL     1      22.648  -0.795  53.845  1.00  0.00     0.217 A 
HETATM    9 CL1  UNL     1      21.212  -1.656  54.219  1.00  0.00    -0.042 Cl
HETATM   10  N2  UNL     1      23.876  -0.506  53.961  1.00  0.00    -0.227 NA
HETATM   11  C10 UNL     1      24.819   0.261  53.535  1.00  0.00     0.149 A 
HETATM   12  C11 UNL     1      24.640   1.286  52.484  1.00  0.00     0.059 A 
HETATM   13  C12 UNL     1      25.902   1.521  52.877  1.00  0.00     0.091 A 
HETATM   14  C13 UNL     1      25.824   2.221  51.487  1.00  0.00     0.113 A 
HETATM   15  N3  UNL     1      26.262  -0.115  53.833  1.00  0.00    -0.362 N 
HETATM   16  C15 UNL     1      26.383   0.062  55.293  1.00  0.00     0.152 C 
ENDROOT
BRANCH   1  17
HETATM   17  C3  UNL     1      27.877  -1.816  52.654  1.00  0.00     0.057 C 
BRANCH  17  18
HETATM   18  C2  UNL     1      29.040  -1.649  53.483  1.00  0.00    -0.005 C 
HETATM   19  C1  UNL     1      29.773  -0.555  53.263  1.00  0.00     0.006 C 
ENDBRANCH  17  18
ENDBRANCH   1  17
BRANCH  14  20
HETATM   20  O2  UNL     1      25.977   2.910  50.279  1.00  0.00    -0.380 OA
HETATM   21  C14 UNL     1      25.806   4.229  49.939  1.00  0.00     0.202 C 
ENDBRANCH  14  20
TORSDOF 3
ENDMDL
MODEL 2
REMARK VINA RESULT:      -7.4      3.429      5.892
REMARK  3 active torsions:
REMARK  status: ('A' for Active; 'I' for Inactive)
REMARK    1  A    between atoms: C2_2  and  C3_3 
REMARK    2  A    between atoms: C3_3  and  C4_4 
REMARK    3  A    between atoms: C13_17  and  O2_18 
ROOT
HETATM    1  C4  UNL     1      22.242   1.921  50.881  1.00  0.00    -0.008 C 
HETATM    2  C5  UNL     1      22.938   1.281  51.889  1.00  0.00     0.053 C 
HETATM    3  O1  UNL     1      23.931   1.144  53.004  1.00  0.00     0.000 OA
HETATM    4  C6  UNL     1      25.234   1.380  52.318  1.00  0.00     0.045 A 
HETATM    5  C7  UNL     1      26.565   1.062  51.836  1.00  0.00     0.041 A 
HETATM    6  C8  UNL     1      26.142   2.332  51.365  1.00  0.00     0.087 A 
HETATM    7  N1  UNL     1      26.877   3.010  50.442  1.00  0.00    -0.247 NA
HETATM    8  C9  UNL     1      26.262   4.021  49.770  1.00  0.00     0.217 A 
HETATM    9 CL1  UNL     1      27.368   4.744  48.676  1.00  0.00    -0.042 Cl
HETATM   10  N2  UNL     1      25.138   3.873  50.335  1.00  0.00    -0.227 NA
HETATM   11  C10 UNL     1      24.489   3.203  51.224  1.00  0.00     0.149 A 
HETATM   12  C11 UNL     1      25.077   2.108  52.026  1.00  0.00     0.059 A 
HETATM   13  C12 UNL     1      23.864   2.229  52.586  1.00  0.00     0.091 A 
HETATM   14  C13 UNL     1      24.332   0.817  53.049  1.00  0.00     0.113 A 
HETATM   15  N3  UNL     1      22.970   3.257  51.220  1.00  0.00    -0.362 N 
HETATM   16  C15 UNL     1      22.661   4.643  51.623  1.00  0.00     0.152 C 
ENDROOT
BRANCH   1  17
HETATM   17  C3  UNL     1      21.204   1.967  49.768  1.00  0.00     0.057 C 
BRANCH  17  18
HETATM   18  C2  UNL     1      21.757   1.317  48.610  1.00  0.00    -0.005 C 
HETATM   19  C1  UNL     1      22.482   2.080  47.790  1.00  0.00     0.006 C 
ENDBRANCH  17  18
ENDBRANCH   1  17
BRANCH  14  20
HETATM   20  O2  UNL     1      24.546  -0.459  53.578  1.00  0.00    -0.380 OA
HETATM   21  C14 UNL     1      25.049  -0.889  54.782  1.00  0.00     0.202 C 
ENDBRANCH  14  20
TORSDOF 3
ENDMDL
MODEL 3
REMARK VINA RESULT:      -7.3      2.368      4.934
REMARK  3 active torsions:
REMARK  status: ('A' for Active; 'I' for Inactive)
REMARK    1  A    between atoms: C2_2  and  C3_3 
REMARK    2  A    between atoms: C3_3  and  C4_4 
REMARK    3  A    between atoms: C13_17  and  O2_18 
ROOT
HETATM    1  C4  UNL     1      23.897   3.266  52.662  1.00  0.00    -0.008 C 
HETATM    2  C5  UNL     1      24.659   2.209  53.122  1.00  0.00     0.053 C 
HETATM    3  O1  UNL     1      25.173   0.801  53.171  1.00  0.00     0.000 OA
HETATM    4  C6  UNL     1      23.955   0.016  53.522  1.00  0.00     0.045 A 
HETATM    5  C7  UNL     1      23.112  -0.852  54.323  1.00  0.00     0.041 A 
HETATM    6  C8  UNL     1      22.407  -0.354  53.197  1.00  0.00     0.087 A 
HETATM    7  N1  UNL     1      21.070  -0.569  53.064  1.00  0.00    -0.247 NA
HETATM    8  C9  UNL     1      20.392   0.217  52.185  1.00  0.00     0.217 A 
HETATM    9 CL1  UNL     1      18.737  -0.232  52.164  1.00  0.00    -0.042 Cl
HETATM   10  N2  UNL     1      21.399   0.904  51.839  1.00  0.00    -0.227 NA
HETATM   11  C10 UNL     1      22.668   1.062  51.998  1.00  0.00     0.149 A 
HETATM   12  C11 UNL     1      23.496   0.239  52.907  1.00  0.00     0.059 A 
HETATM   13  C12 UNL     1      24.429   0.983  52.293  1.00  0.00     0.091 A 
HETATM   14  C13 UNL     1      25.165   0.462  53.564  1.00  0.00     0.113 A 
HETATM   15  N3  UNL     1      23.310   2.360  51.537  1.00  0.00    -0.362 N 
HETATM   16  C15 UNL     1      23.210   2.305  50.066  1.00  0.00     0.152 C 
ENDROOT
BRANCH   1  17
HETATM   17  C3  UNL     1      23.440   4.719  52.682  1.00  0.00     0.057 C 
BRANCH  17  18
HETATM   18  C2  UNL     1      22.051   4.759  52.310  1.00  0.00    -0.005 C 
HETATM   19  C1  UNL     1      21.714   5.644  51.369  1.00  0.00     0.006 C 
ENDBRANCH  17  18
ENDBRANCH   1  17
BRANCH  14  20
HETATM   20  O2  UNL     1      26.011   0.114  54.621  1.00  0.00    -0.380 OA
HETATM   21  C14 UNL     1      27.376   0.159  54.768  1.00  0.00     0.202 C 
ENDBRANCH  14  20
TORSDOF 3
ENDMDL
MODEL 4
REMARK VINA RESULT:      -7.2      1.745      4.411
REMARK  3 active torsions:
REMARK  status: ('A' for Active; 'I' for Inactive)
REMARK    1  A    between atoms: C2_2  and  C3_3 
REMARK    2  A    between atoms: C3_3  and  C4_4 
REMARK    3  A    between atoms: C13_17  and  O2_18 
ROOT
HETATM    1  C4  UNL     1      24.082   3.519  52.256  1.00  0.00    -0.008 C 
HETATM    2  C5  UNL     1      25.310   2.892  52.161  1.00  0.00     0.053 C 
HETATM    3  O1  UNL     1      26.267   1.780  51.851  1.00  0.00     0.000 OA
HETATM    4  C6  UNL     1      25.842   0.704  52.791  1.00  0.00     0.045 A 
HETATM    5  C7  UNL     1      25.971  -0.236  53.889  1.00  0.00     0.041 A 
HETATM    6  C8  UNL     1      24.648  -0.227  53.378  1.00  0.00     0.087 A 
HETATM    7  N1  UNL     1      23.654  -0.908  54.011  1.00  0.00    -0.247 NA
HETATM    8  C9  UNL     1      22.371  -0.579  53.701  1.00  0.00     0.217 A 
HETATM    9 CL1  UNL     1      21.289  -1.563  54.596  1.00  0.00    -0.042 Cl
HETATM   10  N2  UNL     1      22.678   0.335  52.879  1.00  0.00    -0.227 NA
HETATM   11  C10 UNL     1      23.657   0.945  52.303  1.00  0.00     0.149 A 
HETATM   12  C11 UNL     1      25.082   0.639  52.552  1.00  0.00     0.059 A 
HETATM   13  C12 UNL     1      25.169   1.530  51.553  1.00  0.00     0.091 A 
HETATM   14  C13 UNL     1      26.602   1.538  52.165  1.00  0.00     0.113 A 
HETATM   15  N3  UNL     1      23.391   2.275  51.618  1.00  0.00    -0.362 N 
HETATM   16  C15 UNL     1      22.552   1.918  50.457  1.00  0.00     0.152 C 
ENDROOT
BRANCH   1  17
HETATM   17  C3  UNL     1      23.187   4.704  52.593  1.00  0.00     0.057 C 
BRANCH  17  18
HETATM   18  C2  UNL     1      23.093   5.542  51.428  1.00  0.00    -0.005 C 
HETATM   19  C1  UNL     1      24.044   6.469  51.286  1.00  0.00     0.006 C 
ENDBRANCH  17  18
ENDBRANCH   1  17
BRANCH  14  20
HETATM   20  O2  UNL     1      27.937   1.702  52.547  1.00  0.00    -0.380 OA
HETATM   21  C14 UNL     1      28.528   2.409  53.565  1.00  0.00     0.202 C 
ENDBRANCH  14  20
TORSDOF 3
ENDMDL
MODEL 5
REMARK VINA RESULT:      -7.1      3.522      6.312
REMARK  3 active torsions:
REMARK  status: ('A' for Active; 'I' for Inactive)
REMARK    1  A    between atoms: C2_2  and  C3_3 
REMARK    2  A    between atoms: C3_3  and  C4_4 
REMARK    3  A    between atoms: C13_17  and  O2_18 
ROOT
HETATM    1  C4  UNL     1      21.127   0.706  50.545  1.00  0.00    -0.008 C 
HETATM    2  C5  UNL     1      20.298   0.278  51.564  1.00  0.00     0.053 C 
HETATM    3  O1  UNL     1      19.806   0.146  52.974  1.00  0.00     0.000 OA
HETATM    4  C6  UNL     1      20.929  -0.560  53.653  1.00  0.00     0.045 A 
HETATM    5  C7  UNL     1      21.590  -1.634  54.372  1.00  0.00     0.041 A 
HETATM    6  C8  UNL     1      22.515  -0.626  53.995  1.00  0.00     0.087 A 
HETATM    7  N1  UNL     1      23.853  -0.812  54.168  1.00  0.00    -0.247 NA
HETATM    8  C9  UNL     1      24.694   0.004  53.476  1.00  0.00     0.217 A 
HETATM    9 CL1  UNL     1      26.320  -0.391  53.851  1.00  0.00    -0.042 Cl
HETATM   10  N2  UNL     1      23.776   0.647  52.884  1.00  0.00    -0.227 NA
HETATM   11  C10 UNL     1      22.501   0.784  52.762  1.00  0.00     0.149 A 
HETATM   12  C11 UNL     1      21.508  -0.032  53.493  1.00  0.00     0.059 A 
HETATM   13  C12 UNL     1      20.719   0.862  52.877  1.00  0.00     0.091 A 
HETATM   14  C13 UNL     1      19.733  -0.282  53.258  1.00  0.00     0.113 A 
HETATM   15  N3  UNL     1      21.956   1.545  51.564  1.00  0.00    -0.362 N 
HETATM   16  C15 UNL     1      22.373   2.940  51.807  1.00  0.00     0.152 C 
ENDROOT
BRANCH   1  17
HETATM   17  C3  UNL     1      21.548   0.789  49.084  1.00  0.00     0.057 C 
BRANCH  17  18
HETATM   18  C2  UNL     1      20.867   1.904  48.482  1.00  0.00    -0.005 C 
HETATM   19  C1  UNL     1      21.638   2.867  47.973  1.00  0.00     0.006 C 
ENDBRANCH  17  18
ENDBRANCH   1  17
BRANCH  14  20
HETATM   20  O2  UNL     1      18.683  -1.174  53.501  1.00  0.00    -0.380 OA
HETATM   21  C14 UNL     1      17.436  -1.308  52.942  1.00  0.00     0.202 C 
ENDBRANCH  14  20
TORSDOF 3
ENDMDL
MODEL 6
REMARK VINA RESULT:      -6.9      2.502      4.480
REMARK  3 active torsions:
REMARK  status: ('A' for Active; 'I' for Inactive)
REMARK    1  A    between atoms: C2_2  and  C3_3 
REMARK    2  A    between atoms: C3_3  and  C4_4 
REMARK    3  A    between atoms: C13_17  and  O2_18 
ROOT
HETATM    1  C4  UNL     1      25.927   2.424  50.993  1.00  0.00    -0.008 C 
HETATM    2  C5  UNL     1      24.792   2.212  51.753  1.00  0.00     0.053 C 
HETATM    3  O1  UNL     1      24.001   1.837  52.970  1.00  0.00     0.000 OA
HETATM    4  C6  UNL     1      24.337   0.397  53.154  1.00  0.00     0.045 A 
HETATM    5  C7  UNL     1      24.091  -1.031  53.235  1.00  0.00     0.041 A 
HETATM    6  C8  UNL     1      25.480  -0.748  53.306  1.00  0.00     0.087 A 
HETATM    7  N1  UNL     1      26.396  -1.754  53.271  1.00  0.00    -0.247 NA
HETATM    8  C9  UNL     1      27.682  -1.421  52.979  1.00  0.00     0.217 A 
HETATM    9 CL1  UNL     1      28.664  -2.827  53.004  1.00  0.00    -0.042 Cl
HETATM   10  N2  UNL     1      27.454  -0.184  52.828  1.00  0.00    -0.227 NA
HETATM   11  C10 UNL     1      26.548   0.731  52.880  1.00  0.00     0.149 A 
HETATM   12  C11 UNL     1      25.131   0.473  53.216  1.00  0.00     0.059 A 
HETATM   13  C12 UNL     1      25.152   1.813  53.151  1.00  0.00     0.091 A 
HETATM   14  C13 UNL     1      23.637   1.472  53.025  1.00  0.00     0.113 A 
HETATM   15  N3  UNL     1      26.821   2.074  52.222  1.00  0.00    -0.362 N 
HETATM   16  C15 UNL     1      27.882   2.671  53.056  1.00  0.00     0.152 C 
ENDROOT
BRANCH   1  17
HETATM   17  C3  UNL     1      26.646   2.830  49.714  1.00  0.00     0.057 C 
BRANCH  17  18
HETATM   18  C2  UNL     1      26.632   4.265  49.625  1.00  0.00    -0.005 C 
HETATM   19  C1  UNL     1      25.512   4.820  49.156  1.00  0.00     0.006 C 
ENDBRANCH  17  18
ENDBRANCH   1  17
BRANCH  14  20
HETATM   20  O2  UNL     1      22.245   1.399  52.902  1.00  0.00    -0.380 OA
HETATM   21  C14 UNL     1      21.259   0.995  53.768  1.00  0.00     0.202 C 
ENDBRANCH  14  20
TORSDOF 3
ENDMDL
MODEL 7
REMARK VINA RESULT:      -6.8      2.837      4.857
REMARK  3 active torsions:
REMARK  status: ('A' for Active; 'I' for Inactive)
REMARK    1  A    between atoms: C2_2  and  C3_3 
REMARK    2  A    between atoms: C3_3  and  C4_4 
REMARK    3  A    between atoms: C13_17  and  O2_18 
ROOT
HETATM    1  C4  UNL     1      23.567   2.867  50.529  1.00  0.00    -0.008 C 
HETATM    2  C5  UNL     1      22.453   2.129  50.881  1.00  0.00     0.053 C 
HETATM    3  O1  UNL     1      21.475   1.470  51.806  1.00  0.00     0.000 OA
HETATM    4  C6  UNL     1      22.312   0.455  52.506  1.00  0.00     0.045 A 
HETATM    5  C7  UNL     1      22.741  -0.871  52.912  1.00  0.00     0.041 A 
HETATM    6  C8  UNL     1      23.648   0.120  53.367  1.00  0.00     0.087 A 
HETATM    7  N1  UNL     1      24.829  -0.232  53.944  1.00  0.00    -0.247 NA
HETATM    8  C9  UNL     1      25.797   0.722  54.026  1.00  0.00     0.217 A 
HETATM    9 CL1  UNL     1      27.185   0.072  54.795  1.00  0.00    -0.042 Cl
HETATM   10  N2  UNL     1      25.121   1.626  53.451  1.00  0.00    -0.227 NA
HETATM   11  C10 UNL     1      23.981   1.909  52.920  1.00  0.00     0.149 A 
HETATM   12  C11 UNL     1      22.860   0.951  52.811  1.00  0.00     0.059 A 
HETATM   13  C12 UNL     1      22.291   2.083  52.369  1.00  0.00     0.091 A 
HETATM   14  C13 UNL     1      21.337   0.971  51.837  1.00  0.00     0.113 A 
HETATM   15  N3  UNL     1      23.869   3.139  52.034  1.00  0.00    -0.362 N 
HETATM   16  C15 UNL     1      24.040   4.269  52.968  1.00  0.00     0.152 C 
ENDROOT
BRANCH   1  17
HETATM   17  C3  UNL     1      24.504   3.509  49.514  1.00  0.00     0.057 C 
BRANCH  17  18
HETATM   18  C2  UNL     1      25.851   3.382  50.002  1.00  0.00    -0.005 C 
HETATM   19  C1  UNL     1      26.812   3.901  49.234  1.00  0.00     0.006 C 
ENDBRANCH  17  18
ENDBRANCH   1  17
BRANCH  14  20
HETATM   20  O2  UNL     1      20.355   0.151  51.272  1.00  0.00    -0.380 OA
HETATM   21  C14 UNL     1      19.021  -0.019  51.548  1.00  0.00     0.202 C 
ENDBRANCH  14  20
TORSDOF 3
ENDMDL
MODEL 8
REMARK VINA RESULT:      -6.8      2.820      4.121
REMARK  3 active torsions:
REMARK  status: ('A' for Active; 'I' for Inactive)
REMARK    1  A    between atoms: C2_2  and  C3_3 
REMARK    2  A    between atoms: C3_3  and  C4_4 
REMARK    3  A    between atoms: C13_17  and  O2_18 
ROOT
HETATM    1  C4  UNL     1      26.197   0.260  54.162  1.00  0.00    -0.008 C 
HETATM    2  C5  UNL     1      24.961  -0.358  54.135  1.00  0.00     0.053 C 
HETATM    3  O1  UNL     1      23.662  -0.811  53.539  1.00  0.00     0.000 OA
HETATM    4  C6  UNL     1      22.975   0.474  53.225  1.00  0.00     0.045 A 
HETATM    5  C7  UNL     1      21.943   1.491  53.311  1.00  0.00     0.041 A 
HETATM    6  C8  UNL     1      23.024   1.927  52.501  1.00  0.00     0.087 A 
HETATM    7  N1  UNL     1      23.082   3.211  52.052  1.00  0.00    -0.247 NA
HETATM    8  C9  UNL     1      24.283   3.664  51.602  1.00  0.00     0.217 A 
HETATM    9 CL1  UNL     1      24.127   5.289  51.075  1.00  0.00    -0.042 Cl
HETATM   10  N2  UNL     1      24.911   2.588  51.834  1.00  0.00    -0.227 NA
HETATM   11  C10 UNL     1      24.799   1.379  52.263  1.00  0.00     0.149 A 
HETATM   12  C11 UNL     1      23.533   0.786  52.745  1.00  0.00     0.059 A 
HETATM   13  C12 UNL     1      24.352  -0.276  52.769  1.00  0.00     0.091 A 
HETATM   14  C13 UNL     1      23.177  -0.711  53.694  1.00  0.00     0.113 A 
HETATM   15  N3  UNL     1      26.057   0.618  52.651  1.00  0.00    -0.362 N 
HETATM   16  C15 UNL     1      26.755   0.405  51.368  1.00  0.00     0.152 C 
ENDROOT
BRANCH   1  17
HETATM   17  C3  UNL     1      27.493   0.671  54.848  1.00  0.00     0.057 C 
BRANCH  17  18
HETATM   18  C2  UNL     1      28.525  -0.247  54.446  1.00  0.00    -0.005 C 
HETATM   19  C1  UNL     1      29.545   0.272  53.758  1.00  0.00     0.006 C 
ENDBRANCH  17  18
ENDBRANCH   1  17
BRANCH  14  20
HETATM   20  O2  UNL     1      22.240  -1.303  54.548  1.00  0.00    -0.380 OA
HETATM   21  C14 UNL     1      20.958  -1.751  54.345  1.00  0.00     0.202 C 
ENDBRANCH  14  20
TORSDOF 3
ENDMDL
MODEL 9
REMARK VINA RESULT:      -6.7      2.327      3.548
REMARK  3 active torsions:
REMARK  status: ('A' for Active; 'I' for Inactive)
REMARK    1  A    between atoms: C2_2  and  C3_3 
REMARK    2  A    between atoms: C3_3  and  C4_4 
REMARK    3  A    between atoms: C13_17  and  O2_18 
ROOT
HETATM    1  C4  UNL     1      25.302   2.697  50.917  1.00  0.00    -0.008 C 
HETATM    2  C5  UNL     1      24.310   2.808  49.962  1.00  0.00     0.053 C 
HETATM    3  O1  UNL     1      22.918   3.003  49.440  1.00  0.00     0.000 OA
HETATM    4  C6  UNL     1      22.187   1.828  49.995  1.00  0.00     0.045 A 
HETATM    5  C7  UNL     1      21.431   0.590  49.962  1.00  0.00     0.041 A 
HETATM    6  C8  UNL     1      21.784   0.937  51.291  1.00  0.00     0.087 A 
HETATM    7  N1  UNL     1      21.558   0.073  52.318  1.00  0.00    -0.247 NA
HETATM    8  C9  UNL     1      22.228   0.292  53.482  1.00  0.00     0.217 A 
HETATM    9 CL1  UNL     1      21.786  -0.897  54.636  1.00  0.00    -0.042 Cl
HETATM   10  N2  UNL     1      22.863   1.307  53.065  1.00  0.00    -0.227 NA
HETATM   11  C10 UNL     1      23.035   2.099  52.063  1.00  0.00     0.149 A 
HETATM   12  C11 UNL     1      22.332   1.961  50.769  1.00  0.00     0.059 A 
HETATM   13  C12 UNL     1      22.989   3.118  50.596  1.00  0.00     0.091 A 
HETATM   14  C13 UNL     1      22.632   2.689  49.142  1.00  0.00     0.113 A 
HETATM   15  N3  UNL     1      24.262   2.996  52.040  1.00  0.00    -0.362 N 
HETATM   16  C15 UNL     1      24.021   3.960  53.131  1.00  0.00     0.152 C 
ENDROOT
BRANCH   1  17
HETATM   17  C3  UNL     1      26.747   2.497  51.355  1.00  0.00     0.057 C 
BRANCH  17  18
HETATM   18  C2  UNL     1      26.774   1.469  52.360  1.00  0.00    -0.005 C 
HETATM   19  C1  UNL     1      26.499   0.229  51.948  1.00  0.00     0.006 C 
ENDBRANCH  17  18
ENDBRANCH   1  17
BRANCH  14  20
HETATM   20  O2  UNL     1      22.418   2.503  47.772  1.00  0.00    -0.380 OA
HETATM   21  C14 UNL     1      21.913   3.325  46.795  1.00  0.00     0.202 C 
ENDBRANCH  14  20
TORSDOF 3
ENDMDL
