MODEL 1
REMARK VINA RESULT:      -8.8      0.000      0.000
REMARK  3 active torsions:
REMARK  status: ('A' for Active; 'I' for Inactive)
REMARK    1  A    between atoms: C5_9  and  N3_10 
REMARK    2  A    between atoms: N3_10  and  C6_11 
REMARK    3  A    between atoms: C6_11  and  C7_12 
ROOT
HETATM    1 BR1  UNL     1      22.733  -0.661  53.611  1.00  0.00    -0.052 Br
HETATM    2  C1  UNL     1      24.541  -0.311  53.122  1.00  0.00     0.026 C 
HETATM    3  C2  UNL     1      24.785   0.879  52.600  1.00  0.00     0.100 C 
HETATM    4  O1  UNL     1      23.647   1.635  52.519  1.00  0.00    -0.288 OA
HETATM    5  C3  UNL     1      23.571   2.965  52.062  1.00  0.00     0.202 A 
HETATM    6  N1  UNL     1      22.353   3.466  52.360  1.00  0.00    -0.215 NA
HETATM    7  C4  UNL     1      22.139   4.756  51.973  1.00  0.00     0.238 A 
HETATM    8  N2  UNL     1      23.069   5.488  51.338  1.00  0.00    -0.222 NA
HETATM    9  C5  UNL     1      24.282   5.033  51.025  1.00  0.00     0.156 A 
HETATM   10  C13 UNL     1      24.539   3.729  51.399  1.00  0.00     0.128 A 
HETATM   11  N4  UNL     1      25.851   3.328  51.013  1.00  0.00    -0.379 N 
HETATM   12  C14 UNL     1      26.769   2.454  51.727  1.00  0.00     0.162 C 
HETATM   13  C15 UNL     1      26.145   1.215  52.203  1.00  0.00     0.005 C 
HETATM   14  C16 UNL     1      27.000   0.217  52.282  1.00  0.00    -0.018 C 
HETATM   15  C17 UNL     1      26.945  -0.533  53.370  1.00  0.00    -0.009 C 
HETATM   16  C18 UNL     1      25.659  -1.295  53.298  1.00  0.00     0.077 C 
HETATM   17  H10 UNL     1      26.060   3.786  50.076  1.00  0.00     0.160 HD
ENDROOT
BRANCH   9  18
HETATM   18  N3  UNL     1      25.221   5.871  50.374  1.00  0.00    -0.369 N 
HETATM   19  H2  UNL     1      25.870   6.562  50.778  1.00  0.00     0.161 HD
BRANCH  18  20
HETATM   20  C6  UNL     1      25.416   5.888  48.941  1.00  0.00     0.160 C 
BRANCH  20  21
HETATM   21  C7  UNL     1      26.836   5.952  48.523  1.00  0.00    -0.041 A 
HETATM   22  C8  UNL     1      27.862   5.033  48.600  1.00  0.00     0.009 A 
HETATM   23  C9  UNL     1      29.113   5.332  48.158  1.00  0.00     0.001 A 
HETATM   24  C10 UNL     1      29.448   6.553  47.609  1.00  0.00     0.000 A 
HETATM   25  C11 UNL     1      28.444   7.481  47.522  1.00  0.00     0.001 A 
HETATM   26  C12 UNL     1      27.175   7.174  47.972  1.00  0.00     0.009 A 
ENDBRANCH  20  21
ENDBRANCH  18  20
ENDBRANCH   9  18
TORSDOF 3
ENDMDL
MODEL 2
REMARK VINA RESULT:      -8.7      2.155      3.746
REMARK  3 active torsions:
REMARK  status: ('A' for Active; 'I' for Inactive)
REMARK    1  A    between atoms: C5_9  and  N3_10 
REMARK    2  A    between atoms: N3_10  and  C6_11 
REMARK    3  A    between atoms: C6_11  and  C7_12 
ROOT
HETATM    1 BR1  UNL     1      22.313  -1.502  54.922  1.00  0.00    -0.052 Br
HETATM    2  C1  UNL     1      21.558  -0.259  53.691  1.00  0.00     0.026 C 
HETATM    3  C2  UNL     1      22.411   0.535  53.065  1.00  0.00     0.100 C 
HETATM    4  O1  UNL     1      23.701   0.287  53.448  1.00  0.00    -0.288 OA
HETATM    5  C3  UNL     1      24.850   0.918  52.934  1.00  0.00     0.202 A 
HETATM    6  N1  UNL     1      25.947   0.251  53.352  1.00  0.00    -0.215 NA
HETATM    7  C4  UNL     1      27.139   0.756  52.926  1.00  0.00     0.238 A 
HETATM    8  N2  UNL     1      27.230   1.843  52.142  1.00  0.00    -0.222 NA
HETATM    9  C5  UNL     1      26.174   2.530  51.707  1.00  0.00     0.156 A 
HETATM   10  C13 UNL     1      24.945   2.052  52.117  1.00  0.00     0.128 A 
HETATM   11  N4  UNL     1      23.881   2.856  51.615  1.00  0.00    -0.379 N 
HETATM   12  C14 UNL     1      22.564   2.427  51.174  1.00  0.00     0.162 C 
HETATM   13  C15 UNL     1      21.904   1.509  52.109  1.00  0.00     0.005 C 
HETATM   14  C16 UNL     1      20.591   1.597  52.062  1.00  0.00    -0.018 C 
HETATM   15  C17 UNL     1      19.916   0.460  52.054  1.00  0.00    -0.009 C 
HETATM   16  C18 UNL     1      20.089  -0.147  53.411  1.00  0.00     0.077 C 
HETATM   17  H10 UNL     1      24.217   3.865  51.619  1.00  0.00     0.160 HD
ENDROOT
BRANCH   9  18
HETATM   18  N3  UNL     1      26.343   3.656  50.863  1.00  0.00    -0.369 N 
HETATM   19  H2  UNL     1      26.222   4.657  51.077  1.00  0.00     0.161 HD
BRANCH  18  20
HETATM   20  C6  UNL     1      26.728   3.560  49.472  1.00  0.00     0.160 C 
BRANCH  20  21
HETATM   21  C7  UNL     1      27.188   4.839  48.881  1.00  0.00    -0.041 A 
HETATM   22  C8  UNL     1      28.395   5.218  48.332  1.00  0.00     0.009 A 
HETATM   23  C9  UNL     1      28.591   6.480  47.860  1.00  0.00     0.001 A 
HETATM   24  C10 UNL     1      27.618   7.458  47.893  1.00  0.00     0.000 A 
HETATM   25  C11 UNL     1      26.410   7.102  48.434  1.00  0.00     0.001 A 
HETATM   26  C12 UNL     1      26.215   5.820  48.912  1.00  0.00     0.009 A 
ENDBRANCH  20  21
ENDBRANCH  18  20
ENDBRANCH   9  18
TORSDOF 3
ENDMDL
MODEL 3
REMARK VINA RESULT:      -8.6      1.887      2.632
REMARK  3 active torsions:
REMARK  status: ('A' for Active; 'I' for Inactive)
REMARK    1  A    between atoms: C5_9  and  N3_10 
REMARK    2  A    between atoms: N3_10  and  C6_11 
REMARK    3  A    between atoms: C6_11  and  C7_12 
ROOT
HETATM    1 BR1  UNL     1      19.326  -0.021  52.604  1.00  0.00    -0.052 Br
HETATM    2  C1  UNL     1      21.070  -0.345  53.298  1.00  0.00     0.026 C 
HETATM    3  C2  UNL     1      22.025   0.471  52.884  1.00  0.00     0.100 C 
HETATM    4  O1  UNL     1      21.541   1.409  52.014  1.00  0.00    -0.288 OA
HETATM    5  C3  UNL     1      22.282   2.456  51.433  1.00  0.00     0.202 A 
HETATM    6  N1  UNL     1      21.434   3.324  50.840  1.00  0.00    -0.215 NA
HETATM    7  C4  UNL     1      22.020   4.395  50.233  1.00  0.00     0.238 A 
HETATM    8  N2  UNL     1      23.349   4.585  50.219  1.00  0.00    -0.222 NA
HETATM    9  C5  UNL     1      24.221   3.755  50.791  1.00  0.00     0.156 A 
HETATM   10  C13 UNL     1      23.668   2.655  51.417  1.00  0.00     0.128 A 
HETATM   11  N4  UNL     1      24.674   1.821  51.986  1.00  0.00    -0.379 N 
HETATM   12  C14 UNL     1      24.616   1.063  53.224  1.00  0.00     0.162 C 
HETATM   13  C15 UNL     1      23.383   0.283  53.375  1.00  0.00     0.005 C 
HETATM   14  C16 UNL     1      23.556  -0.802  54.101  1.00  0.00    -0.018 C 
HETATM   15  C17 UNL     1      22.633  -1.067  55.010  1.00  0.00    -0.009 C 
HETATM   16  C18 UNL     1      21.395  -1.449  54.261  1.00  0.00     0.077 C 
HETATM   17  H10 UNL     1      25.511   1.840  51.328  1.00  0.00     0.160 HD
ENDROOT
BRANCH   9  18
HETATM   18  N3  UNL     1      25.611   4.031  50.756  1.00  0.00    -0.369 N 
HETATM   19  H2  UNL     1      26.221   4.407  51.497  1.00  0.00     0.161 HD
BRANCH  18  20
HETATM   20  C6  UNL     1      26.436   3.821  49.587  1.00  0.00     0.160 C 
BRANCH  20  21
HETATM   21  C7  UNL     1      26.876   5.072  48.924  1.00  0.00    -0.041 A 
HETATM   22  C8  UNL     1      26.199   6.227  48.595  1.00  0.00     0.009 A 
HETATM   23  C9  UNL     1      26.824   7.256  47.959  1.00  0.00     0.001 A 
HETATM   24  C10 UNL     1      28.157   7.224  47.603  1.00  0.00     0.000 A 
HETATM   25  C11 UNL     1      28.849   6.086  47.921  1.00  0.00     0.001 A 
HETATM   26  C12 UNL     1      28.211   5.044  48.566  1.00  0.00     0.009 A 
ENDBRANCH  20  21
ENDBRANCH  18  20
ENDBRANCH   9  18
TORSDOF 3
ENDMDL
MODEL 4
REMARK VINA RESULT:      -8.4      2.701      6.806
REMARK  3 active torsions:
REMARK  status: ('A' for Active; 'I' for Inactive)
REMARK    1  A    between atoms: C5_9  and  N3_10 
REMARK    2  A    between atoms: N3_10  and  C6_11 
REMARK    3  A    between atoms: C6_11  and  C7_12 
ROOT
HETATM    1 BR1  UNL     1      23.201   8.374  49.401  1.00  0.00    -0.052 Br
HETATM    2  C1  UNL     1      24.898   7.686  48.874  1.00  0.00     0.026 C 
HETATM    3  C2  UNL     1      25.210   6.486  49.335  1.00  0.00     0.100 C 
HETATM    4  O1  UNL     1      24.213   5.975  50.120  1.00  0.00    -0.288 OA
HETATM    5  C3  UNL     1      24.207   4.700  50.719  1.00  0.00     0.202 A 
HETATM    6  N1  UNL     1      22.971   4.442  51.200  1.00  0.00    -0.215 NA
HETATM    7  C4  UNL     1      22.820   3.233  51.810  1.00  0.00     0.238 A 
HETATM    8  N2  UNL     1      23.824   2.349  51.931  1.00  0.00    -0.222 NA
HETATM    9  C5  UNL     1      25.056   2.562  51.472  1.00  0.00     0.156 A 
HETATM   10  C13 UNL     1      25.253   3.778  50.847  1.00  0.00     0.128 A 
HETATM   11  N4  UNL     1      26.599   3.921  50.402  1.00  0.00    -0.379 N 
HETATM   12  C14 UNL     1      27.081   4.574  49.196  1.00  0.00     0.162 C 
HETATM   13  C15 UNL     1      26.492   5.898  48.972  1.00  0.00     0.005 C 
HETATM   14  C16 UNL     1      27.295   6.704  48.310  1.00  0.00    -0.018 C 
HETATM   15  C17 UNL     1      26.756   7.418  47.336  1.00  0.00    -0.009 C 
HETATM   16  C18 UNL     1      25.860   8.422  47.990  1.00  0.00     0.077 C 
HETATM   17  H10 UNL     1      27.224   3.457  51.129  1.00  0.00     0.160 HD
ENDROOT
BRANCH   9  18
HETATM   18  N3  UNL     1      26.062   1.574  51.615  1.00  0.00    -0.369 N 
HETATM   19  H2  UNL     1      26.957   1.475  51.114  1.00  0.00     0.161 HD
BRANCH  18  20
HETATM   20  C6  UNL     1      25.969   0.470  52.546  1.00  0.00     0.160 C 
BRANCH  20  21
HETATM   21  C7  UNL     1      27.271  -0.160  52.870  1.00  0.00    -0.041 A 
HETATM   22  C8  UNL     1      27.698  -1.470  52.819  1.00  0.00     0.009 A 
HETATM   23  C9  UNL     1      28.961  -1.816  53.192  1.00  0.00     0.001 A 
HETATM   24  C10 UNL     1      29.893  -0.902  53.639  1.00  0.00     0.000 A 
HETATM   25  C11 UNL     1      29.490   0.405  53.697  1.00  0.00     0.001 A 
HETATM   26  C12 UNL     1      28.207   0.753  53.318  1.00  0.00     0.009 A 
ENDBRANCH  20  21
ENDBRANCH  18  20
ENDBRANCH   9  18
TORSDOF 3
ENDMDL
MODEL 5
REMARK VINA RESULT:      -8.3      6.303     10.351
REMARK  3 active torsions:
REMARK  status: ('A' for Active; 'I' for Inactive)
REMARK    1  A    between atoms: C5_9  and  N3_10 
REMARK    2  A    between atoms: N3_10  and  C6_11 
REMARK    3  A    between atoms: C6_11  and  C7_12 
ROOT
HETATM    1 BR1  UNL     1      23.995   2.095  51.321  1.00  0.00    -0.052 Br
HETATM    2  C1  UNL     1      24.009   0.856  52.769  1.00  0.00     0.026 C 
HETATM    3  C2  UNL     1      22.854   0.280  53.058  1.00  0.00     0.100 C 
HETATM    4  O1  UNL     1      21.858   0.711  52.225  1.00  0.00    -0.288 OA
HETATM    5  C3  UNL     1      20.525   0.256  52.230  1.00  0.00     0.202 A 
HETATM    6  N1  UNL     1      19.899   0.707  51.122  1.00  0.00    -0.215 NA
HETATM    7  C4  UNL     1      18.592   0.338  50.996  1.00  0.00     0.238 A 
HETATM    8  N2  UNL     1      17.959  -0.421  51.905  1.00  0.00    -0.222 NA
HETATM    9  C5  UNL     1      18.539  -0.887  53.011  1.00  0.00     0.156 A 
HETATM   10  C13 UNL     1      19.864  -0.535  53.178  1.00  0.00     0.128 A 
HETATM   11  N4  UNL     1      20.393  -1.066  54.391  1.00  0.00    -0.379 N 
HETATM   12  C14 UNL     1      21.734  -1.568  54.640  1.00  0.00     0.162 C 
HETATM   13  C15 UNL     1      22.792  -0.678  54.152  1.00  0.00     0.005 C 
HETATM   14  C16 UNL     1      23.901  -0.776  54.855  1.00  0.00    -0.018 C 
HETATM   15  C17 UNL     1      25.036  -0.833  54.179  1.00  0.00    -0.009 C 
HETATM   16  C18 UNL     1      25.234   0.519  53.567  1.00  0.00     0.077 C 
HETATM   17  H10 UNL     1      19.616  -1.030  55.118  1.00  0.00     0.160 HD
ENDROOT
BRANCH   9  18
HETATM   18  N3  UNL     1      17.816  -1.703  53.917  1.00  0.00    -0.369 N 
HETATM   19  H2  UNL     1      17.219  -1.427  54.711  1.00  0.00     0.161 HD
BRANCH  18  20
HETATM   20  C6  UNL     1      17.818  -3.148  53.864  1.00  0.00     0.160 C 
BRANCH  20  21
HETATM   21  C7  UNL     1      16.548  -3.738  53.378  1.00  0.00    -0.041 A 
HETATM   22  C8  UNL     1      15.575  -3.258  52.527  1.00  0.00     0.009 A 
HETATM   23  C9  UNL     1      14.465  -3.990  52.238  1.00  0.00     0.001 A 
HETATM   24  C10 UNL     1      14.231  -5.245  52.763  1.00  0.00     0.000 A 
HETATM   25  C11 UNL     1      15.184  -5.741  53.611  1.00  0.00     0.001 A 
HETATM   26  C12 UNL     1      16.310  -4.995  53.903  1.00  0.00     0.009 A 
ENDBRANCH  20  21
ENDBRANCH  18  20
ENDBRANCH   9  18
TORSDOF 3
ENDMDL
MODEL 6
REMARK VINA RESULT:      -8.2      3.661      6.173
REMARK  3 active torsions:
REMARK  status: ('A' for Active; 'I' for Inactive)
REMARK    1  A    between atoms: C5_9  and  N3_10 
REMARK    2  A    between atoms: N3_10  and  C6_11 
REMARK    3  A    between atoms: C6_11  and  C7_12 
ROOT
HETATM    1 BR1  UNL     1      18.672   1.648  50.049  1.00  0.00    -0.052 Br
HETATM    2  C1  UNL     1      19.156   0.498  51.490  1.00  0.00     0.026 C 
HETATM    3  C2  UNL     1      20.361   0.680  52.003  1.00  0.00     0.100 C 
HETATM    4  O1  UNL     1      21.029   1.691  51.369  1.00  0.00    -0.288 OA
HETATM    5  C3  UNL     1      22.310   2.172  51.705  1.00  0.00     0.202 A 
HETATM    6  N1  UNL     1      22.538   3.325  51.040  1.00  0.00    -0.215 NA
HETATM    7  C4  UNL     1      23.750   3.906  51.274  1.00  0.00     0.238 A 
HETATM    8  N2  UNL     1      24.661   3.377  52.106  1.00  0.00    -0.222 NA
HETATM    9  C5  UNL     1      24.476   2.243  52.781  1.00  0.00     0.156 A 
HETATM   10  C13 UNL     1      23.261   1.621  52.572  1.00  0.00     0.128 A 
HETATM   11  N4  UNL     1      23.160   0.414  53.323  1.00  0.00    -0.379 N 
HETATM   12  C14 UNL     1      21.984  -0.145  53.969  1.00  0.00     0.162 C 
HETATM   13  C15 UNL     1      20.797  -0.164  53.107  1.00  0.00     0.005 C 
HETATM   14  C16 UNL     1      19.971  -1.145  53.405  1.00  0.00    -0.018 C 
HETATM   15  C17 UNL     1      18.683  -0.849  53.453  1.00  0.00    -0.009 C 
HETATM   16  C18 UNL     1      18.258  -0.567  52.046  1.00  0.00     0.077 C 
HETATM   17  H10 UNL     1      24.125  -0.035  53.332  1.00  0.00     0.160 HD
ENDROOT
BRANCH   9  18
HETATM   18  N3  UNL     1      25.475   1.755  53.661  1.00  0.00    -0.369 N 
HETATM   19  H2  UNL     1      25.369   1.253  54.555  1.00  0.00     0.161 HD
BRANCH  18  20
HETATM   20  C6  UNL     1      26.893   1.911  53.423  1.00  0.00     0.160 C 
BRANCH  20  21
HETATM   21  C7  UNL     1      27.641   0.633  53.368  1.00  0.00    -0.041 A 
HETATM   22  C8  UNL     1      27.234  -0.665  53.139  1.00  0.00     0.009 A 
HETATM   23  C9  UNL     1      28.121  -1.697  53.155  1.00  0.00     0.001 A 
HETATM   24  C10 UNL     1      29.469  -1.530  53.396  1.00  0.00     0.000 A 
HETATM   25  C11 UNL     1      29.897  -0.249  53.624  1.00  0.00     0.001 A 
HETATM   26  C12 UNL     1      28.993   0.797  53.608  1.00  0.00     0.009 A 
ENDBRANCH  20  21
ENDBRANCH  18  20
ENDBRANCH   9  18
TORSDOF 3
ENDMDL
MODEL 7
REMARK VINA RESULT:      -7.7      3.365      7.261
REMARK  3 active torsions:
REMARK  status: ('A' for Active; 'I' for Inactive)
REMARK    1  A    between atoms: C5_9  and  N3_10 
REMARK    2  A    between atoms: N3_10  and  C6_11 
REMARK    3  A    between atoms: C6_11  and  C7_12 
ROOT
HETATM    1 BR1  UNL     1      25.012   8.092  47.938  1.00  0.00    -0.052 Br
HETATM    2  C1  UNL     1      25.828   6.497  48.587  1.00  0.00     0.026 C 
HETATM    3  C2  UNL     1      25.009   5.570  49.054  1.00  0.00     0.100 C 
HETATM    4  O1  UNL     1      23.703   5.965  48.969  1.00  0.00    -0.288 OA
HETATM    5  C3  UNL     1      22.582   5.193  49.330  1.00  0.00     0.202 A 
HETATM    6  N1  UNL     1      21.462   5.797  48.877  1.00  0.00    -0.215 NA
HETATM    7  C4  UNL     1      20.294   5.153  49.158  1.00  0.00     0.238 A 
HETATM    8  N2  UNL     1      20.246   3.996  49.836  1.00  0.00    -0.222 NA
HETATM    9  C5  UNL     1      21.325   3.366  50.300  1.00  0.00     0.156 A 
HETATM   10  C13 UNL     1      22.531   3.986  50.039  1.00  0.00     0.128 A 
HETATM   11  N4  UNL     1      23.623   3.248  50.582  1.00  0.00    -0.379 N 
HETATM   12  C14 UNL     1      24.953   3.073  50.024  1.00  0.00     0.162 C 
HETATM   13  C15 UNL     1      25.565   4.325  49.566  1.00  0.00     0.005 C 
HETATM   14  C16 UNL     1      26.879   4.303  49.640  1.00  0.00    -0.018 C 
HETATM   15  C17 UNL     1      27.545   4.781  48.602  1.00  0.00    -0.009 C 
HETATM   16  C18 UNL     1      27.309   6.259  48.590  1.00  0.00     0.077 C 
HETATM   17  H10 UNL     1      23.295   2.831  51.505  1.00  0.00     0.160 HD
ENDROOT
BRANCH   9  18
HETATM   18  N3  UNL     1      21.201   2.134  50.990  1.00  0.00    -0.369 N 
HETATM   19  H2  UNL     1      21.474   1.186  50.688  1.00  0.00     0.161 HD
BRANCH  18  20
HETATM   20  C6  UNL     1      20.623   2.013  52.310  1.00  0.00     0.160 C 
BRANCH  20  21
HETATM   21  C7  UNL     1      21.236   0.954  53.146  1.00  0.00    -0.041 A 
HETATM   22  C8  UNL     1      20.774   0.265  54.247  1.00  0.00     0.009 A 
HETATM   23  C9  UNL     1      21.542  -0.669  54.870  1.00  0.00     0.001 A 
HETATM   24  C10 UNL     1      22.818  -0.994  54.458  1.00  0.00     0.000 A 
HETATM   25  C11 UNL     1      23.298  -0.323  53.365  1.00  0.00     0.001 A 
HETATM   26  C12 UNL     1      22.515   0.626  52.735  1.00  0.00     0.009 A 
ENDBRANCH  20  21
ENDBRANCH  18  20
ENDBRANCH   9  18
TORSDOF 3
ENDMDL
MODEL 8
REMARK VINA RESULT:      -7.6      2.723      4.306
REMARK  3 active torsions:
REMARK  status: ('A' for Active; 'I' for Inactive)
REMARK    1  A    between atoms: C5_9  and  N3_10 
REMARK    2  A    between atoms: N3_10  and  C6_11 
REMARK    3  A    between atoms: C6_11  and  C7_12 
ROOT
HETATM    1 BR1  UNL     1      26.845  -0.453  52.686  1.00  0.00    -0.052 Br
HETATM    2  C1  UNL     1      25.024   0.076  52.876  1.00  0.00     0.026 C 
HETATM    3  C2  UNL     1      24.673   1.194  52.263  1.00  0.00     0.100 C 
HETATM    4  O1  UNL     1      25.729   1.753  51.597  1.00  0.00    -0.288 OA
HETATM    5  C3  UNL     1      25.680   2.915  50.802  1.00  0.00     0.202 A 
HETATM    6  N1  UNL     1      26.832   3.022  50.104  1.00  0.00    -0.215 NA
HETATM    7  C4  UNL     1      26.921   4.110  49.286  1.00  0.00     0.238 A 
HETATM    8  N2  UNL     1      25.939   5.018  49.172  1.00  0.00    -0.222 NA
HETATM    9  C5  UNL     1      24.788   4.949  49.841  1.00  0.00     0.156 A 
HETATM   10  C13 UNL     1      24.656   3.863  50.683  1.00  0.00     0.128 A 
HETATM   11  N4  UNL     1      23.403   3.881  51.362  1.00  0.00    -0.379 N 
HETATM   12  C14 UNL     1      22.562   2.752  51.724  1.00  0.00     0.162 C 
HETATM   13  C15 UNL     1      23.296   1.657  52.366  1.00  0.00     0.005 C 
HETATM   14  C16 UNL     1      22.548   0.966  53.199  1.00  0.00    -0.018 C 
HETATM   15  C17 UNL     1      22.650  -0.351  53.143  1.00  0.00    -0.009 C 
HETATM   16  C18 UNL     1      24.009  -0.696  53.666  1.00  0.00     0.077 C 
HETATM   17  H10 UNL     1      23.174   4.898  51.576  1.00  0.00     0.160 HD
ENDROOT
BRANCH   9  18
HETATM   18  N3  UNL     1      23.785   5.933  49.654  1.00  0.00    -0.369 N 
HETATM   19  H2  UNL     1      23.194   6.405  50.355  1.00  0.00     0.161 HD
BRANCH  18  20
HETATM   20  C6  UNL     1      23.406   6.449  48.358  1.00  0.00     0.160 C 
BRANCH  20  21
HETATM   21  C7  UNL     1      22.764   5.450  47.471  1.00  0.00    -0.041 A 
HETATM   22  C8  UNL     1      22.378   4.143  47.683  1.00  0.00     0.009 A 
HETATM   23  C9  UNL     1      21.814   3.403  46.691  1.00  0.00     0.001 A 
HETATM   24  C10 UNL     1      21.588   3.891  45.420  1.00  0.00     0.000 A 
HETATM   25  C11 UNL     1      21.963   5.188  45.187  1.00  0.00     0.001 A 
HETATM   26  C12 UNL     1      22.536   5.936  46.197  1.00  0.00     0.009 A 
ENDBRANCH  20  21
ENDBRANCH  18  20
ENDBRANCH   9  18
TORSDOF 3
ENDMDL
MODEL 9
REMARK VINA RESULT:      -7.4      3.017      6.792
REMARK  3 active torsions:
REMARK  status: ('A' for Active; 'I' for Inactive)
REMARK    1  A    between atoms: C5_9  and  N3_10 
REMARK    2  A    between atoms: N3_10  and  C6_11 
REMARK    3  A    between atoms: C6_11  and  C7_12 
ROOT
HETATM    1 BR1  UNL     1      21.440   5.981  46.611  1.00  0.00    -0.052 Br
HETATM    2  C1  UNL     1      23.131   6.636  47.195  1.00  0.00     0.026 C 
HETATM    3  C2  UNL     1      23.723   5.949  48.158  1.00  0.00     0.100 C 
HETATM    4  O1  UNL     1      22.969   4.875  48.544  1.00  0.00    -0.288 OA
HETATM    5  C3  UNL     1      23.335   3.913  49.506  1.00  0.00     0.202 A 
HETATM    6  N1  UNL     1      22.474   2.874  49.443  1.00  0.00    -0.215 NA
HETATM    7  C4  UNL     1      22.712   1.862  50.325  1.00  0.00     0.238 A 
HETATM    8  N2  UNL     1      23.729   1.884  51.201  1.00  0.00    -0.222 NA
HETATM    9  C5  UNL     1      24.600   2.888  51.296  1.00  0.00     0.156 A 
HETATM   10  C13 UNL     1      24.395   3.935  50.421  1.00  0.00     0.128 A 
HETATM   11  N4  UNL     1      25.364   4.964  50.604  1.00  0.00    -0.379 N 
HETATM   12  C14 UNL     1      25.981   5.807  49.593  1.00  0.00     0.162 C 
HETATM   13  C15 UNL     1      25.019   6.392  48.654  1.00  0.00     0.005 C 
HETATM   14  C16 UNL     1      25.422   7.548  48.171  1.00  0.00    -0.018 C 
HETATM   15  C17 UNL     1      25.269   7.740  46.871  1.00  0.00    -0.009 C 
HETATM   16  C18 UNL     1      23.796   7.855  46.629  1.00  0.00     0.077 C 
HETATM   17  H10 UNL     1      25.571   5.022  51.647  1.00  0.00     0.160 HD
ENDROOT
BRANCH   9  18
HETATM   18  N3  UNL     1      25.665   2.834  52.230  1.00  0.00    -0.369 N 
HETATM   19  H2  UNL     1      25.651   3.003  53.247  1.00  0.00     0.161 HD
BRANCH  18  20
HETATM   20  C6  UNL     1      27.030   2.523  51.867  1.00  0.00     0.160 C 
BRANCH  20  21
HETATM   21  C7  UNL     1      27.567   1.304  52.518  1.00  0.00    -0.041 A 
HETATM   22  C8  UNL     1      27.182  -0.019  52.457  1.00  0.00     0.009 A 
HETATM   23  C9  UNL     1      27.831  -0.977  53.173  1.00  0.00     0.001 A 
HETATM   24  C10 UNL     1      28.903  -0.706  53.998  1.00  0.00     0.000 A 
HETATM   25  C11 UNL     1      29.303   0.602  54.074  1.00  0.00     0.001 A 
HETATM   26  C12 UNL     1      28.641   1.572  53.346  1.00  0.00     0.009 A 
ENDBRANCH  20  21
ENDBRANCH  18  20
ENDBRANCH   9  18
TORSDOF 3
ENDMDL
