MODEL 1
REMARK VINA RESULT:      -7.5      0.000      0.000
REMARK  2 active torsions:
REMARK  status: ('A' for Active; 'I' for Inactive)
REMARK    1  A    between atoms: C2_2  and  C3_3 
REMARK       I    between atoms: C3_3  and  N1_5 
REMARK    2  A    between atoms: C14_18  and  S1_19 
ROOT
HETATM    1  C3  UNL     1      27.618   0.305  54.044  1.00  0.00     0.244 C 
HETATM    2  O1  UNL     1      27.469  -0.511  54.988  1.00  0.00    -0.268 OA
HETATM    3  N1  UNL     1      26.406   0.772  53.462  1.00  0.00    -0.315 N 
HETATM    4  C4  UNL     1      25.240   0.160  54.139  1.00  0.00     0.156 C 
HETATM    5  C5  UNL     1      24.004   0.166  53.314  1.00  0.00     0.000 C 
HETATM    6  C6  UNL     1      23.667   1.173  52.469  1.00  0.00    -0.020 C 
HETATM    7  C7  UNL     1      22.512   0.813  51.583  1.00  0.00     0.044 C 
HETATM    8  C8  UNL     1      21.397   1.847  51.720  1.00  0.00     0.051 C 
HETATM    9  C9  UNL     1      21.936   3.159  52.234  1.00  0.00     0.087 C 
HETATM   10  N2  UNL     1      23.158   3.537  52.459  1.00  0.00    -0.259 NA
HETATM   11  C10 UNL     1      24.156   2.578  52.184  1.00  0.00     0.287 C 
HETATM   12  N3  UNL     1      25.332   2.708  52.979  1.00  0.00     0.143 N 
HETATM   13  C11 UNL     1      26.198   1.669  52.412  1.00  0.00     0.328 C 
HETATM   14  C12 UNL     1      27.132   2.427  51.636  1.00  0.00     0.059 C 
HETATM   15  C13 UNL     1      26.158   3.195  50.710  1.00  0.00     0.024 C 
HETATM   16  C14 UNL     1      24.738   2.692  50.768  1.00  0.00     0.113 C 
HETATM   17  H12 UNL     1      25.206   2.670  53.987  1.00  0.00     0.322 HD
ENDROOT
BRANCH   1  18
HETATM   18  C2  UNL     1      28.967   0.657  53.675  1.00  0.00     0.064 C 
HETATM   19  C1  UNL     1      29.795  -0.381  53.570  1.00  0.00     0.017 C 
ENDBRANCH   1  18
BRANCH  16  20
HETATM   20  S1  UNL     1      23.759   4.018  49.952  1.00  0.00    -0.164 SA
HETATM   21  C15 UNL     1      22.834   3.304  48.540  1.00  0.00     0.090 C 
ENDBRANCH  16  20
TORSDOF 2
ENDMDL
MODEL 2
REMARK VINA RESULT:      -7.3      2.585      5.331
REMARK  2 active torsions:
REMARK  status: ('A' for Active; 'I' for Inactive)
REMARK    1  A    between atoms: C2_2  and  C3_3 
REMARK       I    between atoms: C3_3  and  N1_5 
REMARK    2  A    between atoms: C14_18  and  S1_19 
ROOT
HETATM    1  C3  UNL     1      21.354  -0.857  54.188  1.00  0.00     0.244 C 
HETATM    2  O1  UNL     1      21.066  -1.796  54.972  1.00  0.00    -0.268 OA
HETATM    3  N1  UNL     1      22.744  -0.572  54.084  1.00  0.00    -0.315 N 
HETATM    4  C4  UNL     1      23.524  -1.483  54.952  1.00  0.00     0.156 C 
HETATM    5  C5  UNL     1      24.868  -0.958  55.309  1.00  0.00     0.000 C 
HETATM    6  C6  UNL     1      25.640  -0.229  54.464  1.00  0.00    -0.020 C 
HETATM    7  C7  UNL     1      26.824   0.381  55.155  1.00  0.00     0.044 C 
HETATM    8  C8  UNL     1      28.115  -0.022  54.448  1.00  0.00     0.051 C 
HETATM    9  C9  UNL     1      27.847  -0.426  53.019  1.00  0.00     0.087 C 
HETATM   10  N2  UNL     1      26.752  -0.376  52.322  1.00  0.00    -0.259 NA
HETATM   11  C10 UNL     1      25.620   0.134  52.994  1.00  0.00     0.287 C 
HETATM   12  N3  UNL     1      24.376  -0.379  52.523  1.00  0.00     0.143 N 
HETATM   13  C11 UNL     1      23.412   0.387  53.320  1.00  0.00     0.328 C 
HETATM   14  C12 UNL     1      22.911   1.340  52.376  1.00  0.00     0.059 C 
HETATM   15  C13 UNL     1      24.235   2.008  51.934  1.00  0.00     0.024 C 
HETATM   16  C14 UNL     1      25.420   1.642  52.792  1.00  0.00     0.113 C 
HETATM   17  H12 UNL     1      24.261  -1.388  52.550  1.00  0.00     0.322 HD
ENDROOT
BRANCH   1  18
HETATM   18  C2  UNL     1      20.264  -0.201  53.508  1.00  0.00     0.064 C 
HETATM   19  C1  UNL     1      19.146  -0.921  53.443  1.00  0.00     0.017 C 
ENDBRANCH   1  18
BRANCH  16  20
HETATM   20  S1  UNL     1      26.873   2.192  51.808  1.00  0.00    -0.164 SA
HETATM   21  C15 UNL     1      26.290   3.036  50.289  1.00  0.00     0.090 C 
ENDBRANCH  16  20
TORSDOF 2
ENDMDL
MODEL 3
REMARK VINA RESULT:      -7.2      2.537      3.986
REMARK  2 active torsions:
REMARK  status: ('A' for Active; 'I' for Inactive)
REMARK    1  A    between atoms: C2_2  and  C3_3 
REMARK       I    between atoms: C3_3  and  N1_5 
REMARK    2  A    between atoms: C14_18  and  S1_19 
ROOT
HETATM    1  C3  UNL     1      26.100   2.515  50.975  1.00  0.00     0.244 C 
HETATM    2  O1  UNL     1      27.167   2.505  51.640  1.00  0.00    -0.268 OA
HETATM    3  N1  UNL     1      25.013   1.826  51.583  1.00  0.00    -0.315 N 
HETATM    4  C4  UNL     1      25.427   1.255  52.885  1.00  0.00     0.156 C 
HETATM    5  C5  UNL     1      24.573   0.126  53.337  1.00  0.00     0.000 C 
HETATM    6  C6  UNL     1      23.235   0.062  53.124  1.00  0.00    -0.020 C 
HETATM    7  C7  UNL     1      22.667  -1.286  53.457  1.00  0.00     0.044 C 
HETATM    8  C8  UNL     1      21.528  -1.147  54.464  1.00  0.00     0.051 C 
HETATM    9  C9  UNL     1      20.940   0.242  54.428  1.00  0.00     0.087 C 
HETATM   10  N2  UNL     1      21.184   1.239  53.632  1.00  0.00    -0.259 NA
HETATM   11  C10 UNL     1      22.154   1.003  52.634  1.00  0.00     0.287 C 
HETATM   12  N3  UNL     1      22.864   2.166  52.217  1.00  0.00     0.143 N 
HETATM   13  C11 UNL     1      23.704   1.638  51.136  1.00  0.00     0.328 C 
HETATM   14  C12 UNL     1      23.042   2.118  49.961  1.00  0.00     0.059 C 
HETATM   15  C13 UNL     1      21.628   1.531  50.184  1.00  0.00     0.024 C 
HETATM   16  C14 UNL     1      21.555   0.524  51.304  1.00  0.00     0.113 C 
HETATM   17  H12 UNL     1      23.357   2.682  52.940  1.00  0.00     0.322 HD
ENDROOT
BRANCH   1  18
HETATM   18  C2  UNL     1      26.111   3.206  49.710  1.00  0.00     0.064 C 
HETATM   19  C1  UNL     1      25.922   4.520  49.801  1.00  0.00     0.017 C 
ENDBRANCH   1  18
BRANCH  16  20
HETATM   20  S1  UNL     1      19.754   0.341  51.626  1.00  0.00    -0.164 SA
HETATM   21  C15 UNL     1      18.814   1.040  50.216  1.00  0.00     0.090 C 
ENDBRANCH  16  20
TORSDOF 2
ENDMDL
MODEL 4
REMARK VINA RESULT:      -7.0      1.437      1.763
REMARK  2 active torsions:
REMARK  status: ('A' for Active; 'I' for Inactive)
REMARK    1  A    between atoms: C2_2  and  C3_3 
REMARK       I    between atoms: C3_3  and  N1_5 
REMARK    2  A    between atoms: C14_18  and  S1_19 
ROOT
HETATM    1  C3  UNL     1      25.868  -0.363  54.033  1.00  0.00     0.244 C 
HETATM    2  O1  UNL     1      25.640  -1.240  54.904  1.00  0.00    -0.268 OA
HETATM    3  N1  UNL     1      24.711   0.128  53.365  1.00  0.00    -0.315 N 
HETATM    4  C4  UNL     1      23.495  -0.538  53.884  1.00  0.00     0.156 C 
HETATM    5  C5  UNL     1      22.345  -0.490  52.943  1.00  0.00     0.000 C 
HETATM    6  C6  UNL     1      22.076   0.566  52.135  1.00  0.00    -0.020 C 
HETATM    7  C7  UNL     1      21.019   0.253  51.118  1.00  0.00     0.044 C 
HETATM    8  C8  UNL     1      19.880   1.265  51.210  1.00  0.00     0.051 C 
HETATM    9  C9  UNL     1      20.344   2.546  51.857  1.00  0.00     0.087 C 
HETATM   10  N2  UNL     1      21.532   2.921  52.225  1.00  0.00    -0.259 NA
HETATM   11  C10 UNL     1      22.568   1.991  51.989  1.00  0.00     0.287 C 
HETATM   12  N3  UNL     1      23.658   2.081  52.903  1.00  0.00     0.143 N 
HETATM   13  C11 UNL     1      24.592   1.089  52.359  1.00  0.00     0.328 C 
HETATM   14  C12 UNL     1      25.585   1.906  51.729  1.00  0.00     0.059 C 
HETATM   15  C13 UNL     1      24.694   2.723  50.763  1.00  0.00     0.024 C 
HETATM   16  C14 UNL     1      23.283   2.203  50.648  1.00  0.00     0.113 C 
HETATM   17  H12 UNL     1      23.435   1.976  53.889  1.00  0.00     0.322 HD
ENDROOT
BRANCH   1  18
HETATM   18  C2  UNL     1      27.241   0.025  53.822  1.00  0.00     0.064 C 
HETATM   19  C1  UNL     1      27.963  -0.863  53.142  1.00  0.00     0.017 C 
ENDBRANCH   1  18
BRANCH  16  20
HETATM   20  S1  UNL     1      22.367   3.569  49.826  1.00  0.00    -0.164 SA
HETATM   21  C15 UNL     1      23.530   4.937  49.451  1.00  0.00     0.090 C 
ENDBRANCH  16  20
TORSDOF 2
ENDMDL
MODEL 5
REMARK VINA RESULT:      -6.9      1.837      2.481
REMARK  2 active torsions:
REMARK  status: ('A' for Active; 'I' for Inactive)
REMARK    1  A    between atoms: C2_2  and  C3_3 
REMARK       I    between atoms: C3_3  and  N1_5 
REMARK    2  A    between atoms: C14_18  and  S1_19 
ROOT
HETATM    1  C3  UNL     1      25.146  -0.174  53.444  1.00  0.00     0.244 C 
HETATM    2  O1  UNL     1      24.309  -0.763  54.175  1.00  0.00    -0.268 OA
HETATM    3  N1  UNL     1      24.621   0.919  52.698  1.00  0.00    -0.315 N 
HETATM    4  C4  UNL     1      23.178   1.091  52.982  1.00  0.00     0.156 C 
HETATM    5  C5  UNL     1      22.447   1.826  51.917  1.00  0.00     0.000 C 
HETATM    6  C6  UNL     1      22.981   2.852  51.208  1.00  0.00    -0.020 C 
HETATM    7  C7  UNL     1      22.128   3.243  50.038  1.00  0.00     0.044 C 
HETATM    8  C8  UNL     1      21.791   4.730  50.102  1.00  0.00     0.051 C 
HETATM    9  C9  UNL     1      22.795   5.477  50.944  1.00  0.00     0.087 C 
HETATM   10  N2  UNL     1      23.898   5.071  51.498  1.00  0.00    -0.259 NA
HETATM   11  C10 UNL     1      24.224   3.714  51.288  1.00  0.00     0.287 C 
HETATM   12  N3  UNL     1      24.992   3.125  52.335  1.00  0.00     0.143 N 
HETATM   13  C11 UNL     1      25.252   1.783  51.802  1.00  0.00     0.328 C 
HETATM   14  C12 UNL     1      26.623   1.867  51.398  1.00  0.00     0.059 C 
HETATM   15  C13 UNL     1      26.549   3.071  50.428  1.00  0.00     0.024 C 
HETATM   16  C14 UNL     1      25.142   3.487  50.079  1.00  0.00     0.113 C 
HETATM   17  H12 UNL     1      24.587   3.154  53.267  1.00  0.00     0.322 HD
ENDROOT
BRANCH   1  18
HETATM   18  C2  UNL     1      26.501  -0.668  53.453  1.00  0.00     0.064 C 
HETATM   19  C1  UNL     1      26.727  -1.662  52.597  1.00  0.00     0.017 C 
ENDBRANCH   1  18
BRANCH  16  20
HETATM   20  S1  UNL     1      25.343   5.146  49.311  1.00  0.00    -0.164 SA
HETATM   21  C15 UNL     1      27.064   5.327  48.705  1.00  0.00     0.090 C 
ENDBRANCH  16  20
TORSDOF 2
ENDMDL
MODEL 6
REMARK VINA RESULT:      -6.9      2.745      5.700
REMARK  2 active torsions:
REMARK  status: ('A' for Active; 'I' for Inactive)
REMARK    1  A    between atoms: C2_2  and  C3_3 
REMARK       I    between atoms: C3_3  and  N1_5 
REMARK    2  A    between atoms: C14_18  and  S1_19 
ROOT
HETATM    1  C3  UNL     1      23.950   3.847  50.124  1.00  0.00     0.244 C 
HETATM    2  O1  UNL     1      24.710   4.546  49.407  1.00  0.00    -0.268 OA
HETATM    3  N1  UNL     1      24.615   2.907  50.960  1.00  0.00    -0.315 N 
HETATM    4  C4  UNL     1      26.081   2.994  50.768  1.00  0.00     0.156 C 
HETATM    5  C5  UNL     1      26.806   1.762  51.176  1.00  0.00     0.000 C 
HETATM    6  C6  UNL     1      26.447   0.992  52.233  1.00  0.00    -0.020 C 
HETATM    7  C7  UNL     1      27.188  -0.312  52.267  1.00  0.00     0.044 C 
HETATM    8  C8  UNL     1      27.893  -0.485  53.611  1.00  0.00     0.051 C 
HETATM    9  C9  UNL     1      27.243   0.363  54.676  1.00  0.00     0.087 C 
HETATM   10  N2  UNL     1      26.168   1.092  54.633  1.00  0.00    -0.259 NA
HETATM   11  C10 UNL     1      25.485   1.103  53.398  1.00  0.00     0.287 C 
HETATM   12  N3  UNL     1      24.758   2.302  53.138  1.00  0.00     0.143 N 
HETATM   13  C11 UNL     1      24.094   1.985  51.869  1.00  0.00     0.328 C 
HETATM   14  C12 UNL     1      22.744   1.737  52.275  1.00  0.00     0.059 C 
HETATM   15  C13 UNL     1      22.973   0.614  53.316  1.00  0.00     0.024 C 
HETATM   16  C14 UNL     1      24.371   0.051  53.307  1.00  0.00     0.113 C 
HETATM   17  H12 UNL     1      25.290   3.167  53.149  1.00  0.00     0.322 HD
ENDROOT
BRANCH   1  18
HETATM   18  C2  UNL     1      22.531   4.080  50.011  1.00  0.00     0.064 C 
HETATM   19  C1  UNL     1      22.087   5.115  50.721  1.00  0.00     0.017 C 
ENDBRANCH   1  18
BRANCH  16  20
HETATM   20  S1  UNL     1      24.481  -0.901  54.877  1.00  0.00    -0.164 SA
HETATM   21  C15 UNL     1      22.804  -1.460  55.362  1.00  0.00     0.090 C 
ENDBRANCH  16  20
TORSDOF 2
ENDMDL
MODEL 7
REMARK VINA RESULT:      -6.7      2.031      3.412
REMARK  2 active torsions:
REMARK  status: ('A' for Active; 'I' for Inactive)
REMARK    1  A    between atoms: C2_2  and  C3_3 
REMARK       I    between atoms: C3_3  and  N1_5 
REMARK    2  A    between atoms: C14_18  and  S1_19 
ROOT
HETATM    1  C3  UNL     1      28.044   0.933  53.427  1.00  0.00     0.244 C 
HETATM    2  O1  UNL     1      28.900   1.696  52.913  1.00  0.00    -0.268 OA
HETATM    3  N1  UNL     1      26.696   1.223  53.074  1.00  0.00    -0.315 N 
HETATM    4  C4  UNL     1      26.643   2.387  52.160  1.00  0.00     0.156 C 
HETATM    5  C5  UNL     1      25.323   3.072  52.148  1.00  0.00     0.000 C 
HETATM    6  C6  UNL     1      24.137   2.423  52.261  1.00  0.00    -0.020 C 
HETATM    7  C7  UNL     1      22.989   3.365  52.470  1.00  0.00     0.044 C 
HETATM    8  C8  UNL     1      21.916   3.135  51.409  1.00  0.00     0.051 C 
HETATM    9  C9  UNL     1      22.023   1.749  50.822  1.00  0.00     0.087 C 
HETATM   10  N2  UNL     1      22.786   0.752  51.153  1.00  0.00    -0.259 NA
HETATM   11  C10 UNL     1      23.665   0.984  52.233  1.00  0.00     0.287 C 
HETATM   12  N3  UNL     1      24.868   0.221  52.188  1.00  0.00     0.143 N 
HETATM   13  C11 UNL     1      25.510   0.593  53.453  1.00  0.00     0.328 C 
HETATM   14  C12 UNL     1      25.288  -0.563  54.269  1.00  0.00     0.059 C 
HETATM   15  C13 UNL     1      23.745  -0.657  54.197  1.00  0.00     0.024 C 
HETATM   16  C14 UNL     1      23.088   0.557  53.590  1.00  0.00     0.113 C 
HETATM   17  H12 UNL     1      25.443   0.328  51.358  1.00  0.00     0.322 HD
ENDROOT
BRANCH   1  18
HETATM   18  C2  UNL     1      28.523  -0.117  54.292  1.00  0.00     0.064 C 
HETATM   19  C1  UNL     1      29.377  -0.958  53.712  1.00  0.00     0.017 C 
ENDBRANCH   1  18
BRANCH  16  20
HETATM   20  S1  UNL     1      21.372   0.004  53.230  1.00  0.00    -0.164 SA
HETATM   21  C15 UNL     1      20.986  -1.472  54.247  1.00  0.00     0.090 C 
ENDBRANCH  16  20
TORSDOF 2
ENDMDL
MODEL 8
REMARK VINA RESULT:      -6.4      4.026      5.548
REMARK  2 active torsions:
REMARK  status: ('A' for Active; 'I' for Inactive)
REMARK    1  A    between atoms: C2_2  and  C3_3 
REMARK       I    between atoms: C3_3  and  N1_5 
REMARK    2  A    between atoms: C14_18  and  S1_19 
ROOT
HETATM    1  C3  UNL     1      28.033   5.793  48.263  1.00  0.00     0.244 C 
HETATM    2  O1  UNL     1      28.930   4.913  48.237  1.00  0.00    -0.268 OA
HETATM    3  N1  UNL     1      26.822   5.393  48.894  1.00  0.00    -0.315 N 
HETATM    4  C4  UNL     1      26.929   3.997  49.376  1.00  0.00     0.156 C 
HETATM    5  C5  UNL     1      25.613   3.333  49.568  1.00  0.00     0.000 C 
HETATM    6  C6  UNL     1      24.505   3.974  50.020  1.00  0.00    -0.020 C 
HETATM    7  C7  UNL     1      23.267   3.139  49.882  1.00  0.00     0.044 C 
HETATM    8  C8  UNL     1      22.565   3.006  51.231  1.00  0.00     0.051 C 
HETATM    9  C9  UNL     1      22.956   4.131  52.157  1.00  0.00     0.087 C 
HETATM   10  N2  UNL     1      23.678   5.188  51.940  1.00  0.00    -0.259 NA
HETATM   11  C10 UNL     1      24.188   5.323  50.631  1.00  0.00     0.287 C 
HETATM   12  N3  UNL     1      25.417   6.042  50.549  1.00  0.00     0.143 N 
HETATM   13  C11 UNL     1      25.637   6.102  49.100  1.00  0.00     0.328 C 
HETATM   14  C12 UNL     1      25.294   7.456  48.786  1.00  0.00     0.059 C 
HETATM   15  C13 UNL     1      23.850   7.508  49.340  1.00  0.00     0.024 C 
HETATM   16  C14 UNL     1      23.289   6.158  49.709  1.00  0.00     0.113 C 
HETATM   17  H12 UNL     1      26.193   5.679  51.094  1.00  0.00     0.322 HD
ENDROOT
BRANCH   1  18
HETATM   18  C2  UNL     1      28.337   7.070  47.664  1.00  0.00     0.064 C 
HETATM   19  C1  UNL     1      29.044   7.886  48.442  1.00  0.00     0.017 C 
ENDBRANCH   1  18
BRANCH  16  20
HETATM   20  S1  UNL     1      21.802   6.551  50.716  1.00  0.00    -0.164 SA
HETATM   21  C15 UNL     1      20.331   5.768  49.951  1.00  0.00     0.090 C 
ENDBRANCH  16  20
TORSDOF 2
ENDMDL
MODEL 9
REMARK VINA RESULT:      -6.4      2.247      3.720
REMARK  2 active torsions:
REMARK  status: ('A' for Active; 'I' for Inactive)
REMARK    1  A    between atoms: C2_2  and  C3_3 
REMARK       I    between atoms: C3_3  and  N1_5 
REMARK    2  A    between atoms: C14_18  and  S1_19 
ROOT
HETATM    1  C3  UNL     1      26.181   0.485  52.704  1.00  0.00     0.244 C 
HETATM    2  O1  UNL     1      27.251   1.076  52.409  1.00  0.00    -0.268 OA
HETATM    3  N1  UNL     1      24.996   1.221  52.419  1.00  0.00    -0.315 N 
HETATM    4  C4  UNL     1      25.335   2.536  51.828  1.00  0.00     0.156 C 
HETATM    5  C5  UNL     1      24.256   3.547  51.974  1.00  0.00     0.000 C 
HETATM    6  C6  UNL     1      22.933   3.253  51.905  1.00  0.00    -0.020 C 
HETATM    7  C7  UNL     1      22.069   4.402  52.332  1.00  0.00     0.044 C 
HETATM    8  C8  UNL     1      21.066   4.746  51.234  1.00  0.00     0.051 C 
HETATM    9  C9  UNL     1      20.842   3.569  50.318  1.00  0.00     0.087 C 
HETATM   10  N2  UNL     1      21.277   2.347  50.395  1.00  0.00    -0.259 NA
HETATM   11  C10 UNL     1      22.093   2.057  51.509  1.00  0.00     0.287 C 
HETATM   12  N3  UNL     1      23.044   1.018  51.287  1.00  0.00     0.143 N 
HETATM   13  C11 UNL     1      23.656   0.880  52.612  1.00  0.00     0.328 C 
HETATM   14  C12 UNL     1      23.064  -0.326  53.107  1.00  0.00     0.059 C 
HETATM   15  C13 UNL     1      21.564   0.040  52.995  1.00  0.00     0.024 C 
HETATM   16  C14 UNL     1      21.313   1.498  52.707  1.00  0.00     0.113 C 
HETATM   17  H12 UNL     1      23.693   1.154  50.517  1.00  0.00     0.322 HD
ENDROOT
BRANCH   1  18
HETATM   18  C2  UNL     1      26.285  -0.832  53.281  1.00  0.00     0.064 C 
HETATM   19  C1  UNL     1      26.793  -1.751  52.461  1.00  0.00     0.017 C 
ENDBRANCH   1  18
BRANCH  16  20
HETATM   20  S1  UNL     1      19.546   1.556  52.199  1.00  0.00    -0.164 SA
HETATM   21  C15 UNL     1      18.858  -0.143  52.209  1.00  0.00     0.090 C 
ENDBRANCH  16  20
TORSDOF 2
ENDMDL
