MODEL 1
REMARK VINA RESULT:      -8.4      0.000      0.000
REMARK  0 active torsions:
REMARK  status: ('A' for Active; 'I' for Inactive)
ROOT
HETATM    1  C1  UNL     1      21.073   4.363  51.581  1.00  0.00     0.045 C 
HETATM    2  C2  UNL     1      20.949   2.934  51.240  1.00  0.00    -0.062 C 
HETATM    3  C3  UNL     1      20.271   2.135  52.087  1.00  0.00     0.137 C 
HETATM    4  O1  UNL     1      19.944   0.764  52.115  1.00  0.00    -0.354 OA
HETATM    5  C4  UNL     1      19.999   0.032  53.285  1.00  0.00     0.162 C 
HETATM    6  C5  UNL     1      20.865  -0.893  53.787  1.00  0.00     0.028 C 
HETATM    7  C6  UNL     1      21.474  -1.862  54.678  1.00  0.00     0.034 C 
HETATM    8  C7  UNL     1      22.876  -1.454  54.975  1.00  0.00    -0.029 C 
HETATM    9  C8  UNL     1      23.994  -0.778  54.942  1.00  0.00    -0.011 C 
HETATM   10  C9  UNL     1      25.383  -0.550  55.377  1.00  0.00     0.146 C 
HETATM   11  N1  UNL     1      26.270  -0.704  54.254  1.00  0.00    -0.396 N 
HETATM   12  C10 UNL     1      27.536  -0.267  54.721  1.00  0.00     0.079 C 
HETATM   13  C11 UNL     1      28.430   0.546  54.126  1.00  0.00    -0.010 C 
HETATM   14  C12 UNL     1      28.067   1.052  52.808  1.00  0.00     0.033 C 
HETATM   15  C13 UNL     1      27.021   2.138  52.871  1.00  0.00     0.084 C 
HETATM   16  C14 UNL     1      26.786   2.597  51.449  1.00  0.00     0.351 A 
HETATM   17  O2  UNL     1      26.897   2.902  50.241  1.00  0.00    -0.151 OA
HETATM   18  N2  UNL     1      25.565   3.054  50.896  1.00  0.00     0.086 N 
HETATM   19  C15 UNL     1      25.107   3.545  49.612  1.00  0.00     0.275 C 
HETATM   20  C16 UNL     1      23.563   3.748  49.691  1.00  0.00     0.031 C 
HETATM   21  C17 UNL     1      22.970   2.367  49.883  1.00  0.00     0.006 C 
HETATM   22  C18 UNL     1      21.503   2.297  50.048  1.00  0.00     0.036 C 
HETATM   23  H13 UNL     1      26.596  -0.934  53.307  1.00  0.00     0.159 HD
HETATM   24  H20 UNL     1      24.827   3.004  51.667  1.00  0.00     0.322 HD
ENDROOT
TORSDOF 0
ENDMDL
MODEL 2
REMARK VINA RESULT:      -8.2      1.534      2.196
REMARK  0 active torsions:
REMARK  status: ('A' for Active; 'I' for Inactive)
ROOT
HETATM    1  C1  UNL     1      21.886   6.359  51.182  1.00  0.00     0.045 C 
HETATM    2  C2  UNL     1      21.383   5.172  50.467  1.00  0.00    -0.062 C 
HETATM    3  C3  UNL     1      20.327   4.517  50.987  1.00  0.00     0.137 C 
HETATM    4  O1  UNL     1      19.580   3.380  50.614  1.00  0.00    -0.354 OA
HETATM    5  C4  UNL     1      19.157   2.456  51.550  1.00  0.00     0.162 C 
HETATM    6  C5  UNL     1      19.559   1.200  51.894  1.00  0.00     0.028 C 
HETATM    7  C6  UNL     1      19.631  -0.083  52.567  1.00  0.00     0.034 C 
HETATM    8  C7  UNL     1      20.997  -0.277  53.128  1.00  0.00    -0.029 C 
HETATM    9  C8  UNL     1      22.254  -0.056  53.409  1.00  0.00    -0.011 C 
HETATM   10  C9  UNL     1      23.523  -0.438  54.054  1.00  0.00     0.146 C 
HETATM   11  N1  UNL     1      24.524  -0.669  53.045  1.00  0.00    -0.396 N 
HETATM   12  C10 UNL     1      25.739  -0.822  53.761  1.00  0.00     0.079 C 
HETATM   13  C11 UNL     1      26.948  -0.283  53.513  1.00  0.00    -0.010 C 
HETATM   14  C12 UNL     1      27.044   0.576  52.339  1.00  0.00     0.033 C 
HETATM   15  C13 UNL     1      26.411   1.929  52.556  1.00  0.00     0.084 C 
HETATM   16  C14 UNL     1      26.632   2.720  51.287  1.00  0.00     0.351 A 
HETATM   17  O2  UNL     1      27.080   3.204  50.223  1.00  0.00    -0.151 OA
HETATM   18  N2  UNL     1      25.762   3.689  50.729  1.00  0.00     0.086 N 
HETATM   19  C15 UNL     1      25.759   4.562  49.572  1.00  0.00     0.275 C 
HETATM   20  C16 UNL     1      24.379   5.286  49.514  1.00  0.00     0.031 C 
HETATM   21  C17 UNL     1      23.349   4.204  49.265  1.00  0.00     0.006 C 
HETATM   22  C18 UNL     1      21.936   4.634  49.226  1.00  0.00     0.036 C 
HETATM   23  H13 UNL     1      24.946  -0.804  52.118  1.00  0.00     0.159 HD
HETATM   24  H20 UNL     1      24.906   3.752  51.365  1.00  0.00     0.322 HD
ENDROOT
TORSDOF 0
ENDMDL
MODEL 3
REMARK VINA RESULT:      -7.8      2.211      3.589
REMARK  0 active torsions:
REMARK  status: ('A' for Active; 'I' for Inactive)
ROOT
HETATM    1  C1  UNL     1      22.973   7.377  50.702  1.00  0.00     0.045 C 
HETATM    2  C2  UNL     1      22.267   6.365  49.895  1.00  0.00    -0.062 C 
HETATM    3  C3  UNL     1      21.004   6.046  50.238  1.00  0.00     0.137 C 
HETATM    4  O1  UNL     1      20.030   5.159  49.735  1.00  0.00    -0.354 OA
HETATM    5  C4  UNL     1      19.230   4.413  50.578  1.00  0.00     0.162 C 
HETATM    6  C5  UNL     1      19.205   3.101  50.950  1.00  0.00     0.028 C 
HETATM    7  C6  UNL     1      18.812   1.865  51.599  1.00  0.00     0.034 C 
HETATM    8  C7  UNL     1      19.969   1.306  52.352  1.00  0.00    -0.029 C 
HETATM    9  C8  UNL     1      21.181   1.168  52.820  1.00  0.00    -0.011 C 
HETATM   10  C9  UNL     1      22.180   0.458  53.637  1.00  0.00     0.146 C 
HETATM   11  N1  UNL     1      23.214  -0.068  52.784  1.00  0.00    -0.396 N 
HETATM   12  C10 UNL     1      24.216  -0.543  53.667  1.00  0.00     0.079 C 
HETATM   13  C11 UNL     1      25.551  -0.372  53.613  1.00  0.00    -0.010 C 
HETATM   14  C12 UNL     1      26.058   0.399  52.485  1.00  0.00     0.033 C 
HETATM   15  C13 UNL     1      25.808   1.881  52.635  1.00  0.00     0.084 C 
HETATM   16  C14 UNL     1      26.429   2.550  51.430  1.00  0.00     0.351 A 
HETATM   17  O2  UNL     1      27.147   2.864  50.455  1.00  0.00    -0.151 OA
HETATM   18  N2  UNL     1      25.960   3.712  50.770  1.00  0.00     0.086 N 
HETATM   19  C15 UNL     1      26.374   4.525  49.644  1.00  0.00     0.275 C 
HETATM   20  C16 UNL     1      25.280   5.609  49.398  1.00  0.00     0.031 C 
HETATM   21  C17 UNL     1      24.035   4.856  48.976  1.00  0.00     0.006 C 
HETATM   22  C18 UNL     1      22.823   5.667  48.738  1.00  0.00     0.036 C 
HETATM   23  H13 UNL     1      23.712  -0.337  51.926  1.00  0.00     0.159 HD
HETATM   24  H20 UNL     1      25.072   4.028  51.273  1.00  0.00     0.322 HD
ENDROOT
TORSDOF 0
ENDMDL
MODEL 4
REMARK VINA RESULT:      -7.7      2.245      5.322
REMARK  0 active torsions:
REMARK  status: ('A' for Active; 'I' for Inactive)
ROOT
HETATM    1  C1  UNL     1      19.513   0.629  50.114  1.00  0.00     0.045 C 
HETATM    2  C2  UNL     1      19.788   1.950  50.709  1.00  0.00    -0.062 C 
HETATM    3  C3  UNL     1      20.211   2.937  49.896  1.00  0.00     0.137 C 
HETATM    4  O1  UNL     1      20.568   4.290  50.076  1.00  0.00    -0.354 OA
HETATM    5  C4  UNL     1      21.650   4.844  49.420  1.00  0.00     0.162 C 
HETATM    6  C5  UNL     1      22.909   5.201  49.799  1.00  0.00     0.028 C 
HETATM    7  C6  UNL     1      24.269   5.703  49.746  1.00  0.00     0.034 C 
HETATM    8  C7  UNL     1      25.210   4.646  50.212  1.00  0.00    -0.029 C 
HETATM    9  C8  UNL     1      25.646   3.511  50.692  1.00  0.00    -0.011 C 
HETATM   10  C9  UNL     1      26.739   2.611  51.097  1.00  0.00     0.146 C 
HETATM   11  N1  UNL     1      26.658   2.363  52.513  1.00  0.00    -0.396 N 
HETATM   12  C10 UNL     1      27.608   1.340  52.763  1.00  0.00     0.079 C 
HETATM   13  C11 UNL     1      27.482   0.222  53.504  1.00  0.00    -0.010 C 
HETATM   14  C12 UNL     1      26.196   0.023  54.159  1.00  0.00     0.033 C 
HETATM   15  C13 UNL     1      25.116  -0.412  53.197  1.00  0.00     0.084 C 
HETATM   16  C14 UNL     1      23.865  -0.629  54.019  1.00  0.00     0.351 A 
HETATM   17  O2  UNL     1      23.039  -0.892  54.921  1.00  0.00    -0.151 OA
HETATM   18  N2  UNL     1      22.530  -0.402  53.606  1.00  0.00     0.086 N 
HETATM   19  C15 UNL     1      21.208  -0.543  54.185  1.00  0.00     0.275 C 
HETATM   20  C16 UNL     1      20.170   0.034  53.174  1.00  0.00     0.031 C 
HETATM   21  C17 UNL     1      20.463   1.517  53.076  1.00  0.00     0.006 C 
HETATM   22  C18 UNL     1      19.640   2.289  52.123  1.00  0.00     0.036 C 
HETATM   23  H13 UNL     1      26.356   2.449  53.491  1.00  0.00     0.159 HD
HETATM   24  H20 UNL     1      22.564  -0.033  52.604  1.00  0.00     0.322 HD
ENDROOT
TORSDOF 0
ENDMDL
MODEL 5
REMARK VINA RESULT:      -7.3      2.364      5.686
REMARK  0 active torsions:
REMARK  status: ('A' for Active; 'I' for Inactive)
ROOT
HETATM    1  C1  UNL     1      19.799   2.914  48.485  1.00  0.00     0.045 C 
HETATM    2  C2  UNL     1      20.527   4.032  49.112  1.00  0.00    -0.062 C 
HETATM    3  C3  UNL     1      21.523   4.612  48.416  1.00  0.00     0.137 C 
HETATM    4  O1  UNL     1      22.423   5.670  48.660  1.00  0.00    -0.354 OA
HETATM    5  C4  UNL     1      23.749   5.590  48.282  1.00  0.00     0.162 C 
HETATM    6  C5  UNL     1      24.918   5.386  48.954  1.00  0.00     0.028 C 
HETATM    7  C6  UNL     1      26.331   5.210  49.229  1.00  0.00     0.034 C 
HETATM    8  C7  UNL     1      26.547   3.911  49.926  1.00  0.00    -0.029 C 
HETATM    9  C8  UNL     1      26.289   2.771  50.511  1.00  0.00    -0.011 C 
HETATM   10  C9  UNL     1      26.722   1.534  51.183  1.00  0.00     0.146 C 
HETATM   11  N1  UNL     1      26.238   1.528  52.539  1.00  0.00    -0.396 N 
HETATM   12  C10 UNL     1      26.522   0.227  53.027  1.00  0.00     0.079 C 
HETATM   13  C11 UNL     1      25.735  -0.611  53.728  1.00  0.00    -0.010 C 
HETATM   14  C12 UNL     1      24.400  -0.126  54.050  1.00  0.00     0.033 C 
HETATM   15  C13 UNL     1      23.472  -0.145  52.859  1.00  0.00     0.084 C 
HETATM   16  C14 UNL     1      22.124   0.330  53.352  1.00  0.00     0.351 A 
HETATM   17  O2  UNL     1      21.101   0.582  54.027  1.00  0.00    -0.151 OA
HETATM   18  N2  UNL     1      21.170   1.081  52.622  1.00  0.00     0.086 N 
HETATM   19  C15 UNL     1      19.848   1.623  52.861  1.00  0.00     0.275 C 
HETATM   20  C16 UNL     1      19.439   2.474  51.620  1.00  0.00     0.031 C 
HETATM   21  C17 UNL     1      20.404   3.641  51.578  1.00  0.00     0.006 C 
HETATM   22  C18 UNL     1      20.260   4.575  50.442  1.00  0.00     0.036 C 
HETATM   23  H13 UNL     1      25.812   1.863  53.412  1.00  0.00     0.159 HD
HETATM   24  H20 UNL     1      21.583   1.266  51.654  1.00  0.00     0.322 HD
ENDROOT
TORSDOF 0
ENDMDL
MODEL 6
REMARK VINA RESULT:      -7.1      7.382     10.912
REMARK  0 active torsions:
REMARK  status: ('A' for Active; 'I' for Inactive)
ROOT
HETATM    1  C1  UNL     1      24.795   9.290  46.586  1.00  0.00     0.045 C 
HETATM    2  C2  UNL     1      25.285   9.884  47.844  1.00  0.00    -0.062 C 
HETATM    3  C3  UNL     1      25.853  11.104  47.791  1.00  0.00     0.137 C 
HETATM    4  O1  UNL     1      26.424  11.977  48.740  1.00  0.00    -0.354 OA
HETATM    5  C4  UNL     1      27.574  12.691  48.463  1.00  0.00     0.162 C 
HETATM    6  C5  UNL     1      28.879  12.573  48.841  1.00  0.00     0.028 C 
HETATM    7  C6  UNL     1      30.301  12.830  48.964  1.00  0.00     0.034 C 
HETATM    8  C7  UNL     1      31.065  11.618  48.556  1.00  0.00    -0.029 C 
HETATM    9  C8  UNL     1      31.317  10.397  48.164  1.00  0.00    -0.011 C 
HETATM   10  C9  UNL     1      32.256   9.325  47.790  1.00  0.00     0.146 C 
HETATM   11  N1  UNL     1      32.151   8.243  48.734  1.00  0.00    -0.396 N 
HETATM   12  C10 UNL     1      32.927   7.193  48.178  1.00  0.00     0.079 C 
HETATM   13  C11 UNL     1      32.631   5.885  48.061  1.00  0.00    -0.010 C 
HETATM   14  C12 UNL     1      31.336   5.466  48.582  1.00  0.00     0.033 C 
HETATM   15  C13 UNL     1      30.190   5.874  47.687  1.00  0.00     0.084 C 
HETATM   16  C14 UNL     1      28.930   5.332  48.322  1.00  0.00     0.351 A 
HETATM   17  O2  UNL     1      28.081   4.653  48.943  1.00  0.00    -0.151 OA
HETATM   18  N2  UNL     1      27.644   5.925  48.294  1.00  0.00     0.086 N 
HETATM   19  C15 UNL     1      26.323   5.602  48.797  1.00  0.00     0.275 C 
HETATM   20  C16 UNL     1      25.381   6.808  48.496  1.00  0.00     0.031 C 
HETATM   21  C17 UNL     1      25.906   7.965  49.319  1.00  0.00     0.006 C 
HETATM   22  C18 UNL     1      25.209   9.258  49.161  1.00  0.00     0.036 C 
HETATM   23  H13 UNL     1      31.877   7.720  49.574  1.00  0.00     0.159 HD
HETATM   24  H20 UNL     1      27.726   6.840  47.751  1.00  0.00     0.322 HD
ENDROOT
TORSDOF 0
ENDMDL
MODEL 7
REMARK VINA RESULT:      -7.1      4.527      8.232
REMARK  0 active torsions:
REMARK  status: ('A' for Active; 'I' for Inactive)
ROOT
HETATM    1  C1  UNL     1      22.674   8.556  46.043  1.00  0.00     0.045 C 
HETATM    2  C2  UNL     1      23.822   9.015  46.847  1.00  0.00    -0.062 C 
HETATM    3  C3  UNL     1      25.058   8.856  46.337  1.00  0.00     0.137 C 
HETATM    4  O1  UNL     1      26.363   9.155  46.781  1.00  0.00    -0.354 OA
HETATM    5  C4  UNL     1      27.412   8.278  46.580  1.00  0.00     0.162 C 
HETATM    6  C5  UNL     1      28.100   7.420  47.386  1.00  0.00     0.028 C 
HETATM    7  C6  UNL     1      29.059   6.429  47.834  1.00  0.00     0.034 C 
HETATM    8  C7  UNL     1      28.338   5.280  48.452  1.00  0.00    -0.029 C 
HETATM    9  C8  UNL     1      27.359   4.544  48.908  1.00  0.00    -0.011 C 
HETATM   10  C9  UNL     1      26.849   3.313  49.536  1.00  0.00     0.146 C 
HETATM   11  N1  UNL     1      26.259   3.631  50.810  1.00  0.00    -0.396 N 
HETATM   12  C10 UNL     1      25.623   2.435  51.230  1.00  0.00     0.079 C 
HETATM   13  C11 UNL     1      24.393   2.262  51.753  1.00  0.00    -0.010 C 
HETATM   14  C12 UNL     1      23.591   3.465  51.929  1.00  0.00     0.033 C 
HETATM   15  C13 UNL     1      23.035   3.989  50.626  1.00  0.00     0.084 C 
HETATM   16  C14 UNL     1      22.190   5.195  50.967  1.00  0.00     0.351 A 
HETATM   17  O2  UNL     1      21.438   6.031  51.516  1.00  0.00    -0.151 OA
HETATM   18  N2  UNL     1      22.008   6.355  50.175  1.00  0.00     0.086 N 
HETATM   19  C15 UNL     1      21.263   7.594  50.274  1.00  0.00     0.275 C 
HETATM   20  C16 UNL     1      21.646   8.491  49.058  1.00  0.00     0.031 C 
HETATM   21  C17 UNL     1      23.112   8.831  49.236  1.00  0.00     0.006 C 
HETATM   22  C18 UNL     1      23.736   9.636  48.166  1.00  0.00     0.036 C 
HETATM   23  H13 UNL     1      25.993   4.174  51.640  1.00  0.00     0.159 HD
HETATM   24  H20 UNL     1      22.592   6.230  49.289  1.00  0.00     0.322 HD
ENDROOT
TORSDOF 0
ENDMDL
MODEL 8
REMARK VINA RESULT:      -7.1      2.293      3.327
REMARK  0 active torsions:
REMARK  status: ('A' for Active; 'I' for Inactive)
ROOT
HETATM    1  C1  UNL     1      17.956   3.502  51.344  1.00  0.00     0.045 C 
HETATM    2  C2  UNL     1      18.304   2.091  51.098  1.00  0.00    -0.062 C 
HETATM    3  C3  UNL     1      18.361   1.257  52.155  1.00  0.00     0.137 C 
HETATM    4  O1  UNL     1      18.648  -0.113  52.327  1.00  0.00    -0.354 OA
HETATM    5  C4  UNL     1      19.412  -0.562  53.387  1.00  0.00     0.162 C 
HETATM    6  C5  UNL     1      20.694  -1.008  53.513  1.00  0.00     0.028 C 
HETATM    7  C6  UNL     1      21.918  -1.520  54.097  1.00  0.00     0.034 C 
HETATM    8  C7  UNL     1      23.041  -0.584  53.805  1.00  0.00    -0.029 C 
HETATM    9  C8  UNL     1      23.696   0.437  53.320  1.00  0.00    -0.011 C 
HETATM   10  C9  UNL     1      24.930   1.227  53.161  1.00  0.00     0.146 C 
HETATM   11  N1  UNL     1      25.333   1.218  51.779  1.00  0.00    -0.396 N 
HETATM   12  C10 UNL     1      26.390   2.159  51.697  1.00  0.00     0.079 C 
HETATM   13  C11 UNL     1      26.600   3.128  50.785  1.00  0.00    -0.010 C 
HETATM   14  C12 UNL     1      25.615   3.232  49.716  1.00  0.00     0.033 C 
HETATM   15  C13 UNL     1      24.320   3.856  50.178  1.00  0.00     0.084 C 
HETATM   16  C14 UNL     1      23.425   3.947  48.963  1.00  0.00     0.351 A 
HETATM   17  O2  UNL     1      22.959   4.061  47.807  1.00  0.00    -0.151 OA
HETATM   18  N2  UNL     1      22.014   3.826  48.938  1.00  0.00     0.086 N 
HETATM   19  C15 UNL     1      20.967   3.888  47.937  1.00  0.00     0.275 C 
HETATM   20  C16 UNL     1      19.616   3.524  48.624  1.00  0.00     0.031 C 
HETATM   21  C17 UNL     1      19.742   2.077  49.054  1.00  0.00     0.006 C 
HETATM   22  C18 UNL     1      18.596   1.506  49.792  1.00  0.00     0.036 C 
HETATM   23  H13 UNL     1      25.358   0.963  50.784  1.00  0.00     0.159 HD
HETATM   24  H20 UNL     1      21.692   3.642  49.940  1.00  0.00     0.322 HD
ENDROOT
TORSDOF 0
ENDMDL
MODEL 9
REMARK VINA RESULT:      -7.1      3.281      6.559
REMARK  0 active torsions:
REMARK  status: ('A' for Active; 'I' for Inactive)
ROOT
HETATM    1  C1  UNL     1      25.501   2.054  51.046  1.00  0.00     0.045 C 
HETATM    2  C2  UNL     1      24.849   1.921  52.362  1.00  0.00    -0.062 C 
HETATM    3  C3  UNL     1      24.522   0.685  52.787  1.00  0.00     0.137 C 
HETATM    4  O1  UNL     1      23.909   0.160  53.943  1.00  0.00    -0.354 OA
HETATM    5  C4  UNL     1      22.989  -0.868  53.868  1.00  0.00     0.162 C 
HETATM    6  C5  UNL     1      21.632  -0.938  53.981  1.00  0.00     0.028 C 
HETATM    7  C6  UNL     1      20.284  -1.470  54.022  1.00  0.00     0.034 C 
HETATM    8  C7  UNL     1      19.437  -0.762  53.021  1.00  0.00    -0.029 C 
HETATM    9  C8  UNL     1      19.076   0.088  52.096  1.00  0.00    -0.011 C 
HETATM   10  C9  UNL     1      18.078   0.642  51.165  1.00  0.00     0.146 C 
HETATM   11  N1  UNL     1      17.782   2.003  51.531  1.00  0.00    -0.396 N 
HETATM   12  C10 UNL     1      16.985   2.505  50.471  1.00  0.00     0.079 C 
HETATM   13  C11 UNL     1      17.074   3.681  49.821  1.00  0.00    -0.010 C 
HETATM   14  C12 UNL     1      18.128   4.586  50.262  1.00  0.00     0.033 C 
HETATM   15  C13 UNL     1      19.498   4.151  49.800  1.00  0.00     0.084 C 
HETATM   16  C14 UNL     1      20.473   5.201  50.283  1.00  0.00     0.351 A 
HETATM   17  O2  UNL     1      21.032   6.262  50.639  1.00  0.00    -0.151 OA
HETATM   18  N2  UNL     1      21.813   4.991  50.689  1.00  0.00     0.086 N 
HETATM   19  C15 UNL     1      22.912   5.810  51.161  1.00  0.00     0.275 C 
HETATM   20  C16 UNL     1      24.089   4.865  51.554  1.00  0.00     0.031 C 
HETATM   21  C17 UNL     1      23.595   4.051  52.732  1.00  0.00     0.006 C 
HETATM   22  C18 UNL     1      24.519   3.026  53.259  1.00  0.00     0.036 C 
HETATM   23  H13 UNL     1      17.768   2.873  52.077  1.00  0.00     0.159 HD
HETATM   24  H20 UNL     1      22.012   3.945  50.606  1.00  0.00     0.322 HD
ENDROOT
TORSDOF 0
ENDMDL
