MODEL 1
REMARK VINA RESULT:      -7.2      0.000      0.000
REMARK  5 active torsions:
REMARK  status: ('A' for Active; 'I' for Inactive)
REMARK    1  A    between atoms: N1_5  and  C5_6 
REMARK    2  A    between atoms: C5_6  and  C6_7 
REMARK    3  A    between atoms: C8_9  and  C9_10 
REMARK    4  A    between atoms: C9_10  and  N2_11 
REMARK    5  A    between atoms: N2_11  and  C10_12 
ROOT
HETATM    1  C1  UNL     1      26.786   1.697  52.122  1.00  0.00     0.004 C 
HETATM    2  C2  UNL     1      25.490   1.423  52.334  1.00  0.00     0.012 C 
HETATM    3  C3  UNL     1      24.944   0.554  53.375  1.00  0.00     0.005 C 
HETATM    4  C4  UNL     1      23.671   0.521  52.964  1.00  0.00     0.100 C 
HETATM    5  N1  UNL     1      22.465  -0.088  53.395  1.00  0.00    -0.371 N 
HETATM    6  C13 UNL     1      21.960  -0.520  54.654  1.00  0.00     0.273 C 
HETATM    7  N3  UNL     1      22.849  -1.387  55.401  1.00  0.00    -0.263 NA
HETATM    8  C14 UNL     1      24.087  -1.542  55.695  1.00  0.00     0.229 C 
HETATM    9  N4  UNL     1      25.304  -0.892  55.416  1.00  0.00    -0.244 NA
HETATM   10  C15 UNL     1      25.662  -0.051  54.491  1.00  0.00     0.075 C 
HETATM   11  C16 UNL     1      27.064   0.081  54.967  1.00  0.00     0.329 C 
HETATM   12  N5  UNL     1      27.625   1.275  54.362  1.00  0.00     0.092 N 
HETATM   13  C17 UNL     1      27.891   1.116  52.964  1.00  0.00     0.297 C 
HETATM   14  H22 UNL     1      27.018   2.106  54.513  1.00  0.00     0.316 HD
ENDROOT
BRANCH   5  15
HETATM   15  C5  UNL     1      21.547  -0.321  52.333  1.00  0.00     0.129 C 
BRANCH  15  16
HETATM   16  C6  UNL     1      21.165   0.846  51.492  1.00  0.00     0.010 A 
HETATM   17  C7  UNL     1      19.847   0.608  50.736  1.00  0.00     0.013 A 
HETATM   18  C8  UNL     1      21.149   0.687  49.955  1.00  0.00     0.009 A 
BRANCH  18  19
HETATM   19  C9  UNL     1      21.292   1.893  49.093  1.00  0.00     0.124 C 
BRANCH  19  20
HETATM   20  N2  UNL     1      22.667   2.185  48.744  1.00  0.00    -0.392 N 
HETATM   21  H12 UNL     1      23.252   1.768  47.980  1.00  0.00     0.159 HD
BRANCH  20  22
HETATM   22  C10 UNL     1      23.349   3.179  49.538  1.00  0.00     0.014 A 
HETATM   23  P1  UNL     1      23.179   4.221  50.790  1.00  0.00    -0.035 P 
HETATM   24  C11 UNL     1      24.918   4.656  50.454  1.00  0.00     0.051 A 
HETATM   25  C12 UNL     1      24.738   3.626  49.382  1.00  0.00     0.063 A 
ENDBRANCH  20  22
ENDBRANCH  19  20
ENDBRANCH  18  19
ENDBRANCH  15  16
ENDBRANCH   5  15
TORSDOF 5
ENDMDL
MODEL 2
REMARK VINA RESULT:      -7.1      3.186      5.287
REMARK  5 active torsions:
REMARK  status: ('A' for Active; 'I' for Inactive)
REMARK    1  A    between atoms: N1_5  and  C5_6 
REMARK    2  A    between atoms: C5_6  and  C6_7 
REMARK    3  A    between atoms: C8_9  and  C9_10 
REMARK    4  A    between atoms: C9_10  and  N2_11 
REMARK    5  A    between atoms: N2_11  and  C10_12 
ROOT
HETATM    1  C1  UNL     1      29.154  -1.964  53.352  1.00  0.00     0.004 C 
HETATM    2  C2  UNL     1      27.882  -1.639  53.079  1.00  0.00     0.012 C 
HETATM    3  C3  UNL     1      27.257  -0.332  53.272  1.00  0.00     0.005 C 
HETATM    4  C4  UNL     1      25.988  -0.674  53.025  1.00  0.00     0.100 C 
HETATM    5  N1  UNL     1      24.731  -0.019  52.993  1.00  0.00    -0.371 N 
HETATM    6  C13 UNL     1      24.310   1.317  52.740  1.00  0.00     0.273 C 
HETATM    7  N3  UNL     1      24.995   2.330  53.518  1.00  0.00    -0.263 NA
HETATM    8  C14 UNL     1      26.158   2.639  53.959  1.00  0.00     0.229 C 
HETATM    9  N4  UNL     1      27.459   2.107  53.904  1.00  0.00    -0.244 NA
HETATM   10  C15 UNL     1      27.915   0.920  53.631  1.00  0.00     0.075 C 
HETATM   11  C16 UNL     1      29.345   1.282  53.810  1.00  0.00     0.329 C 
HETATM   12  N5  UNL     1      30.145   0.247  53.182  1.00  0.00     0.092 N 
HETATM   13  C17 UNL     1      30.144  -0.980  53.919  1.00  0.00     0.297 C 
HETATM   14  H22 UNL     1      29.846   0.070  52.201  1.00  0.00     0.316 HD
ENDROOT
BRANCH   5  15
HETATM   15  C5  UNL     1      23.640  -0.888  53.276  1.00  0.00     0.129 C 
BRANCH  15  16
HETATM   16  C6  UNL     1      22.353  -0.258  53.678  1.00  0.00     0.010 A 
HETATM   17  C7  UNL     1      21.756  -0.914  54.934  1.00  0.00     0.013 A 
HETATM   18  C8  UNL     1      21.055  -1.093  53.598  1.00  0.00     0.009 A 
BRANCH  18  19
HETATM   19  C9  UNL     1      19.743  -0.398  53.477  1.00  0.00     0.124 C 
BRANCH  19  20
HETATM   20  N2  UNL     1      18.613  -1.303  53.496  1.00  0.00    -0.392 N 
HETATM   21  H12 UNL     1      18.451  -2.137  54.110  1.00  0.00     0.159 HD
BRANCH  20  22
HETATM   22  C10 UNL     1      17.551  -1.045  52.552  1.00  0.00     0.014 A 
HETATM   23  P1  UNL     1      17.124  -0.154  51.246  1.00  0.00    -0.035 P 
HETATM   24  C11 UNL     1      15.542  -1.054  51.350  1.00  0.00     0.051 A 
HETATM   25  C12 UNL     1      16.234  -1.691  52.516  1.00  0.00     0.063 A 
ENDBRANCH  20  22
ENDBRANCH  19  20
ENDBRANCH  18  19
ENDBRANCH  15  16
ENDBRANCH   5  15
TORSDOF 5
ENDMDL
MODEL 3
REMARK VINA RESULT:      -7.1      2.861      3.825
REMARK  5 active torsions:
REMARK  status: ('A' for Active; 'I' for Inactive)
REMARK    1  A    between atoms: N1_5  and  C5_6 
REMARK    2  A    between atoms: C5_6  and  C6_7 
REMARK    3  A    between atoms: C8_9  and  C9_10 
REMARK    4  A    between atoms: C9_10  and  N2_11 
REMARK    5  A    between atoms: N2_11  and  C10_12 
ROOT
HETATM    1  C1  UNL     1      28.820   2.379  53.400  1.00  0.00     0.004 C 
HETATM    2  C2  UNL     1      27.528   2.487  53.058  1.00  0.00     0.012 C 
HETATM    3  C3  UNL     1      26.472   1.515  53.335  1.00  0.00     0.005 C 
HETATM    4  C4  UNL     1      25.495   2.062  52.602  1.00  0.00     0.100 C 
HETATM    5  N1  UNL     1      24.140   1.767  52.305  1.00  0.00    -0.371 N 
HETATM    6  C13 UNL     1      23.099   1.075  52.986  1.00  0.00     0.273 C 
HETATM    7  N3  UNL     1      23.451  -0.253  53.448  1.00  0.00    -0.263 NA
HETATM    8  C14 UNL     1      24.415  -0.905  53.984  1.00  0.00     0.229 C 
HETATM    9  N4  UNL     1      25.723  -0.637  54.429  1.00  0.00    -0.244 NA
HETATM   10  C15 UNL     1      26.559   0.327  54.177  1.00  0.00     0.075 C 
HETATM   11  C16 UNL     1      27.639  -0.201  55.051  1.00  0.00     0.329 C 
HETATM   12  N5  UNL     1      28.579   0.877  55.293  1.00  0.00     0.092 N 
HETATM   13  C17 UNL     1      29.372   1.191  54.144  1.00  0.00     0.297 C 
HETATM   14  H22 UNL     1      28.102   1.735  55.637  1.00  0.00     0.316 HD
ENDROOT
BRANCH   5  15
HETATM   15  C5  UNL     1      23.721   2.276  51.044  1.00  0.00     0.129 C 
BRANCH  15  16
HETATM   16  C6  UNL     1      24.190   3.637  50.667  1.00  0.00     0.010 A 
HETATM   17  C7  UNL     1      23.569   4.119  49.346  1.00  0.00     0.013 A 
HETATM   18  C8  UNL     1      25.055   3.805  49.397  1.00  0.00     0.009 A 
BRANCH  18  19
HETATM   19  C9  UNL     1      25.952   4.988  49.274  1.00  0.00     0.124 C 
BRANCH  19  20
HETATM   20  N2  UNL     1      27.337   4.633  49.044  1.00  0.00    -0.392 N 
HETATM   21  H12 UNL     1      27.826   3.729  49.253  1.00  0.00     0.159 HD
BRANCH  20  22
HETATM   22  C10 UNL     1      28.182   5.641  48.448  1.00  0.00     0.014 A 
HETATM   23  P1  UNL     1      28.226   7.187  47.911  1.00  0.00    -0.035 P 
HETATM   24  C11 UNL     1      29.966   6.827  47.506  1.00  0.00     0.051 A 
HETATM   25  C12 UNL     1      29.593   5.492  48.071  1.00  0.00     0.063 A 
ENDBRANCH  20  22
ENDBRANCH  19  20
ENDBRANCH  18  19
ENDBRANCH  15  16
ENDBRANCH   5  15
TORSDOF 5
ENDMDL
MODEL 4
REMARK VINA RESULT:      -7.1      1.356      4.414
REMARK  5 active torsions:
REMARK  status: ('A' for Active; 'I' for Inactive)
REMARK    1  A    between atoms: N1_5  and  C5_6 
REMARK    2  A    between atoms: C5_6  and  C6_7 
REMARK    3  A    between atoms: C8_9  and  C9_10 
REMARK    4  A    between atoms: C9_10  and  N2_11 
REMARK    5  A    between atoms: N2_11  and  C10_12 
ROOT
HETATM    1  C1  UNL     1      21.789   0.331  53.031  1.00  0.00     0.004 C 
HETATM    2  C2  UNL     1      23.007   0.614  52.546  1.00  0.00     0.012 C 
HETATM    3  C3  UNL     1      24.287   0.350  53.201  1.00  0.00     0.005 C 
HETATM    4  C4  UNL     1      25.088   1.010  52.357  1.00  0.00     0.100 C 
HETATM    5  N1  UNL     1      26.477   1.268  52.243  1.00  0.00    -0.371 N 
HETATM    6  C13 UNL     1      27.655   0.586  52.661  1.00  0.00     0.273 C 
HETATM    7  N3  UNL     1      27.678   0.214  54.062  1.00  0.00    -0.263 NA
HETATM    8  C14 UNL     1      26.923  -0.245  54.991  1.00  0.00     0.229 C 
HETATM    9  N4  UNL     1      25.583  -0.650  55.127  1.00  0.00    -0.244 NA
HETATM   10  C15 UNL     1      24.517  -0.420  54.419  1.00  0.00     0.075 C 
HETATM   11  C16 UNL     1      23.608  -1.218  55.283  1.00  0.00     0.329 C 
HETATM   12  N5  UNL     1      22.398  -1.482  54.527  1.00  0.00     0.092 N 
HETATM   13  C17 UNL     1      21.575  -0.321  54.371  1.00  0.00     0.297 C 
HETATM   14  H22 UNL     1      22.607  -1.893  53.595  1.00  0.00     0.316 HD
ENDROOT
BRANCH   5  15
HETATM   15  C5  UNL     1      26.767   2.480  51.556  1.00  0.00     0.129 C 
BRANCH  15  16
HETATM   16  C6  UNL     1      25.984   2.769  50.324  1.00  0.00     0.010 A 
HETATM   17  C7  UNL     1      26.677   3.809  49.428  1.00  0.00     0.013 A 
HETATM   18  C8  UNL     1      25.383   4.181  50.134  1.00  0.00     0.009 A 
BRANCH  18  19
HETATM   19  C9  UNL     1      24.208   4.362  49.237  1.00  0.00     0.124 C 
BRANCH  19  20
HETATM   20  N2  UNL     1      22.946   4.387  49.948  1.00  0.00    -0.392 N 
HETATM   21  H12 UNL     1      22.572   5.124  50.594  1.00  0.00     0.159 HD
BRANCH  20  22
HETATM   22  C10 UNL     1      22.065   3.259  49.761  1.00  0.00     0.014 A 
HETATM   23  P1  UNL     1      20.552   2.697  50.036  1.00  0.00    -0.035 P 
HETATM   24  C11 UNL     1      21.129   1.192  49.184  1.00  0.00     0.051 A 
HETATM   25  C12 UNL     1      22.393   1.992  49.097  1.00  0.00     0.063 A 
ENDBRANCH  20  22
ENDBRANCH  19  20
ENDBRANCH  18  19
ENDBRANCH  15  16
ENDBRANCH   5  15
TORSDOF 5
ENDMDL
MODEL 5
REMARK VINA RESULT:      -6.8      2.060      3.922
REMARK  5 active torsions:
REMARK  status: ('A' for Active; 'I' for Inactive)
REMARK    1  A    between atoms: N1_5  and  C5_6 
REMARK    2  A    between atoms: C5_6  and  C6_7 
REMARK    3  A    between atoms: C8_9  and  C9_10 
REMARK    4  A    between atoms: C9_10  and  N2_11 
REMARK    5  A    between atoms: N2_11  and  C10_12 
ROOT
HETATM    1  C1  UNL     1      23.677   3.304  50.565  1.00  0.00     0.004 C 
HETATM    2  C2  UNL     1      23.637   2.453  51.600  1.00  0.00     0.012 C 
HETATM    3  C3  UNL     1      24.765   1.708  52.157  1.00  0.00     0.005 C 
HETATM    4  C4  UNL     1      24.090   0.915  52.997  1.00  0.00     0.100 C 
HETATM    5  N1  UNL     1      24.405  -0.110  53.925  1.00  0.00    -0.371 N 
HETATM    6  C13 UNL     1      25.547  -0.424  54.714  1.00  0.00     0.273 C 
HETATM    7  N3  UNL     1      26.796  -0.487  53.980  1.00  0.00    -0.263 NA
HETATM    8  C14 UNL     1      27.440   0.107  53.044  1.00  0.00     0.229 C 
HETATM    9  N4  UNL     1      27.242   1.207  52.190  1.00  0.00    -0.244 NA
HETATM   10  C15 UNL     1      26.178   1.859  51.825  1.00  0.00     0.075 C 
HETATM   11  C16 UNL     1      26.901   2.816  50.949  1.00  0.00     0.329 C 
HETATM   12  N5  UNL     1      26.018   3.939  50.697  1.00  0.00     0.092 N 
HETATM   13  C17 UNL     1      24.943   3.612  49.809  1.00  0.00     0.297 C 
HETATM   14  H22 UNL     1      25.637   4.337  51.579  1.00  0.00     0.316 HD
ENDROOT
BRANCH   5  15
HETATM   15  C5  UNL     1      23.343  -1.038  54.114  1.00  0.00     0.129 C 
BRANCH  15  16
HETATM   16  C6  UNL     1      21.964  -0.486  54.216  1.00  0.00     0.010 A 
HETATM   17  C7  UNL     1      20.912  -1.589  54.418  1.00  0.00     0.013 A 
HETATM   18  C8  UNL     1      20.941  -0.820  53.107  1.00  0.00     0.009 A 
BRANCH  18  19
HETATM   19  C9  UNL     1      19.781   0.087  52.885  1.00  0.00     0.124 C 
BRANCH  19  20
HETATM   20  N2  UNL     1      19.619   0.479  51.500  1.00  0.00    -0.392 N 
HETATM   21  H12 UNL     1      19.405  -0.123  50.669  1.00  0.00     0.159 HD
BRANCH  20  22
HETATM   22  C10 UNL     1      19.770   1.882  51.194  1.00  0.00     0.014 A 
HETATM   23  P1  UNL     1      19.741   2.988  49.987  1.00  0.00    -0.035 P 
HETATM   24  C11 UNL     1      20.111   4.196  51.301  1.00  0.00     0.051 A 
HETATM   25  C12 UNL     1      20.066   2.960  52.146  1.00  0.00     0.063 A 
ENDBRANCH  20  22
ENDBRANCH  19  20
ENDBRANCH  18  19
ENDBRANCH  15  16
ENDBRANCH   5  15
TORSDOF 5
ENDMDL
MODEL 6
REMARK VINA RESULT:      -6.7      2.759      5.080
REMARK  5 active torsions:
REMARK  status: ('A' for Active; 'I' for Inactive)
REMARK    1  A    between atoms: N1_5  and  C5_6 
REMARK    2  A    between atoms: C5_6  and  C6_7 
REMARK    3  A    between atoms: C8_9  and  C9_10 
REMARK    4  A    between atoms: C9_10  and  N2_11 
REMARK    5  A    between atoms: N2_11  and  C10_12 
ROOT
HETATM    1  C1  UNL     1      23.576   3.349  50.832  1.00  0.00     0.004 C 
HETATM    2  C2  UNL     1      23.576   2.486  51.859  1.00  0.00     0.012 C 
HETATM    3  C3  UNL     1      24.708   1.686  52.323  1.00  0.00     0.005 C 
HETATM    4  C4  UNL     1      24.062   0.911  53.202  1.00  0.00     0.100 C 
HETATM    5  N1  UNL     1      24.400  -0.139  54.093  1.00  0.00    -0.371 N 
HETATM    6  C13 UNL     1      25.583  -0.511  54.793  1.00  0.00     0.273 C 
HETATM    7  N3  UNL     1      26.770  -0.617  53.969  1.00  0.00    -0.263 NA
HETATM    8  C14 UNL     1      27.369  -0.038  52.994  1.00  0.00     0.229 C 
HETATM    9  N4  UNL     1      27.157   1.081  52.169  1.00  0.00    -0.244 NA
HETATM   10  C15 UNL     1      26.097   1.782  51.890  1.00  0.00     0.075 C 
HETATM   11  C16 UNL     1      26.796   2.720  50.973  1.00  0.00     0.329 C 
HETATM   12  N5  UNL     1      25.945   3.883  50.798  1.00  0.00     0.092 N 
HETATM   13  C17 UNL     1      24.796   3.613  49.989  1.00  0.00     0.297 C 
HETATM   14  H22 UNL     1      25.648   4.284  51.710  1.00  0.00     0.316 HD
ENDROOT
BRANCH   5  15
HETATM   15  C5  UNL     1      23.316  -1.023  54.351  1.00  0.00     0.129 C 
BRANCH  15  16
HETATM   16  C6  UNL     1      21.945  -0.444  54.339  1.00  0.00     0.010 A 
HETATM   17  C7  UNL     1      20.858  -1.530  54.277  1.00  0.00     0.013 A 
HETATM   18  C8  UNL     1      21.069  -0.621  53.078  1.00  0.00     0.009 A 
BRANCH  18  19
HETATM   19  C9  UNL     1      19.962   0.340  52.816  1.00  0.00     0.124 C 
BRANCH  19  20
HETATM   20  N2  UNL     1      19.243   0.063  51.589  1.00  0.00    -0.392 N 
HETATM   21  H12 UNL     1      19.573   0.162  50.599  1.00  0.00     0.159 HD
BRANCH  20  22
HETATM   22  C10 UNL     1      17.888  -0.417  51.718  1.00  0.00     0.014 A 
HETATM   23  P1  UNL     1      16.382  -0.328  51.080  1.00  0.00    -0.035 P 
HETATM   24  C11 UNL     1      15.928  -1.501  52.399  1.00  0.00     0.051 A 
HETATM   25  C12 UNL     1      17.382  -1.357  52.726  1.00  0.00     0.063 A 
ENDBRANCH  20  22
ENDBRANCH  19  20
ENDBRANCH  18  19
ENDBRANCH  15  16
ENDBRANCH   5  15
TORSDOF 5
ENDMDL
MODEL 7
REMARK VINA RESULT:      -6.7      2.585      5.845
REMARK  5 active torsions:
REMARK  status: ('A' for Active; 'I' for Inactive)
REMARK    1  A    between atoms: N1_5  and  C5_6 
REMARK    2  A    between atoms: C5_6  and  C6_7 
REMARK    3  A    between atoms: C8_9  and  C9_10 
REMARK    4  A    between atoms: C9_10  and  N2_11 
REMARK    5  A    between atoms: N2_11  and  C10_12 
ROOT
HETATM    1  C1  UNL     1      23.153  -0.628  53.816  1.00  0.00     0.004 C 
HETATM    2  C2  UNL     1      23.106   0.609  53.300  1.00  0.00     0.012 C 
HETATM    3  C3  UNL     1      21.920   1.293  52.787  1.00  0.00     0.005 C 
HETATM    4  C4  UNL     1      22.518   2.361  52.249  1.00  0.00     0.100 C 
HETATM    5  N1  UNL     1      22.113   3.525  51.547  1.00  0.00    -0.371 N 
HETATM    6  C13 UNL     1      20.923   4.306  51.516  1.00  0.00     0.273 C 
HETATM    7  N3  UNL     1      19.706   3.553  51.286  1.00  0.00    -0.263 NA
HETATM    8  C14 UNL     1      19.133   2.452  51.605  1.00  0.00     0.229 C 
HETATM    9  N4  UNL     1      19.422   1.331  52.404  1.00  0.00    -0.244 NA
HETATM   10  C15 UNL     1      20.532   0.854  52.885  1.00  0.00     0.075 C 
HETATM   11  C16 UNL     1      19.895  -0.300  53.572  1.00  0.00     0.329 C 
HETATM   12  N5  UNL     1      20.843  -0.814  54.543  1.00  0.00     0.092 N 
HETATM   13  C17 UNL     1      21.937  -1.509  53.935  1.00  0.00     0.297 C 
HETATM   14  H22 UNL     1      21.204  -0.063  55.165  1.00  0.00     0.316 HD
ENDROOT
BRANCH   5  15
HETATM   15  C5  UNL     1      23.119   4.033  50.678  1.00  0.00     0.129 C 
BRANCH  15  16
HETATM   16  C6  UNL     1      24.530   3.946  51.143  1.00  0.00     0.010 A 
HETATM   17  C7  UNL     1      25.527   4.363  50.050  1.00  0.00     0.013 A 
HETATM   18  C8  UNL     1      25.471   2.910  50.489  1.00  0.00     0.009 A 
BRANCH  18  19
HETATM   19  C9  UNL     1      26.668   2.433  51.237  1.00  0.00     0.124 C 
BRANCH  19  20
HETATM   20  N2  UNL     1      26.417   1.234  52.011  1.00  0.00    -0.392 N 
HETATM   21  H12 UNL     1      25.545   0.655  52.058  1.00  0.00     0.159 HD
BRANCH  20  22
HETATM   22  C10 UNL     1      27.497   0.751  52.838  1.00  0.00     0.014 A 
HETATM   23  P1  UNL     1      28.718   1.210  53.828  1.00  0.00    -0.035 P 
HETATM   24  C11 UNL     1      29.045  -0.576  53.989  1.00  0.00     0.051 A 
HETATM   25  C12 UNL     1      27.873  -0.651  53.059  1.00  0.00     0.063 A 
ENDBRANCH  20  22
ENDBRANCH  19  20
ENDBRANCH  18  19
ENDBRANCH  15  16
ENDBRANCH   5  15
TORSDOF 5
ENDMDL
MODEL 8
REMARK VINA RESULT:      -6.6      3.224      7.228
REMARK  5 active torsions:
REMARK  status: ('A' for Active; 'I' for Inactive)
REMARK    1  A    between atoms: N1_5  and  C5_6 
REMARK    2  A    between atoms: C5_6  and  C6_7 
REMARK    3  A    between atoms: C8_9  and  C9_10 
REMARK    4  A    between atoms: C9_10  and  N2_11 
REMARK    5  A    between atoms: N2_11  and  C10_12 
ROOT
HETATM    1  C1  UNL     1      28.245   6.616  47.929  1.00  0.00     0.004 C 
HETATM    2  C2  UNL     1      27.730   5.503  48.471  1.00  0.00     0.012 C 
HETATM    3  C3  UNL     1      26.493   5.405  49.244  1.00  0.00     0.005 C 
HETATM    4  C4  UNL     1      26.616   4.141  49.666  1.00  0.00     0.100 C 
HETATM    5  N1  UNL     1      25.864   3.243  50.465  1.00  0.00    -0.371 N 
HETATM    6  C13 UNL     1      24.481   3.099  50.771  1.00  0.00     0.273 C 
HETATM    7  N3  UNL     1      23.832   4.307  51.239  1.00  0.00    -0.263 NA
HETATM    8  C14 UNL     1      23.790   5.571  51.026  1.00  0.00     0.229 C 
HETATM    9  N4  UNL     1      24.402   6.493  50.157  1.00  0.00    -0.244 NA
HETATM   10  C15 UNL     1      25.484   6.441  49.438  1.00  0.00     0.075 C 
HETATM   11  C16 UNL     1      25.337   7.809  48.877  1.00  0.00     0.329 C 
HETATM   12  N5  UNL     1      26.198   7.905  47.713  1.00  0.00     0.092 N 
HETATM   13  C17 UNL     1      27.587   7.965  48.054  1.00  0.00     0.297 C 
HETATM   14  H22 UNL     1      26.032   7.125  47.045  1.00  0.00     0.316 HD
ENDROOT
BRANCH   5  15
HETATM   15  C5  UNL     1      26.668   2.261  51.108  1.00  0.00     0.129 C 
BRANCH  15  16
HETATM   16  C6  UNL     1      26.517   2.114  52.582  1.00  0.00     0.010 A 
HETATM   17  C7  UNL     1      27.875   2.040  53.298  1.00  0.00     0.013 A 
HETATM   18  C8  UNL     1      26.990   0.806  53.255  1.00  0.00     0.009 A 
BRANCH  18  19
HETATM   19  C9  UNL     1      26.406   0.405  54.566  1.00  0.00     0.124 C 
BRANCH  19  20
HETATM   20  N2  UNL     1      25.630  -0.816  54.496  1.00  0.00    -0.392 N 
HETATM   21  H12 UNL     1      25.959  -1.808  54.582  1.00  0.00     0.159 HD
BRANCH  20  22
HETATM   22  C10 UNL     1      24.210  -0.678  54.278  1.00  0.00     0.014 A 
HETATM   23  P1  UNL     1      22.733  -1.133  54.821  1.00  0.00    -0.035 P 
HETATM   24  C11 UNL     1      22.092  -0.094  53.468  1.00  0.00     0.051 A 
HETATM   25  C12 UNL     1      23.556   0.120  53.234  1.00  0.00     0.063 A 
ENDBRANCH  20  22
ENDBRANCH  19  20
ENDBRANCH  18  19
ENDBRANCH  15  16
ENDBRANCH   5  15
TORSDOF 5
ENDMDL
MODEL 9
REMARK VINA RESULT:      -6.4      5.302      8.651
REMARK  5 active torsions:
REMARK  status: ('A' for Active; 'I' for Inactive)
REMARK    1  A    between atoms: N1_5  and  C5_6 
REMARK    2  A    between atoms: C5_6  and  C6_7 
REMARK    3  A    between atoms: C8_9  and  C9_10 
REMARK    4  A    between atoms: C9_10  and  N2_11 
REMARK    5  A    between atoms: N2_11  and  C10_12 
ROOT
HETATM    1  C1  UNL     1      30.633   5.476  47.840  1.00  0.00     0.004 C 
HETATM    2  C2  UNL     1      29.314   5.653  48.000  1.00  0.00     0.012 C 
HETATM    3  C3  UNL     1      28.651   6.859  48.494  1.00  0.00     0.005 C 
HETATM    4  C4  UNL     1      27.411   6.374  48.617  1.00  0.00     0.100 C 
HETATM    5  N1  UNL     1      26.147   6.867  49.031  1.00  0.00    -0.371 N 
HETATM    6  C13 UNL     1      25.533   8.151  49.042  1.00  0.00     0.273 C 
HETATM    7  N3  UNL     1      26.321   9.198  49.663  1.00  0.00    -0.263 NA
HETATM    8  C14 UNL     1      27.526   9.626  49.753  1.00  0.00     0.229 C 
HETATM    9  N4  UNL     1      28.791   9.266  49.254  1.00  0.00    -0.244 NA
HETATM   10  C15 UNL     1      29.256   8.162  48.747  1.00  0.00     0.075 C 
HETATM   11  C16 UNL     1      30.626   8.690  48.512  1.00  0.00     0.329 C 
HETATM   12  N5  UNL     1      31.289   7.800  47.577  1.00  0.00     0.092 N 
HETATM   13  C17 UNL     1      31.645   6.544  48.165  1.00  0.00     0.297 C 
HETATM   14  H22 UNL     1      30.716   7.641  46.724  1.00  0.00     0.316 HD
ENDROOT
BRANCH   5  15
HETATM   15  C5  UNL     1      25.296   5.854  49.554  1.00  0.00     0.129 C 
BRANCH  15  16
HETATM   16  C6  UNL     1      25.834   4.467  49.601  1.00  0.00     0.010 A 
HETATM   17  C7  UNL     1      24.731   3.411  49.423  1.00  0.00     0.013 A 
HETATM   18  C8  UNL     1      25.422   3.544  50.770  1.00  0.00     0.009 A 
BRANCH  18  19
HETATM   19  C9  UNL     1      26.299   2.399  51.142  1.00  0.00     0.124 C 
BRANCH  19  20
HETATM   20  N2  UNL     1      27.341   2.759  52.081  1.00  0.00    -0.392 N 
HETATM   21  H12 UNL     1      27.904   3.642  52.129  1.00  0.00     0.159 HD
BRANCH  20  22
HETATM   22  C10 UNL     1      27.669   1.790  53.100  1.00  0.00     0.014 A 
HETATM   23  P1  UNL     1      28.905   1.025  53.855  1.00  0.00    -0.035 P 
HETATM   24  C11 UNL     1      27.594   0.193  54.810  1.00  0.00     0.051 A 
HETATM   25  C12 UNL     1      26.723   1.048  53.941  1.00  0.00     0.063 A 
ENDBRANCH  20  22
ENDBRANCH  19  20
ENDBRANCH  18  19
ENDBRANCH  15  16
ENDBRANCH   5  15
TORSDOF 5
ENDMDL
