MODEL 1
REMARK VINA RESULT:      -8.7      0.000      0.000
REMARK  7 active torsions:
REMARK  status: ('A' for Active; 'I' for Inactive)
REMARK    1  A    between atoms: O1_2  and  C2_3 
REMARK    2  A    between atoms: C6_9  and  N3_10 
REMARK    3  A    between atoms: N3_10  and  C7_11 
REMARK    4  A    between atoms: C15_21  and  O2_22 
REMARK    5  A    between atoms: O2_22  and  C16_23 
REMARK    6  A    between atoms: C16_23  and  C17_24 
REMARK    7  A    between atoms: C17_24  and  N4_25 
ROOT
HETATM    1  C2  UNL     1      19.775  -0.545  53.117  1.00  0.00     0.103 A 
HETATM    2  C3  UNL     1      20.377  -1.207  54.191  1.00  0.00     0.072 A 
HETATM    3  C4  UNL     1      21.747  -1.038  54.323  1.00  0.00     0.075 A 
HETATM    4  N1  UNL     1      22.351  -1.654  55.348  1.00  0.00    -0.241 NA
HETATM    5  C5  UNL     1      23.672  -1.521  55.530  1.00  0.00     0.236 A 
HETATM    6  N2  UNL     1      24.380  -0.763  54.673  1.00  0.00    -0.224 NA
HETATM    7  C6  UNL     1      23.815  -0.126  53.630  1.00  0.00     0.142 A 
HETATM    8  C13 UNL     1      22.461  -0.266  53.448  1.00  0.00     0.042 A 
HETATM    9  C14 UNL     1      21.882   0.389  52.390  1.00  0.00     0.057 A 
HETATM   10  C15 UNL     1      20.510   0.247  52.222  1.00  0.00     0.103 A 
ENDROOT
BRANCH   7  11
HETATM   11  N3  UNL     1      24.700   0.642  52.828  1.00  0.00    -0.340 N 
HETATM   12  H6  UNL     1      24.443   1.387  52.170  1.00  0.00     0.167 HD
BRANCH  11  13
HETATM   13  C7  UNL     1      26.071   0.270  53.016  1.00  0.00     0.035 A 
HETATM   14  C8  UNL     1      26.564  -0.968  52.678  1.00  0.00     0.032 A 
HETATM   15  C9  UNL     1      27.890  -1.341  52.884  1.00  0.00     0.046 A 
HETATM   16  C10 UNL     1      28.754  -0.429  53.451  1.00  0.00     0.138 A 
HETATM   17  F1  UNL     1      30.060  -0.800  53.653  1.00  0.00    -0.204 F 
HETATM   18  C11 UNL     1      28.263   0.814  53.790  1.00  0.00     0.074 A 
HETATM   19 CL1  UNL     1      29.438   1.912  54.514  1.00  0.00    -0.081 Cl
HETATM   20  C12 UNL     1      26.951   1.172  53.582  1.00  0.00     0.056 A 
ENDBRANCH  11  13
ENDBRANCH   7  11
BRANCH  10  21
HETATM   21  O2  UNL     1      19.809   0.784  51.296  1.00  0.00    -0.347 OA
BRANCH  21  22
HETATM   22  C16 UNL     1      19.242   1.351  50.258  1.00  0.00     0.206 C 
BRANCH  22  23
HETATM   23  C17 UNL     1      20.176   1.498  49.071  1.00  0.00     0.299 C 
BRANCH  23  24
HETATM   24  N4  UNL     1      20.525   2.864  48.775  1.00  0.00     0.090 N 
HETATM   25  C18 UNL     1      21.237   3.018  47.526  1.00  0.00     0.273 C 
HETATM   26  C19 UNL     1      22.621   2.499  47.714  1.00  0.00     0.036 C 
HETATM   27  C20 UNL     1      22.836   2.452  49.219  1.00  0.00     0.011 C 
HETATM   28  C21 UNL     1      24.097   3.230  49.570  1.00  0.00     0.011 C 
HETATM   29  C22 UNL     1      21.607   3.186  49.727  1.00  0.00     0.276 C 
ENDBRANCH  23  24
ENDBRANCH  22  23
ENDBRANCH  21  22
ENDBRANCH  10  21
BRANCH   1  30
HETATM   30  O1  UNL     1      18.382  -0.726  52.996  1.00  0.00    -0.353 OA
HETATM   31  C1  UNL     1      17.834  -1.923  53.474  1.00  0.00     0.210 C 
ENDBRANCH   1  30
TORSDOF 7
ENDMDL
MODEL 2
REMARK VINA RESULT:      -8.3      2.203      5.270
REMARK  7 active torsions:
REMARK  status: ('A' for Active; 'I' for Inactive)
REMARK    1  A    between atoms: O1_2  and  C2_3 
REMARK    2  A    between atoms: C6_9  and  N3_10 
REMARK    3  A    between atoms: N3_10  and  C7_11 
REMARK    4  A    between atoms: C15_21  and  O2_22 
REMARK    5  A    between atoms: O2_22  and  C16_23 
REMARK    6  A    between atoms: C16_23  and  C17_24 
REMARK    7  A    between atoms: C17_24  and  N4_25 
ROOT
HETATM    1  C2  UNL     1      22.252   3.745  49.747  1.00  0.00     0.103 A 
HETATM    2  C3  UNL     1      23.408   4.000  49.003  1.00  0.00     0.072 A 
HETATM    3  C4  UNL     1      24.614   3.748  49.640  1.00  0.00     0.075 A 
HETATM    4  N1  UNL     1      25.739   3.975  48.949  1.00  0.00    -0.241 NA
HETATM    5  C5  UNL     1      26.932   3.742  49.511  1.00  0.00     0.236 A 
HETATM    6  N2  UNL     1      26.986   3.279  50.772  1.00  0.00    -0.224 NA
HETATM    7  C6  UNL     1      25.882   3.036  51.504  1.00  0.00     0.142 A 
HETATM    8  C13 UNL     1      24.661   3.276  50.923  1.00  0.00     0.042 A 
HETATM    9  C14 UNL     1      23.534   3.022  51.665  1.00  0.00     0.057 A 
HETATM   10  C15 UNL     1      22.304   3.261  51.063  1.00  0.00     0.103 A 
ENDROOT
BRANCH   7  11
HETATM   11  N3  UNL     1      26.111   2.538  52.813  1.00  0.00    -0.340 N 
HETATM   12  H6  UNL     1      25.964   3.040  53.696  1.00  0.00     0.167 HD
BRANCH  11  13
HETATM   13  C7  UNL     1      26.599   1.191  52.809  1.00  0.00     0.035 A 
HETATM   14  C8  UNL     1      25.808   0.108  52.504  1.00  0.00     0.032 A 
HETATM   15  C9  UNL     1      26.274  -1.204  52.525  1.00  0.00     0.046 A 
HETATM   16  C10 UNL     1      27.589  -1.435  52.864  1.00  0.00     0.138 A 
HETATM   17  F1  UNL     1      28.045  -2.729  52.884  1.00  0.00    -0.204 F 
HETATM   18  C11 UNL     1      28.386  -0.352  53.169  1.00  0.00     0.074 A 
HETATM   19 CL1  UNL     1      30.052  -0.743  53.596  1.00  0.00    -0.081 Cl
HETATM   20  C12 UNL     1      27.916   0.941  53.146  1.00  0.00     0.056 A 
ENDBRANCH  11  13
ENDBRANCH   7  11
BRANCH  10  21
HETATM   21  O2  UNL     1      21.158   3.079  51.603  1.00  0.00    -0.347 OA
BRANCH  21  22
HETATM   22  C16 UNL     1      20.061   2.764  52.249  1.00  0.00     0.206 C 
BRANCH  22  23
HETATM   23  C17 UNL     1      20.238   1.590  53.194  1.00  0.00     0.299 C 
BRANCH  23  24
HETATM   24  N4  UNL     1      20.769   0.410  52.558  1.00  0.00     0.090 N 
HETATM   25  C18 UNL     1      20.064  -0.801  52.914  1.00  0.00     0.273 C 
HETATM   26  C19 UNL     1      20.428  -1.154  54.315  1.00  0.00     0.036 C 
HETATM   27  C20 UNL     1      21.699  -0.374  54.613  1.00  0.00     0.011 C 
HETATM   28  C21 UNL     1      22.776  -1.336  55.096  1.00  0.00     0.011 C 
HETATM   29  C22 UNL     1      22.056   0.168  53.240  1.00  0.00     0.276 C 
ENDBRANCH  23  24
ENDBRANCH  22  23
ENDBRANCH  21  22
ENDBRANCH  10  21
BRANCH   1  30
HETATM   30  O1  UNL     1      21.035   4.007  49.086  1.00  0.00    -0.353 OA
HETATM   31  C1  UNL     1      20.800   3.360  47.867  1.00  0.00     0.210 C 
ENDBRANCH   1  30
TORSDOF 7
ENDMDL
MODEL 3
REMARK VINA RESULT:      -8.3      3.527      6.735
REMARK  7 active torsions:
REMARK  status: ('A' for Active; 'I' for Inactive)
REMARK    1  A    between atoms: O1_2  and  C2_3 
REMARK    2  A    between atoms: C6_9  and  N3_10 
REMARK    3  A    between atoms: N3_10  and  C7_11 
REMARK    4  A    between atoms: C15_21  and  O2_22 
REMARK    5  A    between atoms: O2_22  and  C16_23 
REMARK    6  A    between atoms: C16_23  and  C17_24 
REMARK    7  A    between atoms: C17_24  and  N4_25 
ROOT
HETATM    1  C2  UNL     1      22.191   0.146  52.806  1.00  0.00     0.103 A 
HETATM    2  C3  UNL     1      21.146   0.797  52.144  1.00  0.00     0.072 A 
HETATM    3  C4  UNL     1      21.326   2.150  51.898  1.00  0.00     0.075 A 
HETATM    4  N1  UNL     1      20.346   2.800  51.257  1.00  0.00    -0.241 NA
HETATM    5  C5  UNL     1      20.468   4.106  50.987  1.00  0.00     0.236 A 
HETATM    6  N2  UNL     1      21.584   4.754  51.365  1.00  0.00    -0.224 NA
HETATM    7  C6  UNL     1      22.595   4.142  52.011  1.00  0.00     0.142 A 
HETATM    8  C13 UNL     1      22.464   2.803  52.286  1.00  0.00     0.042 A 
HETATM    9  C14 UNL     1      23.497   2.175  52.937  1.00  0.00     0.057 A 
HETATM   10  C15 UNL     1      23.357   0.818  53.202  1.00  0.00     0.103 A 
ENDROOT
BRANCH   7  11
HETATM   11  N3  UNL     1      23.707   4.965  52.330  1.00  0.00    -0.340 N 
HETATM   12  H6  UNL     1      24.009   5.254  53.267  1.00  0.00     0.167 HD
BRANCH  11  13
HETATM   13  C7  UNL     1      24.421   5.394  51.164  1.00  0.00     0.035 A 
HETATM   14  C8  UNL     1      25.019   4.519  50.288  1.00  0.00     0.032 A 
HETATM   15  C9  UNL     1      25.737   4.935  49.169  1.00  0.00     0.046 A 
HETATM   16  C10 UNL     1      25.855   6.286  48.922  1.00  0.00     0.138 A 
HETATM   17  F1  UNL     1      26.563   6.692  47.819  1.00  0.00    -0.204 F 
HETATM   18  C11 UNL     1      25.256   7.166  49.798  1.00  0.00     0.074 A 
HETATM   19 CL1  UNL     1      25.465   8.873  49.406  1.00  0.00    -0.081 Cl
HETATM   20  C12 UNL     1      24.549   6.744  50.901  1.00  0.00     0.056 A 
ENDBRANCH  11  13
ENDBRANCH   7  11
BRANCH  10  21
HETATM   21  O2  UNL     1      24.216   0.078  53.795  1.00  0.00    -0.347 OA
BRANCH  21  22
HETATM   22  C16 UNL     1      25.088  -0.564  54.535  1.00  0.00     0.206 C 
BRANCH  22  23
HETATM   23  C17 UNL     1      26.377   0.208  54.748  1.00  0.00     0.299 C 
BRANCH  23  24
HETATM   24  N4  UNL     1      26.996   0.650  53.523  1.00  0.00     0.090 N 
HETATM   25  C18 UNL     1      27.114  -0.393  52.529  1.00  0.00     0.273 C 
HETATM   26  C19 UNL     1      28.190  -1.328  52.965  1.00  0.00     0.036 C 
HETATM   27  C20 UNL     1      28.996  -0.563  54.003  1.00  0.00     0.011 C 
HETATM   28  C21 UNL     1      30.465  -0.567  53.601  1.00  0.00     0.011 C 
HETATM   29  C22 UNL     1      28.419   0.835  53.871  1.00  0.00     0.276 C 
ENDBRANCH  23  24
ENDBRANCH  22  23
ENDBRANCH  21  22
ENDBRANCH  10  21
BRANCH   1  30
HETATM   30  O1  UNL     1      21.993  -1.229  53.048  1.00  0.00    -0.353 OA
HETATM   31  C1  UNL     1      21.231  -1.593  54.164  1.00  0.00     0.210 C 
ENDBRANCH   1  30
TORSDOF 7
ENDMDL
MODEL 4
REMARK VINA RESULT:      -8.3      7.057     10.387
REMARK  7 active torsions:
REMARK  status: ('A' for Active; 'I' for Inactive)
REMARK    1  A    between atoms: O1_2  and  C2_3 
REMARK    2  A    between atoms: C6_9  and  N3_10 
REMARK    3  A    between atoms: N3_10  and  C7_11 
REMARK    4  A    between atoms: C15_21  and  O2_22 
REMARK    5  A    between atoms: O2_22  and  C16_23 
REMARK    6  A    between atoms: C16_23  and  C17_24 
REMARK    7  A    between atoms: C17_24  and  N4_25 
ROOT
HETATM    1  C2  UNL     1      29.090   6.939  48.214  1.00  0.00     0.103 A 
HETATM    2  C3  UNL     1      27.975   7.706  48.565  1.00  0.00     0.072 A 
HETATM    3  C4  UNL     1      26.836   6.999  48.924  1.00  0.00     0.075 A 
HETATM    4  N1  UNL     1      25.753   7.706  49.274  1.00  0.00    -0.241 NA
HETATM    5  C5  UNL     1      24.627   7.077  49.636  1.00  0.00     0.236 A 
HETATM    6  N2  UNL     1      24.599   5.733  49.644  1.00  0.00    -0.224 NA
HETATM    7  C6  UNL     1      25.662   4.982  49.301  1.00  0.00     0.142 A 
HETATM    8  C13 UNL     1      26.814   5.631  48.930  1.00  0.00     0.042 A 
HETATM    9  C14 UNL     1      27.902   4.868  48.587  1.00  0.00     0.057 A 
HETATM   10  C15 UNL     1      29.064   5.537  48.223  1.00  0.00     0.103 A 
ENDROOT
BRANCH   7  11
HETATM   11  N3  UNL     1      25.471   3.577  49.374  1.00  0.00    -0.340 N 
HETATM   12  H6  UNL     1      25.273   2.942  48.592  1.00  0.00     0.167 HD
BRANCH  11  13
HETATM   13  C7  UNL     1      25.579   3.079  50.714  1.00  0.00     0.035 A 
HETATM   14  C8  UNL     1      24.517   3.048  51.588  1.00  0.00     0.032 A 
HETATM   15  C9  UNL     1      24.625   2.589  52.899  1.00  0.00     0.046 A 
HETATM   16  C10 UNL     1      25.850   2.143  53.346  1.00  0.00     0.138 A 
HETATM   17  F1  UNL     1      25.953   1.693  54.638  1.00  0.00    -0.204 F 
HETATM   18  C11 UNL     1      26.916   2.172  52.471  1.00  0.00     0.074 A 
HETATM   19 CL1  UNL     1      28.443   1.587  53.131  1.00  0.00    -0.081 Cl
HETATM   20  C12 UNL     1      26.798   2.627  51.178  1.00  0.00     0.056 A 
ENDBRANCH  11  13
ENDBRANCH   7  11
BRANCH  10  21
HETATM   21  O2  UNL     1      30.167   4.988  47.876  1.00  0.00    -0.347 OA
BRANCH  21  22
HETATM   22  C16 UNL     1      31.271   4.499  47.365  1.00  0.00     0.206 C 
BRANCH  22  23
HETATM   23  C17 UNL     1      32.511   4.850  48.168  1.00  0.00     0.299 C 
BRANCH  23  24
HETATM   24  N4  UNL     1      33.724   4.850  47.390  1.00  0.00     0.090 N 
HETATM   25  C18 UNL     1      34.895   4.478  48.151  1.00  0.00     0.273 C 
HETATM   26  C19 UNL     1      35.242   5.612  49.053  1.00  0.00     0.036 C 
HETATM   27  C20 UNL     1      34.517   6.821  48.483  1.00  0.00     0.011 C 
HETATM   28  C21 UNL     1      35.520   7.942  48.248  1.00  0.00     0.011 C 
HETATM   29  C22 UNL     1      34.015   6.279  47.156  1.00  0.00     0.276 C 
ENDBRANCH  23  24
ENDBRANCH  22  23
ENDBRANCH  21  22
ENDBRANCH  10  21
BRANCH   1  30
HETATM   30  O1  UNL     1      30.239   7.672  47.853  1.00  0.00    -0.353 OA
HETATM   31  C1  UNL     1      30.945   8.326  48.869  1.00  0.00     0.210 C 
ENDBRANCH   1  30
TORSDOF 7
ENDMDL
MODEL 5
REMARK VINA RESULT:      -8.2      6.551      9.632
REMARK  7 active torsions:
REMARK  status: ('A' for Active; 'I' for Inactive)
REMARK    1  A    between atoms: O1_2  and  C2_3 
REMARK    2  A    between atoms: C6_9  and  N3_10 
REMARK    3  A    between atoms: N3_10  and  C7_11 
REMARK    4  A    between atoms: C15_21  and  O2_22 
REMARK    5  A    between atoms: O2_22  and  C16_23 
REMARK    6  A    between atoms: C16_23  and  C17_24 
REMARK    7  A    between atoms: C17_24  and  N4_25 
ROOT
HETATM    1  C2  UNL     1      27.998   7.063  48.297  1.00  0.00     0.103 A 
HETATM    2  C3  UNL     1      26.715   7.336  48.780  1.00  0.00     0.072 A 
HETATM    3  C4  UNL     1      26.007   6.253  49.280  1.00  0.00     0.075 A 
HETATM    4  N1  UNL     1      24.777   6.484  49.758  1.00  0.00    -0.241 NA
HETATM    5  C5  UNL     1      24.049   5.477  50.259  1.00  0.00     0.236 A 
HETATM    6  N2  UNL     1      24.568   4.237  50.276  1.00  0.00    -0.224 NA
HETATM    7  C6  UNL     1      25.798   3.957  49.807  1.00  0.00     0.142 A 
HETATM    8  C13 UNL     1      26.540   4.993  49.294  1.00  0.00     0.042 A 
HETATM    9  C14 UNL     1      27.798   4.712  48.822  1.00  0.00     0.057 A 
HETATM   10  C15 UNL     1      28.542   5.770  48.314  1.00  0.00     0.103 A 
ENDROOT
BRANCH   7  11
HETATM   11  N3  UNL     1      26.200   2.600  49.908  1.00  0.00    -0.340 N 
HETATM   12  H6  UNL     1      26.440   1.970  49.134  1.00  0.00     0.167 HD
BRANCH  11  13
HETATM   13  C7  UNL     1      26.245   2.142  51.266  1.00  0.00     0.035 A 
HETATM   14  C8  UNL     1      27.264   2.465  52.131  1.00  0.00     0.032 A 
HETATM   15  C9  UNL     1      27.322   2.000  53.443  1.00  0.00     0.046 A 
HETATM   16  C10 UNL     1      26.314   1.179  53.901  1.00  0.00     0.138 A 
HETATM   17  F1  UNL     1      26.376   0.723  55.194  1.00  0.00    -0.204 F 
HETATM   18  C11 UNL     1      25.291   0.855  53.036  1.00  0.00     0.074 A 
HETATM   19 CL1  UNL     1      24.050  -0.203  53.706  1.00  0.00    -0.081 Cl
HETATM   20  C12 UNL     1      25.242   1.319  51.741  1.00  0.00     0.056 A 
ENDBRANCH  11  13
ENDBRANCH   7  11
BRANCH  10  21
HETATM   21  O2  UNL     1      29.727   5.690  47.836  1.00  0.00    -0.347 OA
BRANCH  21  22
HETATM   22  C16 UNL     1      30.904   5.759  47.262  1.00  0.00     0.206 C 
BRANCH  22  23
HETATM   23  C17 UNL     1      31.919   4.801  47.859  1.00  0.00     0.299 C 
BRANCH  23  24
HETATM   24  N4  UNL     1      32.069   3.578  47.112  1.00  0.00     0.090 N 
HETATM   25  C18 UNL     1      33.022   2.661  47.696  1.00  0.00     0.273 C 
HETATM   26  C19 UNL     1      34.390   3.202  47.461  1.00  0.00     0.036 C 
HETATM   27  C20 UNL     1      34.237   4.221  46.343  1.00  0.00     0.011 C 
HETATM   28  C21 UNL     1      35.206   3.883  45.219  1.00  0.00     0.011 C 
HETATM   29  C22 UNL     1      32.807   3.973  45.896  1.00  0.00     0.276 C 
ENDBRANCH  23  24
ENDBRANCH  22  23
ENDBRANCH  21  22
ENDBRANCH  10  21
BRANCH   1  30
HETATM   30  O1  UNL     1      28.705   8.173  47.793  1.00  0.00    -0.353 OA
HETATM   31  C1  UNL     1      29.141   9.140  48.706  1.00  0.00     0.210 C 
ENDBRANCH   1  30
TORSDOF 7
ENDMDL
MODEL 6
REMARK VINA RESULT:      -8.1      3.462      6.844
REMARK  7 active torsions:
REMARK  status: ('A' for Active; 'I' for Inactive)
REMARK    1  A    between atoms: O1_2  and  C2_3 
REMARK    2  A    between atoms: C6_9  and  N3_10 
REMARK    3  A    between atoms: N3_10  and  C7_11 
REMARK    4  A    between atoms: C15_21  and  O2_22 
REMARK    5  A    between atoms: O2_22  and  C16_23 
REMARK    6  A    between atoms: C16_23  and  C17_24 
REMARK    7  A    between atoms: C17_24  and  N4_25 
ROOT
HETATM    1  C2  UNL     1      21.689   0.523  51.830  1.00  0.00     0.103 A 
HETATM    2  C3  UNL     1      21.019   1.099  50.746  1.00  0.00     0.072 A 
HETATM    3  C4  UNL     1      21.761   1.970  49.962  1.00  0.00     0.075 A 
HETATM    4  N1  UNL     1      21.149   2.532  48.911  1.00  0.00    -0.241 NA
HETATM    5  C5  UNL     1      21.818   3.376  48.115  1.00  0.00     0.236 A 
HETATM    6  N2  UNL     1      23.107   3.650  48.383  1.00  0.00    -0.224 NA
HETATM    7  C6  UNL     1      23.762   3.110  49.427  1.00  0.00     0.142 A 
HETATM    8  C13 UNL     1      23.072   2.245  50.241  1.00  0.00     0.042 A 
HETATM    9  C14 UNL     1      23.740   1.687  51.302  1.00  0.00     0.057 A 
HETATM   10  C15 UNL     1      23.033   0.807  52.113  1.00  0.00     0.103 A 
ENDROOT
BRANCH   7  11
HETATM   11  N3  UNL     1      25.122   3.494  49.564  1.00  0.00    -0.340 N 
HETATM   12  H6  UNL     1      25.942   2.878  49.520  1.00  0.00     0.167 HD
BRANCH  11  13
HETATM   13  C7  UNL     1      25.273   4.901  49.789  1.00  0.00     0.035 A 
HETATM   14  C8  UNL     1      24.499   5.604  50.683  1.00  0.00     0.032 A 
HETATM   15  C9  UNL     1      24.627   6.976  50.884  1.00  0.00     0.046 A 
HETATM   16  C10 UNL     1      25.572   7.667  50.158  1.00  0.00     0.138 A 
HETATM   17  F1  UNL     1      25.694   9.019  50.358  1.00  0.00    -0.204 F 
HETATM   18  C11 UNL     1      26.350   6.965  49.262  1.00  0.00     0.074 A 
HETATM   19 CL1  UNL     1      27.528   7.933  48.374  1.00  0.00    -0.081 Cl
HETATM   20  C12 UNL     1      26.216   5.610  49.070  1.00  0.00     0.056 A 
ENDBRANCH  11  13
ENDBRANCH   7  11
BRANCH  10  21
HETATM   21  O2  UNL     1      23.496   0.197  53.138  1.00  0.00    -0.347 OA
BRANCH  21  22
HETATM   22  C16 UNL     1      24.063  -0.524  54.075  1.00  0.00     0.206 C 
BRANCH  22  23
HETATM   23  C17 UNL     1      25.572  -0.607  53.937  1.00  0.00     0.299 C 
BRANCH  23  24
HETATM   24  N4  UNL     1      26.273   0.472  54.584  1.00  0.00     0.090 N 
HETATM   25  C18 UNL     1      26.576   1.575  53.699  1.00  0.00     0.273 C 
HETATM   26  C19 UNL     1      27.674   1.149  52.786  1.00  0.00     0.036 C 
HETATM   27  C20 UNL     1      28.307  -0.064  53.451  1.00  0.00     0.011 C 
HETATM   28  C21 UNL     1      29.804   0.171  53.601  1.00  0.00     0.011 C 
HETATM   29  C22 UNL     1      27.635  -0.052  54.813  1.00  0.00     0.276 C 
ENDBRANCH  23  24
ENDBRANCH  22  23
ENDBRANCH  21  22
ENDBRANCH  10  21
BRANCH   1  30
HETATM   30  O1  UNL     1      20.922  -0.360  52.617  1.00  0.00    -0.353 OA
HETATM   31  C1  UNL     1      20.120   0.190  53.624  1.00  0.00     0.210 C 
ENDBRANCH   1  30
TORSDOF 7
ENDMDL
MODEL 7
REMARK VINA RESULT:      -8.0      2.431      3.737
REMARK  7 active torsions:
REMARK  status: ('A' for Active; 'I' for Inactive)
REMARK    1  A    between atoms: O1_2  and  C2_3 
REMARK    2  A    between atoms: C6_9  and  N3_10 
REMARK    3  A    between atoms: N3_10  and  C7_11 
REMARK    4  A    between atoms: C15_21  and  O2_22 
REMARK    5  A    between atoms: O2_22  and  C16_23 
REMARK    6  A    between atoms: C16_23  and  C17_24 
REMARK    7  A    between atoms: C17_24  and  N4_25 
ROOT
HETATM    1  C2  UNL     1      21.722   1.566  50.028  1.00  0.00     0.103 A 
HETATM    2  C3  UNL     1      21.174   0.631  50.911  1.00  0.00     0.072 A 
HETATM    3  C4  UNL     1      21.953   0.298  52.009  1.00  0.00     0.075 A 
HETATM    4  N1  UNL     1      21.452  -0.589  52.879  1.00  0.00    -0.241 NA
HETATM    5  C5  UNL     1      22.156  -0.944  53.961  1.00  0.00     0.236 A 
HETATM    6  N2  UNL     1      23.369  -0.399  54.163  1.00  0.00    -0.224 NA
HETATM    7  C6  UNL     1      23.913   0.496  53.317  1.00  0.00     0.142 A 
HETATM    8  C13 UNL     1      23.187   0.856  52.208  1.00  0.00     0.042 A 
HETATM    9  C14 UNL     1      23.736   1.774  51.348  1.00  0.00     0.057 A 
HETATM   10  C15 UNL     1      22.987   2.137  50.235  1.00  0.00     0.103 A 
ENDROOT
BRANCH   7  11
HETATM   11  N3  UNL     1      25.196   0.983  53.680  1.00  0.00    -0.340 N 
HETATM   12  H6  UNL     1      25.411   1.897  54.095  1.00  0.00     0.167 HD
BRANCH  11  13
HETATM   13  C7  UNL     1      26.239   0.041  53.401  1.00  0.00     0.035 A 
HETATM   14  C8  UNL     1      25.996  -1.220  52.909  1.00  0.00     0.032 A 
HETATM   15  C9  UNL     1      27.007  -2.146  52.661  1.00  0.00     0.046 A 
HETATM   16  C10 UNL     1      28.312  -1.788  52.917  1.00  0.00     0.138 A 
HETATM   17  F1  UNL     1      29.305  -2.704  52.673  1.00  0.00    -0.204 F 
HETATM   18  C11 UNL     1      28.559  -0.523  53.409  1.00  0.00     0.074 A 
HETATM   19 CL1  UNL     1      30.257  -0.155  53.712  1.00  0.00    -0.081 Cl
HETATM   20  C12 UNL     1      27.554   0.384  53.651  1.00  0.00     0.056 A 
ENDBRANCH  11  13
ENDBRANCH   7  11
BRANCH  10  21
HETATM   21  O2  UNL     1      23.341   2.974  49.335  1.00  0.00    -0.347 OA
BRANCH  21  22
HETATM   22  C16 UNL     1      23.538   3.890  48.418  1.00  0.00     0.206 C 
BRANCH  22  23
HETATM   23  C17 UNL     1      23.865   5.256  48.994  1.00  0.00     0.299 C 
BRANCH  23  24
HETATM   24  N4  UNL     1      24.843   5.218  50.052  1.00  0.00     0.090 N 
HETATM   25  C18 UNL     1      25.337   6.525  50.425  1.00  0.00     0.273 C 
HETATM   26  C19 UNL     1      26.239   7.006  49.341  1.00  0.00     0.036 C 
HETATM   27  C20 UNL     1      26.611   5.766  48.542  1.00  0.00     0.011 C 
HETATM   28  C21 UNL     1      28.128   5.659  48.459  1.00  0.00     0.011 C 
HETATM   29  C22 UNL     1      26.054   4.659  49.418  1.00  0.00     0.276 C 
ENDBRANCH  23  24
ENDBRANCH  22  23
ENDBRANCH  21  22
ENDBRANCH  10  21
BRANCH   1  30
HETATM   30  O1  UNL     1      20.919   1.894  48.917  1.00  0.00    -0.353 OA
HETATM   31  C1  UNL     1      19.786   2.686  49.140  1.00  0.00     0.210 C 
ENDBRANCH   1  30
TORSDOF 7
ENDMDL
MODEL 8
REMARK VINA RESULT:      -7.9      6.643      9.822
REMARK  7 active torsions:
REMARK  status: ('A' for Active; 'I' for Inactive)
REMARK    1  A    between atoms: O1_2  and  C2_3 
REMARK    2  A    between atoms: C6_9  and  N3_10 
REMARK    3  A    between atoms: N3_10  and  C7_11 
REMARK    4  A    between atoms: C15_21  and  O2_22 
REMARK    5  A    between atoms: O2_22  and  C16_23 
REMARK    6  A    between atoms: C16_23  and  C17_24 
REMARK    7  A    between atoms: C17_24  and  N4_25 
ROOT
HETATM    1  C2  UNL     1      28.097   7.200  48.359  1.00  0.00     0.103 A 
HETATM    2  C3  UNL     1      26.844   7.632  48.803  1.00  0.00     0.072 A 
HETATM    3  C4  UNL     1      25.961   6.639  49.201  1.00  0.00     0.075 A 
HETATM    4  N1  UNL     1      24.755   7.022  49.640  1.00  0.00    -0.241 NA
HETATM    5  C5  UNL     1      23.864   6.108  50.044  1.00  0.00     0.236 A 
HETATM    6  N2  UNL     1      24.195   4.805  50.005  1.00  0.00    -0.224 NA
HETATM    7  C6  UNL     1      25.395   4.374  49.572  1.00  0.00     0.142 A 
HETATM    8  C13 UNL     1      26.305   5.315  49.158  1.00  0.00     0.042 A 
HETATM    9  C14 UNL     1      27.532   4.878  48.724  1.00  0.00     0.057 A 
HETATM   10  C15 UNL     1      28.447   5.841  48.317  1.00  0.00     0.103 A 
ENDROOT
BRANCH   7  11
HETATM   11  N3  UNL     1      25.590   2.968  49.604  1.00  0.00    -0.340 N 
HETATM   12  H6  UNL     1      25.612   2.332  48.799  1.00  0.00     0.167 HD
BRANCH  11  13
HETATM   13  C7  UNL     1      25.761   2.470  50.937  1.00  0.00     0.035 A 
HETATM   14  C8  UNL     1      24.752   1.855  51.641  1.00  0.00     0.032 A 
HETATM   15  C9  UNL     1      24.908   1.394  52.947  1.00  0.00     0.046 A 
HETATM   16  C10 UNL     1      26.128   1.557  53.565  1.00  0.00     0.138 A 
HETATM   17  F1  UNL     1      26.278   1.102  54.851  1.00  0.00    -0.204 F 
HETATM   18  C11 UNL     1      27.142   2.171  52.861  1.00  0.00     0.074 A 
HETATM   19 CL1  UNL     1      28.664   2.341  53.735  1.00  0.00    -0.081 Cl
HETATM   20  C12 UNL     1      26.977   2.624  51.573  1.00  0.00     0.056 A 
ENDBRANCH  11  13
ENDBRANCH   7  11
BRANCH  10  21
HETATM   21  O2  UNL     1      29.631   5.615  47.886  1.00  0.00    -0.347 OA
BRANCH  21  22
HETATM   22  C16 UNL     1      30.827   5.224  47.519  1.00  0.00     0.206 C 
BRANCH  22  23
HETATM   23  C17 UNL     1      31.801   6.373  47.330  1.00  0.00     0.299 C 
BRANCH  23  24
HETATM   24  N4  UNL     1      32.247   6.962  48.567  1.00  0.00     0.090 N 
HETATM   25  C18 UNL     1      33.206   8.029  48.383  1.00  0.00     0.273 C 
HETATM   26  C19 UNL     1      34.504   7.419  47.979  1.00  0.00     0.036 C 
HETATM   27  C20 UNL     1      34.401   5.951  48.364  1.00  0.00     0.011 C 
HETATM   28  C21 UNL     1      35.586   5.580  49.245  1.00  0.00     0.011 C 
HETATM   29  C22 UNL     1      33.118   5.937  49.175  1.00  0.00     0.276 C 
ENDBRANCH  23  24
ENDBRANCH  22  23
ENDBRANCH  21  22
ENDBRANCH  10  21
BRANCH   1  30
HETATM   30  O1  UNL     1      28.984   8.220  47.957  1.00  0.00    -0.353 OA
HETATM   31  C1  UNL     1      28.592   9.047  46.898  1.00  0.00     0.210 C 
ENDBRANCH   1  30
TORSDOF 7
ENDMDL
MODEL 9
REMARK VINA RESULT:      -7.7      5.613      8.088
REMARK  7 active torsions:
REMARK  status: ('A' for Active; 'I' for Inactive)
REMARK    1  A    between atoms: O1_2  and  C2_3 
REMARK    2  A    between atoms: C6_9  and  N3_10 
REMARK    3  A    between atoms: N3_10  and  C7_11 
REMARK    4  A    between atoms: C15_21  and  O2_22 
REMARK    5  A    between atoms: O2_22  and  C16_23 
REMARK    6  A    between atoms: C16_23  and  C17_24 
REMARK    7  A    between atoms: C17_24  and  N4_25 
ROOT
HETATM    1  C2  UNL     1      25.692   6.873  49.728  1.00  0.00     0.103 A 
HETATM    2  C3  UNL     1      24.572   6.924  50.563  1.00  0.00     0.072 A 
HETATM    3  C4  UNL     1      24.093   5.705  51.017  1.00  0.00     0.075 A 
HETATM    4  N1  UNL     1      23.025   5.721  51.827  1.00  0.00    -0.241 NA
HETATM    5  C5  UNL     1      22.522   4.575  52.302  1.00  0.00     0.236 A 
HETATM    6  N2  UNL     1      23.102   3.411  51.958  1.00  0.00    -0.224 NA
HETATM    7  C6  UNL     1      24.176   3.346  51.149  1.00  0.00     0.142 A 
HETATM    8  C13 UNL     1      24.687   4.524  50.664  1.00  0.00     0.042 A 
HETATM    9  C14 UNL     1      25.787   4.460  49.844  1.00  0.00     0.057 A 
HETATM   10  C15 UNL     1      26.300   5.661  49.367  1.00  0.00     0.103 A 
ENDROOT
BRANCH   7  11
HETATM   11  N3  UNL     1      24.674   2.041  50.894  1.00  0.00    -0.340 N 
HETATM   12  H6  UNL     1      24.534   1.486  50.042  1.00  0.00     0.167 HD
BRANCH  11  13
HETATM   13  C7  UNL     1      25.433   1.520  51.992  1.00  0.00     0.035 A 
HETATM   14  C8  UNL     1      25.005   0.467  52.765  1.00  0.00     0.032 A 
HETATM   15  C9  UNL     1      25.729  -0.024  53.849  1.00  0.00     0.046 A 
HETATM   16  C10 UNL     1      26.931   0.569  54.166  1.00  0.00     0.138 A 
HETATM   17  F1  UNL     1      27.642   0.084  55.235  1.00  0.00    -0.204 F 
HETATM   18  C11 UNL     1      27.364   1.625  53.391  1.00  0.00     0.074 A 
HETATM   19 CL1  UNL     1      28.910   2.324  53.873  1.00  0.00    -0.081 Cl
HETATM   20  C12 UNL     1      26.641   2.102  52.323  1.00  0.00     0.056 A 
ENDBRANCH  11  13
ENDBRANCH   7  11
BRANCH  10  21
HETATM   21  O2  UNL     1      27.315   5.788  48.598  1.00  0.00    -0.347 OA
BRANCH  21  22
HETATM   22  C16 UNL     1      28.448   5.849  47.942  1.00  0.00     0.206 C 
BRANCH  22  23
HETATM   23  C17 UNL     1      29.474   6.755  48.599  1.00  0.00     0.299 C 
BRANCH  23  24
HETATM   24  N4  UNL     1      30.244   7.532  47.662  1.00  0.00     0.090 N 
HETATM   25  C18 UNL     1      31.640   7.649  48.022  1.00  0.00     0.273 C 
HETATM   26  C19 UNL     1      31.743   8.581  49.180  1.00  0.00     0.036 C 
HETATM   27  C20 UNL     1      30.430   9.349  49.201  1.00  0.00     0.011 C 
HETATM   28  C21 UNL     1      30.723  10.843  49.188  1.00  0.00     0.011 C 
HETATM   29  C22 UNL     1      29.805   8.924  47.884  1.00  0.00     0.276 C 
ENDBRANCH  23  24
ENDBRANCH  22  23
ENDBRANCH  21  22
ENDBRANCH  10  21
BRANCH   1  30
HETATM   30  O1  UNL     1      26.168   8.120  49.274  1.00  0.00    -0.353 OA
HETATM   31  C1  UNL     1      26.858   8.928  50.185  1.00  0.00     0.210 C 
ENDBRANCH   1  30
TORSDOF 7
ENDMDL
