MODEL 1
REMARK VINA RESULT:      -6.1      0.000      0.000
REMARK  11 active torsions:
REMARK  status: ('A' for Active; 'I' for Inactive)
REMARK    1  A    between atoms: C2_2  and  C3_3 
REMARK    2  A    between atoms: C2_2  and  C15_20 
REMARK    3  A    between atoms: C3_3  and  C4_4 
REMARK    4  A    between atoms: C7_7  and  O1_8 
REMARK    5  A    between atoms: O1_8  and  S1_9 
REMARK    6  A    between atoms: S1_9  and  C8_10 
REMARK    7  A    between atoms: S1_9  and  C9_12 
REMARK    8  A    between atoms: C9_12  and  C10_13 
REMARK    9  A    between atoms: C9_12  and  C11_15 
REMARK   10  A    between atoms: C11_15  and  O4_17 
REMARK   11  A    between atoms: C15_20  and  N1_21 
ROOT
HETATM    1  C4  UNL     1      25.777   0.979  52.021  1.00  0.00    -0.058 A 
HETATM    2  C5  UNL     1      26.015   2.242  51.503  1.00  0.00     0.010 A 
HETATM    3  C6  UNL     1      25.114   3.282  51.709  1.00  0.00     0.038 A 
HETATM    4  C7  UNL     1      23.970   3.006  52.450  1.00  0.00     0.084 A 
HETATM    5  C13 UNL     1      23.702   1.762  52.980  1.00  0.00     0.038 A 
HETATM    6  C14 UNL     1      24.613   0.750  52.760  1.00  0.00     0.010 A 
ENDROOT
BRANCH   4   7
HETATM    7  O1  UNL     1      23.073   4.044  52.653  1.00  0.00    -0.279 OA
BRANCH   7   8
HETATM    8  S1  UNL     1      22.001   4.639  51.388  1.00  0.00     0.016 SA
BRANCH   8   9
HETATM    9  C8  UNL     1      20.215   4.276  51.530  1.00  0.00     0.325 C 
HETATM   10  O2  UNL     1      19.338   3.576  51.967  1.00  0.00    -0.293 OA
ENDBRANCH   8   9
BRANCH   8  11
HETATM   11  C9  UNL     1      22.309   6.176  50.863  1.00  0.00     0.053 C 
BRANCH  11  12
HETATM   12  C10 UNL     1      21.357   7.099  50.261  1.00  0.00     0.396 C 
HETATM   13  O3  UNL     1      20.777   8.214  50.442  1.00  0.00    -0.405 OA
ENDBRANCH  11  12
BRANCH  11  14
HETATM   14  C11 UNL     1      23.592   6.902  50.902  1.00  0.00     0.157 C 
HETATM   15  C12 UNL     1      24.493   6.330  49.823  1.00  0.00     0.045 C 
BRANCH  14  16
HETATM   16  O4  UNL     1      24.162   6.655  52.172  1.00  0.00    -0.391 OA
HETATM   17  H15 UNL     1      23.472   6.194  52.706  1.00  0.00     0.210 HD
ENDBRANCH  14  16
ENDBRANCH  11  14
ENDBRANCH   8  11
ENDBRANCH   7   8
ENDBRANCH   4   7
BRANCH   1  18
HETATM   18  C3  UNL     1      26.766  -0.096  51.766  1.00  0.00     0.044 C 
BRANCH  18  19
HETATM   19  C2  UNL     1      26.832  -1.011  53.015  1.00  0.00     0.014 C 
HETATM   20  C1  UNL     1      27.091  -2.401  52.583  1.00  0.00     0.012 C 
BRANCH  19  21
HETATM   21  C15 UNL     1      27.703  -0.367  54.003  1.00  0.00     0.275 C 
BRANCH  21  22
HETATM   22  N1  UNL     1      28.876   0.227  53.437  1.00  0.00     0.080 N 
HETATM   23  C16 UNL     1      29.104   1.537  54.090  1.00  0.00     0.309 C 
HETATM   24  C17 UNL     1      30.055  -0.590  53.595  1.00  0.00     0.309 C 
ENDBRANCH  21  22
ENDBRANCH  19  21
ENDBRANCH  18  19
ENDBRANCH   1  18
TORSDOF 11
ENDMDL
MODEL 2
REMARK VINA RESULT:      -6.0      1.562      2.710
REMARK  11 active torsions:
REMARK  status: ('A' for Active; 'I' for Inactive)
REMARK    1  A    between atoms: C2_2  and  C3_3 
REMARK    2  A    between atoms: C2_2  and  C15_20 
REMARK    3  A    between atoms: C3_3  and  C4_4 
REMARK    4  A    between atoms: C7_7  and  O1_8 
REMARK    5  A    between atoms: O1_8  and  S1_9 
REMARK    6  A    between atoms: S1_9  and  C8_10 
REMARK    7  A    between atoms: S1_9  and  C9_12 
REMARK    8  A    between atoms: C9_12  and  C10_13 
REMARK    9  A    between atoms: C9_12  and  C11_15 
REMARK   10  A    between atoms: C11_15  and  O4_17 
REMARK   11  A    between atoms: C15_20  and  N1_21 
ROOT
HETATM    1  C4  UNL     1      24.407   1.098  52.871  1.00  0.00    -0.058 A 
HETATM    2  C5  UNL     1      23.156   1.108  52.276  1.00  0.00     0.010 A 
HETATM    3  C6  UNL     1      22.468   2.299  52.073  1.00  0.00     0.038 A 
HETATM    4  C7  UNL     1      23.081   3.476  52.491  1.00  0.00     0.084 A 
HETATM    5  C13 UNL     1      24.324   3.503  53.086  1.00  0.00     0.038 A 
HETATM    6  C14 UNL     1      24.983   2.306  53.274  1.00  0.00     0.010 A 
ENDROOT
BRANCH   4   7
HETATM    7  O1  UNL     1      22.394   4.663  52.288  1.00  0.00    -0.279 OA
BRANCH   7   8
HETATM    8  S1  UNL     1      22.618   5.662  50.854  1.00  0.00     0.016 SA
BRANCH   8   9
HETATM    9  C8  UNL     1      21.588   7.162  50.678  1.00  0.00     0.325 C 
HETATM   10  O2  UNL     1      20.688   7.732  50.118  1.00  0.00    -0.293 OA
ENDBRANCH   8   9
BRANCH   8  11
HETATM   11  C9  UNL     1      24.188   5.898  50.393  1.00  0.00     0.053 C 
BRANCH  11  12
HETATM   12  C10 UNL     1      25.041   7.024  50.747  1.00  0.00     0.396 C 
HETATM   13  O3  UNL     1      26.050   7.690  50.357  1.00  0.00    -0.405 OA
ENDBRANCH  11  12
BRANCH  11  14
HETATM   14  C11 UNL     1      25.020   5.024  49.544  1.00  0.00     0.157 C 
HETATM   15  C12 UNL     1      24.221   3.773  49.228  1.00  0.00     0.045 C 
BRANCH  14  16
HETATM   16  O4  UNL     1      26.158   4.678  50.307  1.00  0.00    -0.391 OA
HETATM   17  H15 UNL     1      26.002   5.021  51.218  1.00  0.00     0.210 HD
ENDBRANCH  14  16
ENDBRANCH  11  14
ENDBRANCH   8  11
ENDBRANCH   7   8
ENDBRANCH   4   7
BRANCH   1  18
HETATM   18  C3  UNL     1      25.093  -0.201  53.071  1.00  0.00     0.044 C 
BRANCH  18  19
HETATM   19  C2  UNL     1      26.263   0.008  54.065  1.00  0.00     0.014 C 
HETATM   20  C1  UNL     1      25.861  -0.489  55.398  1.00  0.00     0.012 C 
BRANCH  19  21
HETATM   21  C15 UNL     1      27.490  -0.484  53.430  1.00  0.00     0.275 C 
BRANCH  21  22
HETATM   22  N1  UNL     1      28.666  -0.297  54.224  1.00  0.00     0.080 N 
HETATM   23  C16 UNL     1      29.773  -1.071  53.617  1.00  0.00     0.309 C 
HETATM   24  C17 UNL     1      29.061   1.087  54.331  1.00  0.00     0.309 C 
ENDBRANCH  21  22
ENDBRANCH  19  21
ENDBRANCH  18  19
ENDBRANCH   1  18
TORSDOF 11
ENDMDL
MODEL 3
REMARK VINA RESULT:      -6.0      4.385      7.857
REMARK  11 active torsions:
REMARK  status: ('A' for Active; 'I' for Inactive)
REMARK    1  A    between atoms: C2_2  and  C3_3 
REMARK    2  A    between atoms: C2_2  and  C15_20 
REMARK    3  A    between atoms: C3_3  and  C4_4 
REMARK    4  A    between atoms: C7_7  and  O1_8 
REMARK    5  A    between atoms: O1_8  and  S1_9 
REMARK    6  A    between atoms: S1_9  and  C8_10 
REMARK    7  A    between atoms: S1_9  and  C9_12 
REMARK    8  A    between atoms: C9_12  and  C10_13 
REMARK    9  A    between atoms: C9_12  and  C11_15 
REMARK   10  A    between atoms: C11_15  and  O4_17 
REMARK   11  A    between atoms: C15_20  and  N1_21 
ROOT
HETATM    1  C4  UNL     1      26.764   5.763  48.765  1.00  0.00    -0.058 A 
HETATM    2  C5  UNL     1      25.652   6.121  49.509  1.00  0.00     0.010 A 
HETATM    3  C6  UNL     1      25.023   5.204  50.345  1.00  0.00     0.038 A 
HETATM    4  C7  UNL     1      25.551   3.918  50.403  1.00  0.00     0.084 A 
HETATM    5  C13 UNL     1      26.655   3.528  49.676  1.00  0.00     0.038 A 
HETATM    6  C14 UNL     1      27.258   4.458  48.856  1.00  0.00     0.010 A 
ENDROOT
BRANCH   4   7
HETATM    7  O1  UNL     1      24.923   3.005  51.236  1.00  0.00    -0.279 OA
BRANCH   7   8
HETATM    8  S1  UNL     1      25.765   1.633  51.953  1.00  0.00     0.016 SA
BRANCH   8   9
HETATM    9  C8  UNL     1      27.428   1.914  52.658  1.00  0.00     0.325 C 
HETATM   10  O2  UNL     1      28.422   2.591  52.712  1.00  0.00    -0.293 OA
ENDBRANCH   8   9
BRANCH   8  11
HETATM   11  C9  UNL     1      24.830   0.634  52.880  1.00  0.00     0.053 C 
BRANCH  11  12
HETATM   12  C10 UNL     1      25.292  -0.460  53.724  1.00  0.00     0.396 C 
HETATM   13  O3  UNL     1      25.970  -0.716  54.767  1.00  0.00    -0.405 OA
ENDBRANCH  11  12
BRANCH  11  14
HETATM   14  C11 UNL     1      23.362   0.656  53.033  1.00  0.00     0.157 C 
HETATM   15  C12 UNL     1      22.885  -0.772  53.220  1.00  0.00     0.045 C 
BRANCH  14  16
HETATM   16  O4  UNL     1      22.835   1.177  51.829  1.00  0.00    -0.391 OA
HETATM   17  H15 UNL     1      23.438   0.881  51.106  1.00  0.00     0.210 HD
ENDBRANCH  14  16
ENDBRANCH  11  14
ENDBRANCH   8  11
ENDBRANCH   7   8
ENDBRANCH   4   7
BRANCH   1  18
HETATM   18  C3  UNL     1      27.390   6.777  47.884  1.00  0.00     0.044 C 
BRANCH  18  19
HETATM   19  C2  UNL     1      28.792   7.122  48.448  1.00  0.00     0.014 C 
HETATM   20  C1  UNL     1      29.822   6.700  47.477  1.00  0.00     0.012 C 
BRANCH  19  21
HETATM   21  C15 UNL     1      28.755   8.504  48.937  1.00  0.00     0.275 C 
BRANCH  21  22
HETATM   22  N1  UNL     1      29.830   9.316  48.454  1.00  0.00     0.080 N 
HETATM   23  C16 UNL     1      29.260  10.434  47.666  1.00  0.00     0.309 C 
HETATM   24  C17 UNL     1      30.650   9.854  49.512  1.00  0.00     0.309 C 
ENDBRANCH  21  22
ENDBRANCH  19  21
ENDBRANCH  18  19
ENDBRANCH   1  18
TORSDOF 11
ENDMDL
MODEL 4
REMARK VINA RESULT:      -6.0      3.490      5.514
REMARK  11 active torsions:
REMARK  status: ('A' for Active; 'I' for Inactive)
REMARK    1  A    between atoms: C2_2  and  C3_3 
REMARK    2  A    between atoms: C2_2  and  C15_20 
REMARK    3  A    between atoms: C3_3  and  C4_4 
REMARK    4  A    between atoms: C7_7  and  O1_8 
REMARK    5  A    between atoms: O1_8  and  S1_9 
REMARK    6  A    between atoms: S1_9  and  C8_10 
REMARK    7  A    between atoms: S1_9  and  C9_12 
REMARK    8  A    between atoms: C9_12  and  C10_13 
REMARK    9  A    between atoms: C9_12  and  C11_15 
REMARK   10  A    between atoms: C11_15  and  O4_17 
REMARK   11  A    between atoms: C15_20  and  N1_21 
ROOT
HETATM    1  C4  UNL     1      24.327   0.755  52.937  1.00  0.00    -0.058 A 
HETATM    2  C5  UNL     1      23.841   1.473  51.856  1.00  0.00     0.010 A 
HETATM    3  C6  UNL     1      22.573   1.224  51.341  1.00  0.00     0.038 A 
HETATM    4  C7  UNL     1      21.815   0.230  51.951  1.00  0.00     0.084 A 
HETATM    5  C13 UNL     1      22.266  -0.503  53.027  1.00  0.00     0.038 A 
HETATM    6  C14 UNL     1      23.527  -0.235  53.516  1.00  0.00     0.010 A 
ENDROOT
BRANCH   4   7
HETATM    7  O1  UNL     1      20.551  -0.018  51.436  1.00  0.00    -0.279 OA
BRANCH   7   8
HETATM    8  S1  UNL     1      19.098   0.757  52.064  1.00  0.00     0.016 SA
BRANCH   8   9
HETATM    9  C8  UNL     1      18.874   2.545  51.760  1.00  0.00     0.325 C 
HETATM   10  O2  UNL     1      19.152   3.681  52.048  1.00  0.00    -0.293 OA
ENDBRANCH   8   9
BRANCH   8  11
HETATM   11  C9  UNL     1      17.701  -0.109  51.887  1.00  0.00     0.053 C 
BRANCH  11  12
HETATM   12  C10 UNL     1      16.860  -0.174  50.700  1.00  0.00     0.396 C 
HETATM   13  O3  UNL     1      16.854  -0.539  49.483  1.00  0.00    -0.405 OA
ENDBRANCH  11  12
BRANCH  11  14
HETATM   14  C11 UNL     1      17.043  -0.973  52.885  1.00  0.00     0.157 C 
HETATM   15  C12 UNL     1      18.089  -1.906  53.466  1.00  0.00     0.045 C 
BRANCH  14  16
HETATM   16  O4  UNL     1      16.069  -1.728  52.192  1.00  0.00    -0.391 OA
HETATM   17  H15 UNL     1      16.534  -2.517  51.823  1.00  0.00     0.210 HD
ENDBRANCH  14  16
ENDBRANCH  11  14
ENDBRANCH   8  11
ENDBRANCH   7   8
ENDBRANCH   4   7
BRANCH   1  18
HETATM   18  C3  UNL     1      25.688   1.055  53.440  1.00  0.00     0.044 C 
BRANCH  18  19
HETATM   19  C2  UNL     1      26.484  -0.271  53.529  1.00  0.00     0.014 C 
HETATM   20  C1  UNL     1      26.649  -0.828  52.170  1.00  0.00     0.012 C 
BRANCH  19  21
HETATM   21  C15 UNL     1      27.654  -0.040  54.383  1.00  0.00     0.275 C 
BRANCH  21  22
HETATM   22  N1  UNL     1      28.799   0.445  53.675  1.00  0.00     0.080 N 
HETATM   23  C16 UNL     1      29.263   1.691  54.325  1.00  0.00     0.309 C 
HETATM   24  C17 UNL     1      29.886  -0.504  53.642  1.00  0.00     0.309 C 
ENDBRANCH  21  22
ENDBRANCH  19  21
ENDBRANCH  18  19
ENDBRANCH   1  18
TORSDOF 11
ENDMDL
MODEL 5
REMARK VINA RESULT:      -6.0      3.256      4.498
REMARK  11 active torsions:
REMARK  status: ('A' for Active; 'I' for Inactive)
REMARK    1  A    between atoms: C2_2  and  C3_3 
REMARK    2  A    between atoms: C2_2  and  C15_20 
REMARK    3  A    between atoms: C3_3  and  C4_4 
REMARK    4  A    between atoms: C7_7  and  O1_8 
REMARK    5  A    between atoms: O1_8  and  S1_9 
REMARK    6  A    between atoms: S1_9  and  C8_10 
REMARK    7  A    between atoms: S1_9  and  C9_12 
REMARK    8  A    between atoms: C9_12  and  C10_13 
REMARK    9  A    between atoms: C9_12  and  C11_15 
REMARK   10  A    between atoms: C11_15  and  O4_17 
REMARK   11  A    between atoms: C15_20  and  N1_21 
ROOT
HETATM    1  C4  UNL     1      24.493   0.452  52.735  1.00  0.00    -0.058 A 
HETATM    2  C5  UNL     1      23.800   1.579  52.321  1.00  0.00     0.010 A 
HETATM    3  C6  UNL     1      22.439   1.715  52.572  1.00  0.00     0.038 A 
HETATM    4  C7  UNL     1      21.802   0.681  53.249  1.00  0.00     0.084 A 
HETATM    5  C13 UNL     1      22.460  -0.453  53.675  1.00  0.00     0.038 A 
HETATM    6  C14 UNL     1      23.810  -0.561  53.412  1.00  0.00     0.010 A 
ENDROOT
BRANCH   4   7
HETATM    7  O1  UNL     1      20.445   0.818  53.498  1.00  0.00    -0.279 OA
BRANCH   7   8
HETATM    8  S1  UNL     1      19.212   0.032  52.515  1.00  0.00     0.016 SA
BRANCH   8   9
HETATM    9  C8  UNL     1      18.166  -1.244  53.301  1.00  0.00     0.325 C 
HETATM   10  O2  UNL     1      17.668  -2.339  53.253  1.00  0.00    -0.293 OA
ENDBRANCH   8   9
BRANCH   8  11
HETATM   11  C9  UNL     1      18.364   1.033  51.509  1.00  0.00     0.053 C 
BRANCH  11  12
HETATM   12  C10 UNL     1      17.111   0.731  50.830  1.00  0.00     0.396 C 
HETATM   13  O3  UNL     1      15.858   0.928  50.885  1.00  0.00    -0.405 OA
ENDBRANCH  11  12
BRANCH  11  14
HETATM   14  C11 UNL     1      18.707   2.411  51.109  1.00  0.00     0.157 C 
HETATM   15  C12 UNL     1      19.811   2.342  50.071  1.00  0.00     0.045 C 
BRANCH  14  16
HETATM   16  O4  UNL     1      19.187   3.064  52.267  1.00  0.00    -0.391 OA
HETATM   17  H15 UNL     1      19.709   2.396  52.772  1.00  0.00     0.210 HD
ENDBRANCH  14  16
ENDBRANCH  11  14
ENDBRANCH   8  11
ENDBRANCH   7   8
ENDBRANCH   4   7
BRANCH   1  18
HETATM   18  C3  UNL     1      25.942   0.354  52.435  1.00  0.00     0.044 C 
BRANCH  18  19
HETATM   19  C2  UNL     1      26.547  -0.784  53.295  1.00  0.00     0.014 C 
HETATM   20  C1  UNL     1      26.892  -1.923  52.418  1.00  0.00     0.012 C 
BRANCH  19  21
HETATM   21  C15 UNL     1      27.559  -0.195  54.178  1.00  0.00     0.275 C 
BRANCH  21  22
HETATM   22  N1  UNL     1      28.724   0.271  53.490  1.00  0.00     0.080 N 
HETATM   23  C16 UNL     1      29.043   1.635  53.970  1.00  0.00     0.309 C 
HETATM   24  C17 UNL     1      29.874  -0.579  53.686  1.00  0.00     0.309 C 
ENDBRANCH  21  22
ENDBRANCH  19  21
ENDBRANCH  18  19
ENDBRANCH   1  18
TORSDOF 11
ENDMDL
MODEL 6
REMARK VINA RESULT:      -5.9      3.295      5.001
REMARK  11 active torsions:
REMARK  status: ('A' for Active; 'I' for Inactive)
REMARK    1  A    between atoms: C2_2  and  C3_3 
REMARK    2  A    between atoms: C2_2  and  C15_20 
REMARK    3  A    between atoms: C3_3  and  C4_4 
REMARK    4  A    between atoms: C7_7  and  O1_8 
REMARK    5  A    between atoms: O1_8  and  S1_9 
REMARK    6  A    between atoms: S1_9  and  C8_10 
REMARK    7  A    between atoms: S1_9  and  C9_12 
REMARK    8  A    between atoms: C9_12  and  C10_13 
REMARK    9  A    between atoms: C9_12  and  C11_15 
REMARK   10  A    between atoms: C11_15  and  O4_17 
REMARK   11  A    between atoms: C15_20  and  N1_21 
ROOT
HETATM    1  C4  UNL     1      25.522   1.942  52.360  1.00  0.00    -0.058 A 
HETATM    2  C5  UNL     1      24.314   2.538  52.036  1.00  0.00     0.010 A 
HETATM    3  C6  UNL     1      24.195   3.357  50.919  1.00  0.00     0.038 A 
HETATM    4  C7  UNL     1      25.332   3.555  50.142  1.00  0.00     0.084 A 
HETATM    5  C13 UNL     1      26.549   2.978  50.434  1.00  0.00     0.038 A 
HETATM    6  C14 UNL     1      26.637   2.171  51.549  1.00  0.00     0.010 A 
ENDROOT
BRANCH   4   7
HETATM    7  O1  UNL     1      25.212   4.373  49.029  1.00  0.00    -0.279 OA
BRANCH   7   8
HETATM    8  S1  UNL     1      25.596   6.092  49.063  1.00  0.00     0.016 SA
BRANCH   8   9
HETATM    9  C8  UNL     1      24.991   7.083  50.475  1.00  0.00     0.325 C 
HETATM   10  O2  UNL     1      24.165   7.253  51.334  1.00  0.00    -0.293 OA
ENDBRANCH   8   9
BRANCH   8  11
HETATM   11  C9  UNL     1      27.137   6.484  48.611  1.00  0.00     0.053 C 
BRANCH  11  12
HETATM   12  C10 UNL     1      28.216   5.558  48.299  1.00  0.00     0.396 C 
HETATM   13  O3  UNL     1      29.329   5.119  48.727  1.00  0.00    -0.405 OA
ENDBRANCH  11  12
BRANCH  11  14
HETATM   14  C11 UNL     1      27.711   7.832  48.438  1.00  0.00     0.157 C 
HETATM   15  C12 UNL     1      28.209   7.954  47.010  1.00  0.00     0.045 C 
BRANCH  14  16
HETATM   16  O4  UNL     1      28.805   7.926  49.329  1.00  0.00    -0.391 OA
HETATM   17  H15 UNL     1      28.435   8.199  50.202  1.00  0.00     0.210 HD
ENDBRANCH  14  16
ENDBRANCH  11  14
ENDBRANCH   8  11
ENDBRANCH   7   8
ENDBRANCH   4   7
BRANCH   1  18
HETATM   18  C3  UNL     1      25.595   1.084  53.567  1.00  0.00     0.044 C 
BRANCH  18  19
HETATM   19  C2  UNL     1      25.077  -0.330  53.199  1.00  0.00     0.014 C 
HETATM   20  C1  UNL     1      26.228  -1.197  52.872  1.00  0.00     0.012 C 
BRANCH  19  21
HETATM   21  C15 UNL     1      24.109  -0.737  54.222  1.00  0.00     0.275 C 
BRANCH  21  22
HETATM   22  N1  UNL     1      22.787  -0.235  53.998  1.00  0.00     0.080 N 
HETATM   23  C16 UNL     1      22.380  -0.576  52.616  1.00  0.00     0.309 C 
HETATM   24  C17 UNL     1      21.816  -0.769  54.922  1.00  0.00     0.309 C 
ENDBRANCH  21  22
ENDBRANCH  19  21
ENDBRANCH  18  19
ENDBRANCH   1  18
TORSDOF 11
ENDMDL
MODEL 7
REMARK VINA RESULT:      -5.9      4.226      8.035
REMARK  11 active torsions:
REMARK  status: ('A' for Active; 'I' for Inactive)
REMARK    1  A    between atoms: C2_2  and  C3_3 
REMARK    2  A    between atoms: C2_2  and  C15_20 
REMARK    3  A    between atoms: C3_3  and  C4_4 
REMARK    4  A    between atoms: C7_7  and  O1_8 
REMARK    5  A    between atoms: O1_8  and  S1_9 
REMARK    6  A    between atoms: S1_9  and  C8_10 
REMARK    7  A    between atoms: S1_9  and  C9_12 
REMARK    8  A    between atoms: C9_12  and  C10_13 
REMARK    9  A    between atoms: C9_12  and  C11_15 
REMARK   10  A    between atoms: C11_15  and  O4_17 
REMARK   11  A    between atoms: C15_20  and  N1_21 
ROOT
HETATM    1  C4  UNL     1      24.876   2.847  50.608  1.00  0.00    -0.058 A 
HETATM    2  C5  UNL     1      24.150   2.729  51.782  1.00  0.00     0.010 A 
HETATM    3  C6  UNL     1      24.780   2.446  52.989  1.00  0.00     0.038 A 
HETATM    4  C7  UNL     1      26.162   2.284  52.972  1.00  0.00     0.084 A 
HETATM    5  C13 UNL     1      26.915   2.394  51.823  1.00  0.00     0.038 A 
HETATM    6  C14 UNL     1      26.263   2.676  50.641  1.00  0.00     0.010 A 
ENDROOT
BRANCH   4   7
HETATM    7  O1  UNL     1      26.788   2.001  54.176  1.00  0.00    -0.279 OA
BRANCH   7   8
HETATM    8  S1  UNL     1      27.081   0.355  54.735  1.00  0.00     0.016 SA
BRANCH   8   9
HETATM    9  C8  UNL     1      25.670  -0.587  55.417  1.00  0.00     0.325 C 
HETATM   10  O2  UNL     1      25.185  -1.189  56.339  1.00  0.00    -0.293 OA
ENDBRANCH   8   9
BRANCH   8  11
HETATM   11  C9  UNL     1      28.061  -0.558  53.767  1.00  0.00     0.053 C 
BRANCH  11  12
HETATM   12  C10 UNL     1      29.515  -0.629  53.816  1.00  0.00     0.396 C 
HETATM   13  O3  UNL     1      30.483  -1.434  53.981  1.00  0.00    -0.405 OA
ENDBRANCH  11  12
BRANCH  11  14
HETATM   14  C11 UNL     1      27.659  -1.468  52.678  1.00  0.00     0.157 C 
HETATM   15  C12 UNL     1      26.207  -1.187  52.338  1.00  0.00     0.045 C 
BRANCH  14  16
HETATM   16  O4  UNL     1      27.780  -2.784  53.180  1.00  0.00    -0.391 OA
HETATM   17  H15 UNL     1      28.496  -3.220  52.660  1.00  0.00     0.210 HD
ENDBRANCH  14  16
ENDBRANCH  11  14
ENDBRANCH   8  11
ENDBRANCH   7   8
ENDBRANCH   4   7
BRANCH   1  18
HETATM   18  C3  UNL     1      24.154   3.142  49.348  1.00  0.00     0.044 C 
BRANCH  18  19
HETATM   19  C2  UNL     1      23.557   4.569  49.444  1.00  0.00     0.014 C 
HETATM   20  C1  UNL     1      24.500   5.530  48.833  1.00  0.00     0.012 C 
BRANCH  19  21
HETATM   21  C15 UNL     1      22.163   4.508  48.993  1.00  0.00     0.275 C 
BRANCH  21  22
HETATM   22  N1  UNL     1      21.570   3.212  49.124  1.00  0.00     0.080 N 
HETATM   23  C16 UNL     1      20.624   3.239  50.262  1.00  0.00     0.309 C 
HETATM   24  C17 UNL     1      20.868   2.790  47.936  1.00  0.00     0.309 C 
ENDBRANCH  21  22
ENDBRANCH  19  21
ENDBRANCH  18  19
ENDBRANCH   1  18
TORSDOF 11
ENDMDL
MODEL 8
REMARK VINA RESULT:      -5.9      4.592      6.717
REMARK  11 active torsions:
REMARK  status: ('A' for Active; 'I' for Inactive)
REMARK    1  A    between atoms: C2_2  and  C3_3 
REMARK    2  A    between atoms: C2_2  and  C15_20 
REMARK    3  A    between atoms: C3_3  and  C4_4 
REMARK    4  A    between atoms: C7_7  and  O1_8 
REMARK    5  A    between atoms: O1_8  and  S1_9 
REMARK    6  A    between atoms: S1_9  and  C8_10 
REMARK    7  A    between atoms: S1_9  and  C9_12 
REMARK    8  A    between atoms: C9_12  and  C10_13 
REMARK    9  A    between atoms: C9_12  and  C11_15 
REMARK   10  A    between atoms: C11_15  and  O4_17 
REMARK   11  A    between atoms: C15_20  and  N1_21 
ROOT
HETATM    1  C4  UNL     1      25.013   3.979  49.561  1.00  0.00    -0.058 A 
HETATM    2  C5  UNL     1      26.338   3.581  49.503  1.00  0.00     0.010 A 
HETATM    3  C6  UNL     1      27.320   4.426  48.999  1.00  0.00     0.038 A 
HETATM    4  C7  UNL     1      26.922   5.683  48.554  1.00  0.00     0.084 A 
HETATM    5  C13 UNL     1      25.612   6.112  48.597  1.00  0.00     0.038 A 
HETATM    6  C14 UNL     1      24.661   5.252  49.102  1.00  0.00     0.010 A 
ENDROOT
BRANCH   4   7
HETATM    7  O1  UNL     1      27.902   6.525  48.051  1.00  0.00    -0.279 OA
BRANCH   7   8
HETATM    8  S1  UNL     1      28.115   8.181  48.613  1.00  0.00     0.016 SA
BRANCH   8   9
HETATM    9  C8  UNL     1      26.938   8.831  49.852  1.00  0.00     0.325 C 
HETATM   10  O2  UNL     1      26.640   9.696  50.633  1.00  0.00    -0.293 OA
ENDBRANCH   8   9
BRANCH   8  11
HETATM   11  C9  UNL     1      29.678   8.634  48.906  1.00  0.00     0.053 C 
BRANCH  11  12
HETATM   12  C10 UNL     1      30.847   7.766  48.937  1.00  0.00     0.396 C 
HETATM   13  O3  UNL     1      31.623   7.143  49.725  1.00  0.00    -0.405 OA
ENDBRANCH  11  12
BRANCH  11  14
HETATM   14  C11 UNL     1      30.186   9.990  49.191  1.00  0.00     0.157 C 
HETATM   15  C12 UNL     1      31.259  10.317  48.169  1.00  0.00     0.045 C 
BRANCH  14  16
HETATM   16  O4  UNL     1      30.760   9.947  50.482  1.00  0.00    -0.391 OA
HETATM   17  H15 UNL     1      30.471  10.768  50.947  1.00  0.00     0.210 HD
ENDBRANCH  14  16
ENDBRANCH  11  14
ENDBRANCH   8  11
ENDBRANCH   7   8
ENDBRANCH   4   7
BRANCH   1  18
HETATM   18  C3  UNL     1      24.005   3.036  50.100  1.00  0.00     0.044 C 
BRANCH  18  19
HETATM   19  C2  UNL     1      24.290   2.818  51.607  1.00  0.00     0.014 C 
HETATM   20  C1  UNL     1      23.581   3.853  52.389  1.00  0.00     0.012 C 
BRANCH  19  21
HETATM   21  C15 UNL     1      24.089   1.396  51.905  1.00  0.00     0.275 C 
BRANCH  21  22
HETATM   22  N1  UNL     1      25.042   0.859  52.828  1.00  0.00     0.080 N 
HETATM   23  C16 UNL     1      24.546  -0.449  53.312  1.00  0.00     0.309 C 
HETATM   24  C17 UNL     1      26.352   0.682  52.248  1.00  0.00     0.309 C 
ENDBRANCH  21  22
ENDBRANCH  19  21
ENDBRANCH  18  19
ENDBRANCH   1  18
TORSDOF 11
ENDMDL
MODEL 9
REMARK VINA RESULT:      -5.9      4.029      7.328
REMARK  11 active torsions:
REMARK  status: ('A' for Active; 'I' for Inactive)
REMARK    1  A    between atoms: C2_2  and  C3_3 
REMARK    2  A    between atoms: C2_2  and  C15_20 
REMARK    3  A    between atoms: C3_3  and  C4_4 
REMARK    4  A    between atoms: C7_7  and  O1_8 
REMARK    5  A    between atoms: O1_8  and  S1_9 
REMARK    6  A    between atoms: S1_9  and  C8_10 
REMARK    7  A    between atoms: S1_9  and  C9_12 
REMARK    8  A    between atoms: C9_12  and  C10_13 
REMARK    9  A    between atoms: C9_12  and  C11_15 
REMARK   10  A    between atoms: C11_15  and  O4_17 
REMARK   11  A    between atoms: C15_20  and  N1_21 
ROOT
HETATM    1  C4  UNL     1      23.331   2.734  51.517  1.00  0.00    -0.058 A 
HETATM    2  C5  UNL     1      24.199   3.304  52.434  1.00  0.00     0.010 A 
HETATM    3  C6  UNL     1      24.851   2.526  53.385  1.00  0.00     0.038 A 
HETATM    4  C7  UNL     1      24.597   1.159  53.381  1.00  0.00     0.084 A 
HETATM    5  C13 UNL     1      23.740   0.558  52.484  1.00  0.00     0.038 A 
HETATM    6  C14 UNL     1      23.108   1.354  51.553  1.00  0.00     0.010 A 
ENDROOT
BRANCH   4   7
HETATM    7  O1  UNL     1      25.247   0.384  54.330  1.00  0.00    -0.279 OA
BRANCH   7   8
HETATM    8  S1  UNL     1      26.735  -0.495  53.987  1.00  0.00     0.016 SA
BRANCH   8   9
HETATM    9  C8  UNL     1      26.740  -1.669  52.586  1.00  0.00     0.325 C 
HETATM   10  O2  UNL     1      27.128  -2.706  52.114  1.00  0.00    -0.293 OA
ENDBRANCH   8   9
BRANCH   8  11
HETATM   11  C9  UNL     1      28.123   0.397  54.088  1.00  0.00     0.053 C 
BRANCH  11  12
HETATM   12  C10 UNL     1      29.489  -0.108  54.049  1.00  0.00     0.396 C 
HETATM   13  O3  UNL     1      30.173  -1.161  53.858  1.00  0.00    -0.405 OA
ENDBRANCH  11  12
BRANCH  11  14
HETATM   14  C11 UNL     1      28.248   1.860  54.235  1.00  0.00     0.157 C 
HETATM   15  C12 UNL     1      28.424   2.460  52.852  1.00  0.00     0.045 C 
BRANCH  14  16
HETATM   16  O4  UNL     1      29.410   2.095  55.004  1.00  0.00    -0.391 OA
HETATM   17  H15 UNL     1      29.386   3.045  55.268  1.00  0.00     0.210 HD
ENDBRANCH  14  16
ENDBRANCH  11  14
ENDBRANCH   8  11
ENDBRANCH   7   8
ENDBRANCH   4   7
BRANCH   1  18
HETATM   18  C3  UNL     1      22.657   3.610  50.530  1.00  0.00     0.044 C 
BRANCH  18  19
HETATM   19  C2  UNL     1      23.518   3.657  49.243  1.00  0.00     0.014 C 
HETATM   20  C1  UNL     1      22.790   2.981  48.148  1.00  0.00     0.012 C 
BRANCH  19  21
HETATM   21  C15 UNL     1      24.004   5.030  49.073  1.00  0.00     0.275 C 
BRANCH  21  22
HETATM   22  N1  UNL     1      25.169   5.331  49.848  1.00  0.00     0.080 N 
HETATM   23  C16 UNL     1      26.368   5.016  49.039  1.00  0.00     0.309 C 
HETATM   24  C17 UNL     1      25.229   6.711  50.265  1.00  0.00     0.309 C 
ENDBRANCH  21  22
ENDBRANCH  19  21
ENDBRANCH  18  19
ENDBRANCH   1  18
TORSDOF 11
ENDMDL
