MODEL 1
REMARK VINA RESULT:      -9.8      0.000      0.000
REMARK  4 active torsions:
REMARK  status: ('A' for Active; 'I' for Inactive)
REMARK    1  A    between atoms: C4_6  and  N3_7 
REMARK    2  A    between atoms: N3_7  and  C5_8 
REMARK    3  A    between atoms: C12_17  and  N4_18 
REMARK       I    between atoms: N4_18  and  C13_19 
REMARK    4  A    between atoms: C13_19  and  C14_21 
ROOT
HETATM    1  N1  UNL     1      28.571  -0.362  55.121  1.00  0.00    -0.191 NA
HETATM    2  C1  UNL     1      27.933   0.211  54.350  1.00  0.00     0.102 C 
HETATM    3  C2  UNL     1      27.153   0.935  53.369  1.00  0.00     0.073 A 
HETATM    4  C3  UNL     1      27.810   1.883  52.619  1.00  0.00     0.142 A 
HETATM    5  N2  UNL     1      27.064   2.539  51.720  1.00  0.00    -0.241 NA
HETATM    6  C4  UNL     1      25.769   2.330  51.519  1.00  0.00     0.139 A 
HETATM    7  C10 UNL     1      25.059   1.393  52.240  1.00  0.00     0.024 A 
HETATM    8  C11 UNL     1      23.728   1.171  52.043  1.00  0.00     0.045 A 
HETATM    9  C12 UNL     1      23.069   0.219  52.795  1.00  0.00     0.035 A 
HETATM   10  C18 UNL     1      23.813  -0.486  53.744  1.00  0.00     0.030 A 
HETATM   11  C19 UNL     1      25.171  -0.266  53.953  1.00  0.00     0.016 A 
HETATM   12  C20 UNL     1      25.790   0.694  53.179  1.00  0.00     0.000 A 
ENDROOT
BRANCH   6  13
HETATM   13  N3  UNL     1      25.149   3.113  50.531  1.00  0.00    -0.340 N 
HETATM   14  H2  UNL     1      24.205   3.062  50.091  1.00  0.00     0.167 HD
BRANCH  13  15
HETATM   15  C5  UNL     1      25.821   4.214  49.931  1.00  0.00     0.036 A 
HETATM   16  C6  UNL     1      26.912   4.224  49.209  1.00  0.00     0.004 A 
HETATM   17  C7  UNL     1      27.851   5.056  48.471  1.00  0.00     0.040 A 
HETATM   18  C8  UNL     1      27.568   6.522  48.450  1.00  0.00     0.083 A 
HETATM   19  S1  UNL     1      26.064   6.826  49.403  1.00  0.00    -0.123 SA
HETATM   20 BR1  UNL     1      25.218   8.920  49.624  1.00  0.00    -0.018 Br
HETATM   21  C9  UNL     1      25.314   5.570  50.076  1.00  0.00     0.075 A 
ENDBRANCH  13  15
ENDBRANCH   6  13
BRANCH   9  22
HETATM   22  N4  UNL     1      21.684  -0.033  52.610  1.00  0.00    -0.323 N 
HETATM   23  C13 UNL     1      20.515   0.035  53.413  1.00  0.00     0.258 C 
HETATM   24  O1  UNL     1      20.684   0.413  54.618  1.00  0.00    -0.267 OA
HETATM   25  H10 UNL     1      21.654  -0.333  51.601  1.00  0.00     0.169 HD
BRANCH  23  26
HETATM   26  C14 UNL     1      19.260  -0.333  52.768  1.00  0.00     0.056 A 
HETATM   27  C15 UNL     1      18.229  -1.107  53.196  1.00  0.00     0.043 A 
HETATM   28  C16 UNL     1      17.314  -1.111  52.191  1.00  0.00     0.142 A 
HETATM   29  O2  UNL     1      17.772  -0.375  51.204  1.00  0.00    -0.334 OA
HETATM   30  C17 UNL     1      18.957   0.125  51.504  1.00  0.00     0.158 A 
ENDBRANCH  23  26
ENDBRANCH   9  22
TORSDOF 4
ENDMDL
MODEL 2
REMARK VINA RESULT:      -9.4      1.392      1.794
REMARK  4 active torsions:
REMARK  status: ('A' for Active; 'I' for Inactive)
REMARK    1  A    between atoms: C4_6  and  N3_7 
REMARK    2  A    between atoms: N3_7  and  C5_8 
REMARK    3  A    between atoms: C12_17  and  N4_18 
REMARK       I    between atoms: N4_18  and  C13_19 
REMARK    4  A    between atoms: C13_19  and  C14_21 
ROOT
HETATM    1  N1  UNL     1      27.887  -0.175  55.059  1.00  0.00    -0.191 NA
HETATM    2  C1  UNL     1      27.368   0.393  54.200  1.00  0.00     0.102 C 
HETATM    3  C2  UNL     1      26.739   1.111  53.112  1.00  0.00     0.073 A 
HETATM    4  C3  UNL     1      27.525   1.989  52.401  1.00  0.00     0.142 A 
HETATM    5  N2  UNL     1      26.917   2.640  51.400  1.00  0.00    -0.241 NA
HETATM    6  C4  UNL     1      25.642   2.489  51.067  1.00  0.00     0.139 A 
HETATM    7  C10 UNL     1      24.807   1.622  51.742  1.00  0.00     0.024 A 
HETATM    8  C11 UNL     1      23.495   1.459  51.409  1.00  0.00     0.045 A 
HETATM    9  C12 UNL     1      22.708   0.577  52.122  1.00  0.00     0.035 A 
HETATM   10  C18 UNL     1      23.305  -0.121  53.174  1.00  0.00     0.030 A 
HETATM   11  C19 UNL     1      24.643   0.040  53.522  1.00  0.00     0.016 A 
HETATM   12  C20 UNL     1      25.393   0.930  52.783  1.00  0.00     0.000 A 
ENDROOT
BRANCH   6  13
HETATM   13  N3  UNL     1      25.176   3.256  49.986  1.00  0.00    -0.340 N 
HETATM   14  H2  UNL     1      24.567   3.019  49.174  1.00  0.00     0.167 HD
BRANCH  13  15
HETATM   15  C5  UNL     1      25.523   4.629  49.852  1.00  0.00     0.036 A 
HETATM   16  C6  UNL     1      25.008   5.675  50.444  1.00  0.00     0.004 A 
HETATM   17  C7  UNL     1      25.064   7.123  50.579  1.00  0.00     0.040 A 
HETATM   18  C8  UNL     1      26.091   7.829  49.756  1.00  0.00     0.083 A 
HETATM   19  S1  UNL     1      26.994   6.597  48.791  1.00  0.00    -0.123 SA
HETATM   20 BR1  UNL     1      28.687   7.200  47.406  1.00  0.00    -0.018 Br
HETATM   21  C9  UNL     1      26.590   5.047  48.954  1.00  0.00     0.075 A 
ENDBRANCH  13  15
ENDBRANCH   6  13
BRANCH   9  22
HETATM   22  N4  UNL     1      21.339   0.387  51.796  1.00  0.00    -0.323 N 
HETATM   23  C13 UNL     1      20.119   1.058  52.073  1.00  0.00     0.258 C 
HETATM   24  O1  UNL     1      20.206   2.107  52.793  1.00  0.00    -0.267 OA
HETATM   25  H10 UNL     1      21.377  -0.487  51.211  1.00  0.00     0.169 HD
BRANCH  23  26
HETATM   26  C14 UNL     1      18.910   0.473  51.503  1.00  0.00     0.056 A 
HETATM   27  C15 UNL     1      18.321   0.644  50.291  1.00  0.00     0.043 A 
HETATM   28  C16 UNL     1      17.215  -0.146  50.292  1.00  0.00     0.142 A 
HETATM   29  O2  UNL     1      17.142  -0.765  51.449  1.00  0.00    -0.334 OA
HETATM   30  C17 UNL     1      18.153  -0.422  52.226  1.00  0.00     0.158 A 
ENDBRANCH  23  26
ENDBRANCH   9  22
TORSDOF 4
ENDMDL
MODEL 3
REMARK VINA RESULT:      -9.2      2.938      6.573
REMARK  4 active torsions:
REMARK  status: ('A' for Active; 'I' for Inactive)
REMARK    1  A    between atoms: C4_6  and  N3_7 
REMARK    2  A    between atoms: N3_7  and  C5_8 
REMARK    3  A    between atoms: C12_17  and  N4_18 
REMARK       I    between atoms: N4_18  and  C13_19 
REMARK    4  A    between atoms: C13_19  and  C14_21 
ROOT
HETATM    1  N1  UNL     1      18.302  -0.996  53.572  1.00  0.00    -0.191 NA
HETATM    2  C1  UNL     1      19.079  -0.446  52.921  1.00  0.00     0.102 C 
HETATM    3  C2  UNL     1      20.036   0.260  52.096  1.00  0.00     0.073 A 
HETATM    4  C3  UNL     1      19.537   1.002  51.049  1.00  0.00     0.142 A 
HETATM    5  N2  UNL     1      20.445   1.644  50.301  1.00  0.00    -0.241 NA
HETATM    6  C4  UNL     1      21.755   1.606  50.509  1.00  0.00     0.139 A 
HETATM    7  C10 UNL     1      22.311   0.882  51.543  1.00  0.00     0.024 A 
HETATM    8  C11 UNL     1      23.656   0.835  51.765  1.00  0.00     0.045 A 
HETATM    9  C12 UNL     1      24.155   0.092  52.816  1.00  0.00     0.035 A 
HETATM   10  C18 UNL     1      23.241  -0.593  53.619  1.00  0.00     0.030 A 
HETATM   11  C19 UNL     1      21.867  -0.552  53.399  1.00  0.00     0.016 A 
HETATM   12  C20 UNL     1      21.411   0.203  52.339  1.00  0.00     0.000 A 
ENDROOT
BRANCH   6  13
HETATM   13  N3  UNL     1      22.557   2.344  49.623  1.00  0.00    -0.340 N 
HETATM   14  H2  UNL     1      22.868   2.160  48.645  1.00  0.00     0.167 HD
BRANCH  13  15
HETATM   15  C5  UNL     1      23.114   3.597  50.000  1.00  0.00     0.036 A 
HETATM   16  C6  UNL     1      22.720   4.434  50.925  1.00  0.00     0.004 A 
HETATM   17  C7  UNL     1      22.982   5.708  51.577  1.00  0.00     0.040 A 
HETATM   18  C8  UNL     1      24.159   6.481  51.080  1.00  0.00     0.083 A 
HETATM   19  S1  UNL     1      24.935   5.542  49.746  1.00  0.00    -0.123 SA
HETATM   20 BR1  UNL     1      26.795   6.310  48.697  1.00  0.00    -0.018 Br
HETATM   21  C9  UNL     1      24.293   4.125  49.329  1.00  0.00     0.075 A 
ENDBRANCH  13  15
ENDBRANCH   6  13
BRANCH   9  22
HETATM   22  N4  UNL     1      25.551   0.027  53.070  1.00  0.00    -0.323 N 
HETATM   23  C13 UNL     1      26.514   0.851  53.711  1.00  0.00     0.258 C 
HETATM   24  O1  UNL     1      26.078   1.941  54.206  1.00  0.00    -0.267 OA
HETATM   25  H10 UNL     1      25.807  -0.894  52.629  1.00  0.00     0.169 HD
BRANCH  23  26
HETATM   26  C14 UNL     1      27.885   0.355  53.729  1.00  0.00     0.056 A 
HETATM   27  C15 UNL     1      28.390  -0.886  53.505  1.00  0.00     0.043 A 
HETATM   28  C16 UNL     1      29.737  -0.780  53.652  1.00  0.00     0.142 A 
HETATM   29  O2  UNL     1      30.030   0.466  53.950  1.00  0.00    -0.334 OA
HETATM   30  C17 UNL     1      28.936   1.202  54.009  1.00  0.00     0.158 A 
ENDBRANCH  23  26
ENDBRANCH   9  22
TORSDOF 4
ENDMDL
MODEL 4
REMARK VINA RESULT:      -9.1      3.299      6.630
REMARK  4 active torsions:
REMARK  status: ('A' for Active; 'I' for Inactive)
REMARK    1  A    between atoms: C4_6  and  N3_7 
REMARK    2  A    between atoms: N3_7  and  C5_8 
REMARK    3  A    between atoms: C12_17  and  N4_18 
REMARK       I    between atoms: N4_18  and  C13_19 
REMARK    4  A    between atoms: C13_19  and  C14_21 
ROOT
HETATM    1  N1  UNL     1      18.405  -1.128  52.953  1.00  0.00    -0.191 NA
HETATM    2  C1  UNL     1      19.171  -0.279  52.806  1.00  0.00     0.102 C 
HETATM    3  C2  UNL     1      20.116   0.803  52.626  1.00  0.00     0.073 A 
HETATM    4  C3  UNL     1      19.602   2.040  52.311  1.00  0.00     0.142 A 
HETATM    5  N2  UNL     1      20.498   3.023  52.150  1.00  0.00    -0.241 NA
HETATM    6  C4  UNL     1      21.811   2.874  52.274  1.00  0.00     0.139 A 
HETATM    7  C10 UNL     1      22.382   1.658  52.588  1.00  0.00     0.024 A 
HETATM    8  C11 UNL     1      23.729   1.493  52.718  1.00  0.00     0.045 A 
HETATM    9  C12 UNL     1      24.245   0.251  53.034  1.00  0.00     0.035 A 
HETATM   10  C18 UNL     1      23.342  -0.800  53.210  1.00  0.00     0.030 A 
HETATM   11  C19 UNL     1      21.965  -0.640  53.080  1.00  0.00     0.016 A 
HETATM   12  C20 UNL     1      21.494   0.616  52.763  1.00  0.00     0.000 A 
ENDROOT
BRANCH   6  13
HETATM   13  N3  UNL     1      22.599   4.018  52.068  1.00  0.00    -0.340 N 
HETATM   14  H2  UNL     1      23.270   4.522  52.686  1.00  0.00     0.167 HD
BRANCH  13  15
HETATM   15  C5  UNL     1      22.573   4.720  50.832  1.00  0.00     0.036 A 
HETATM   16  C6  UNL     1      22.996   4.339  49.654  1.00  0.00     0.004 A 
HETATM   17  C7  UNL     1      23.145   4.714  48.256  1.00  0.00     0.040 A 
HETATM   18  C8  UNL     1      22.649   6.070  47.875  1.00  0.00     0.083 A 
HETATM   19  S1  UNL     1      21.982   6.870  49.350  1.00  0.00    -0.123 SA
HETATM   20 BR1  UNL     1      21.077   8.948  49.253  1.00  0.00    -0.018 Br
HETATM   21  C9  UNL     1      22.019   6.063  50.744  1.00  0.00     0.075 A 
ENDBRANCH  13  15
ENDBRANCH   6  13
BRANCH   9  22
HETATM   22  N4  UNL     1      25.643   0.052  53.175  1.00  0.00    -0.323 N 
HETATM   23  C13 UNL     1      26.657   0.503  54.061  1.00  0.00     0.258 C 
HETATM   24  O1  UNL     1      26.280   1.290  54.991  1.00  0.00    -0.267 OA
HETATM   25  H10 UNL     1      25.849  -0.600  52.374  1.00  0.00     0.169 HD
BRANCH  23  26
HETATM   26  C14 UNL     1      28.008   0.015  53.807  1.00  0.00     0.056 A 
HETATM   27  C15 UNL     1      28.454  -1.187  53.358  1.00  0.00     0.043 A 
HETATM   28  C16 UNL     1      29.809  -1.095  53.308  1.00  0.00     0.142 A 
HETATM   29  O2  UNL     1      30.163   0.106  53.707  1.00  0.00    -0.334 OA
HETATM   30  C17 UNL     1      29.101   0.825  54.024  1.00  0.00     0.158 A 
ENDBRANCH  23  26
ENDBRANCH   9  22
TORSDOF 4
ENDMDL
MODEL 5
REMARK VINA RESULT:      -9.0      3.572      6.496
REMARK  4 active torsions:
REMARK  status: ('A' for Active; 'I' for Inactive)
REMARK    1  A    between atoms: C4_6  and  N3_7 
REMARK    2  A    between atoms: N3_7  and  C5_8 
REMARK    3  A    between atoms: C12_17  and  N4_18 
REMARK       I    between atoms: N4_18  and  C13_19 
REMARK    4  A    between atoms: C13_19  and  C14_21 
ROOT
HETATM    1  N1  UNL     1      19.318   3.492  52.119  1.00  0.00    -0.191 NA
HETATM    2  C1  UNL     1      20.344   3.639  51.614  1.00  0.00     0.102 C 
HETATM    3  C2  UNL     1      21.625   3.847  50.972  1.00  0.00     0.073 A 
HETATM    4  C3  UNL     1      21.680   4.787  49.968  1.00  0.00     0.142 A 
HETATM    5  N2  UNL     1      22.878   4.957  49.392  1.00  0.00    -0.241 NA
HETATM    6  C4  UNL     1      23.977   4.293  49.725  1.00  0.00     0.139 A 
HETATM    7  C10 UNL     1      23.981   3.341  50.723  1.00  0.00     0.024 A 
HETATM    8  C11 UNL     1      25.104   2.652  51.074  1.00  0.00     0.045 A 
HETATM    9  C12 UNL     1      25.049   1.710  52.081  1.00  0.00     0.035 A 
HETATM   10  C18 UNL     1      23.818   1.501  52.707  1.00  0.00     0.030 A 
HETATM   11  C19 UNL     1      22.666   2.200  52.356  1.00  0.00     0.016 A 
HETATM   12  C20 UNL     1      22.767   3.132  51.345  1.00  0.00     0.000 A 
ENDROOT
BRANCH   6  13
HETATM   13  N3  UNL     1      25.145   4.606  49.010  1.00  0.00    -0.340 N 
HETATM   14  H2  UNL     1      25.690   4.075  48.298  1.00  0.00     0.167 HD
BRANCH  13  15
HETATM   15  C5  UNL     1      25.814   5.847  49.196  1.00  0.00     0.036 A 
HETATM   16  C6  UNL     1      25.544   6.816  50.033  1.00  0.00     0.004 A 
HETATM   17  C7  UNL     1      25.940   8.135  50.505  1.00  0.00     0.040 A 
HETATM   18  C8  UNL     1      27.132   8.748  49.847  1.00  0.00     0.083 A 
HETATM   19  S1  UNL     1      27.747   7.599  48.596  1.00  0.00    -0.123 SA
HETATM   20 BR1  UNL     1      29.580   8.088  47.352  1.00  0.00    -0.018 Br
HETATM   21  C9  UNL     1      26.979   6.198  48.397  1.00  0.00     0.075 A 
ENDBRANCH  13  15
ENDBRANCH   6  13
BRANCH   9  22
HETATM   22  N4  UNL     1      26.203   0.978  52.466  1.00  0.00    -0.323 N 
HETATM   23  C13 UNL     1      27.280   1.168  53.372  1.00  0.00     0.258 C 
HETATM   24  O1  UNL     1      27.264   2.252  54.043  1.00  0.00    -0.267 OA
HETATM   25  H10 UNL     1      26.122   0.117  51.866  1.00  0.00     0.169 HD
BRANCH  23  26
HETATM   26  C14 UNL     1      28.276   0.104  53.432  1.00  0.00     0.056 A 
HETATM   27  C15 UNL     1      28.185  -1.222  53.151  1.00  0.00     0.043 A 
HETATM   28  C16 UNL     1      29.419  -1.744  53.379  1.00  0.00     0.142 A 
HETATM   29  O2  UNL     1      30.216  -0.778  53.778  1.00  0.00    -0.334 OA
HETATM   30  C17 UNL     1      29.569   0.372  53.827  1.00  0.00     0.158 A 
ENDBRANCH  23  26
ENDBRANCH   9  22
TORSDOF 4
ENDMDL
MODEL 6
REMARK VINA RESULT:      -8.9      5.646     10.289
REMARK  4 active torsions:
REMARK  status: ('A' for Active; 'I' for Inactive)
REMARK    1  A    between atoms: C4_6  and  N3_7 
REMARK    2  A    between atoms: N3_7  and  C5_8 
REMARK    3  A    between atoms: C12_17  and  N4_18 
REMARK       I    between atoms: N4_18  and  C13_19 
REMARK    4  A    between atoms: C13_19  and  C14_21 
ROOT
HETATM    1  N1  UNL     1      23.654   8.849  49.028  1.00  0.00    -0.191 NA
HETATM    2  C1  UNL     1      24.163   7.823  49.159  1.00  0.00     0.102 C 
HETATM    3  C2  UNL     1      24.779   6.523  49.325  1.00  0.00     0.073 A 
HETATM    4  C3  UNL     1      24.014   5.533  49.898  1.00  0.00     0.142 A 
HETATM    5  N2  UNL     1      24.610   4.341  50.041  1.00  0.00    -0.241 NA
HETATM    6  C4  UNL     1      25.855   4.072  49.670  1.00  0.00     0.139 A 
HETATM    7  C10 UNL     1      26.667   5.024  49.090  1.00  0.00     0.024 A 
HETATM    8  C11 UNL     1      27.948   4.759  48.705  1.00  0.00     0.045 A 
HETATM    9  C12 UNL     1      28.715   5.752  48.129  1.00  0.00     0.035 A 
HETATM   10  C18 UNL     1      28.130   7.010  47.964  1.00  0.00     0.030 A 
HETATM   11  C19 UNL     1      26.823   7.290  48.354  1.00  0.00     0.016 A 
HETATM   12  C20 UNL     1      26.093   6.269  48.924  1.00  0.00     0.000 A 
ENDROOT
BRANCH   6  13
HETATM   13  N3  UNL     1      26.312   2.764  49.896  1.00  0.00    -0.340 N 
HETATM   14  H2  UNL     1      26.708   2.042  49.256  1.00  0.00     0.167 HD
BRANCH  13  15
HETATM   15  C5  UNL     1      26.288   2.188  51.197  1.00  0.00     0.036 A 
HETATM   16  C6  UNL     1      27.164   2.290  52.164  1.00  0.00     0.004 A 
HETATM   17  C7  UNL     1      27.494   1.898  53.526  1.00  0.00     0.040 A 
HETATM   18  C8  UNL     1      26.510   1.016  54.222  1.00  0.00     0.083 A 
HETATM   19  S1  UNL     1      25.138   0.690  53.093  1.00  0.00    -0.123 SA
HETATM   20 BR1  UNL     1      23.372  -0.586  53.728  1.00  0.00    -0.018 Br
HETATM   21  C9  UNL     1      25.179   1.347  51.624  1.00  0.00     0.075 A 
ENDBRANCH  13  15
ENDBRANCH   6  13
BRANCH   9  22
HETATM   22  N4  UNL     1      30.052   5.503  47.720  1.00  0.00    -0.323 N 
HETATM   23  C13 UNL     1      31.310   5.365  48.363  1.00  0.00     0.258 C 
HETATM   24  O1  UNL     1      31.308   5.483  49.632  1.00  0.00    -0.267 OA
HETATM   25  H10 UNL     1      29.945   5.422  46.676  1.00  0.00     0.169 HD
BRANCH  23  26
HETATM   26  C14 UNL     1      32.457   5.103  47.500  1.00  0.00     0.056 A 
HETATM   27  C15 UNL     1      32.582   4.328  46.392  1.00  0.00     0.043 A 
HETATM   28  C16 UNL     1      33.874   4.451  45.987  1.00  0.00     0.142 A 
HETATM   29  O2  UNL     1      34.497   5.262  46.812  1.00  0.00    -0.334 OA
HETATM   30  C17 UNL     1      33.678   5.689  47.755  1.00  0.00     0.158 A 
ENDBRANCH  23  26
ENDBRANCH   9  22
TORSDOF 4
ENDMDL
MODEL 7
REMARK VINA RESULT:      -8.9      4.111      7.772
REMARK  4 active torsions:
REMARK  status: ('A' for Active; 'I' for Inactive)
REMARK    1  A    between atoms: C4_6  and  N3_7 
REMARK    2  A    between atoms: N3_7  and  C5_8 
REMARK    3  A    between atoms: C12_17  and  N4_18 
REMARK       I    between atoms: N4_18  and  C13_19 
REMARK    4  A    between atoms: C13_19  and  C14_21 
ROOT
HETATM    1  N1  UNL     1      25.248   7.323  47.466  1.00  0.00    -0.191 NA
HETATM    2  C1  UNL     1      24.790   6.684  48.310  1.00  0.00     0.102 C 
HETATM    3  C2  UNL     1      24.192   5.889  49.361  1.00  0.00     0.073 A 
HETATM    4  C3  UNL     1      22.919   6.229  49.759  1.00  0.00     0.142 A 
HETATM    5  N2  UNL     1      22.390   5.477  50.734  1.00  0.00    -0.241 NA
HETATM    6  C4  UNL     1      23.005   4.456  51.316  1.00  0.00     0.139 A 
HETATM    7  C10 UNL     1      24.280   4.069  50.958  1.00  0.00     0.024 A 
HETATM    8  C11 UNL     1      24.922   3.022  51.549  1.00  0.00     0.045 A 
HETATM    9  C12 UNL     1      26.199   2.681  51.148  1.00  0.00     0.035 A 
HETATM   10  C18 UNL     1      26.785   3.441  50.135  1.00  0.00     0.030 A 
HETATM   11  C19 UNL     1      26.137   4.512  49.525  1.00  0.00     0.016 A 
HETATM   12  C20 UNL     1      24.864   4.818  49.955  1.00  0.00     0.000 A 
ENDROOT
BRANCH   6  13
HETATM   13  N3  UNL     1      22.295   3.781  52.322  1.00  0.00    -0.340 N 
HETATM   14  H2  UNL     1      22.326   3.845  53.362  1.00  0.00     0.167 HD
BRANCH  13  15
HETATM   15  C5  UNL     1      21.317   2.798  52.002  1.00  0.00     0.036 A 
HETATM   16  C6  UNL     1      21.473   1.522  51.762  1.00  0.00     0.004 A 
HETATM   17  C7  UNL     1      20.801   0.275  51.426  1.00  0.00     0.040 A 
HETATM   18  C8  UNL     1      19.318   0.343  51.260  1.00  0.00     0.083 A 
HETATM   19  S1  UNL     1      18.790   2.047  51.541  1.00  0.00    -0.123 SA
HETATM   20 BR1  UNL     1      16.600   2.632  51.428  1.00  0.00    -0.018 Br
HETATM   21  C9  UNL     1      19.908   3.149  51.901  1.00  0.00     0.075 A 
ENDBRANCH  13  15
ENDBRANCH   6  13
BRANCH   9  22
HETATM   22  N4  UNL     1      26.889   1.594  51.747  1.00  0.00    -0.323 N 
HETATM   23  C13 UNL     1      27.537   1.352  52.988  1.00  0.00     0.258 C 
HETATM   24  O1  UNL     1      27.530   2.317  53.821  1.00  0.00    -0.267 OA
HETATM   25  H10 UNL     1      26.838   0.864  50.991  1.00  0.00     0.169 HD
BRANCH  23  26
HETATM   26  C14 UNL     1      28.131   0.032  53.165  1.00  0.00     0.056 A 
HETATM   27  C15 UNL     1      29.387  -0.341  53.525  1.00  0.00     0.043 A 
HETATM   28  C16 UNL     1      29.391  -1.700  53.535  1.00  0.00     0.142 A 
HETATM   29  O2  UNL     1      28.194  -2.126  53.198  1.00  0.00    -0.334 OA
HETATM   30  C17 UNL     1      27.386  -1.109  52.962  1.00  0.00     0.158 A 
ENDBRANCH  23  26
ENDBRANCH   9  22
TORSDOF 4
ENDMDL
MODEL 8
REMARK VINA RESULT:      -8.8      4.579      7.811
REMARK  4 active torsions:
REMARK  status: ('A' for Active; 'I' for Inactive)
REMARK    1  A    between atoms: C4_6  and  N3_7 
REMARK    2  A    between atoms: N3_7  and  C5_8 
REMARK    3  A    between atoms: C12_17  and  N4_18 
REMARK       I    between atoms: N4_18  and  C13_19 
REMARK    4  A    between atoms: C13_19  and  C14_21 
ROOT
HETATM    1  N1  UNL     1      27.552  -1.967  53.153  1.00  0.00    -0.191 NA
HETATM    2  C1  UNL     1      26.652  -1.256  53.042  1.00  0.00     0.102 C 
HETATM    3  C2  UNL     1      25.510  -0.373  52.923  1.00  0.00     0.073 A 
HETATM    4  C3  UNL     1      24.335  -0.783  53.512  1.00  0.00     0.142 A 
HETATM    5  N2  UNL     1      23.295   0.053  53.385  1.00  0.00    -0.241 NA
HETATM    6  C4  UNL     1      23.335   1.215  52.746  1.00  0.00     0.139 A 
HETATM    7  C10 UNL     1      24.484   1.676  52.138  1.00  0.00     0.024 A 
HETATM    8  C11 UNL     1      24.536   2.868  51.478  1.00  0.00     0.045 A 
HETATM    9  C12 UNL     1      25.715   3.278  50.887  1.00  0.00     0.035 A 
HETATM   10  C18 UNL     1      26.823   2.434  50.997  1.00  0.00     0.030 A 
HETATM   11  C19 UNL     1      26.779   1.216  51.668  1.00  0.00     0.016 A 
HETATM   12  C20 UNL     1      25.582   0.845  52.243  1.00  0.00     0.000 A 
ENDROOT
BRANCH   6  13
HETATM   13  N3  UNL     1      22.145   1.960  52.715  1.00  0.00    -0.340 N 
HETATM   14  H2  UNL     1      21.882   2.873  53.145  1.00  0.00     0.167 HD
BRANCH  13  15
HETATM   15  C5  UNL     1      21.003   1.500  52.001  1.00  0.00     0.036 A 
HETATM   16  C6  UNL     1      20.680   1.688  50.748  1.00  0.00     0.004 A 
HETATM   17  C7  UNL     1      19.694   1.417  49.712  1.00  0.00     0.040 A 
HETATM   18  C8  UNL     1      18.515   0.594  50.115  1.00  0.00     0.083 A 
HETATM   19  S1  UNL     1      18.686   0.168  51.862  1.00  0.00    -0.123 SA
HETATM   20 BR1  UNL     1      17.138  -1.113  52.916  1.00  0.00    -0.018 Br
HETATM   21  C9  UNL     1      19.983   0.696  52.658  1.00  0.00     0.075 A 
ENDBRANCH  13  15
ENDBRANCH   6  13
BRANCH   9  22
HETATM   22  N4  UNL     1      25.797   4.514  50.194  1.00  0.00    -0.323 N 
HETATM   23  C13 UNL     1      26.637   5.074  49.195  1.00  0.00     0.258 C 
HETATM   24  O1  UNL     1      27.576   4.325  48.768  1.00  0.00    -0.267 OA
HETATM   25  H10 UNL     1      24.993   5.049  50.613  1.00  0.00     0.169 HD
BRANCH  23  26
HETATM   26  C14 UNL     1      26.328   6.435  48.773  1.00  0.00     0.056 A 
HETATM   27  C15 UNL     1      25.172   6.992  48.327  1.00  0.00     0.043 A 
HETATM   28  C16 UNL     1      25.452   8.298  48.075  1.00  0.00     0.142 A 
HETATM   29  O2  UNL     1      26.717   8.518  48.356  1.00  0.00    -0.334 OA
HETATM   30  C17 UNL     1      27.298   7.414  48.787  1.00  0.00     0.158 A 
ENDBRANCH  23  26
ENDBRANCH   9  22
TORSDOF 4
ENDMDL
MODEL 9
REMARK VINA RESULT:      -8.7      4.168      6.873
REMARK  4 active torsions:
REMARK  status: ('A' for Active; 'I' for Inactive)
REMARK    1  A    between atoms: C4_6  and  N3_7 
REMARK    2  A    between atoms: N3_7  and  C5_8 
REMARK    3  A    between atoms: C12_17  and  N4_18 
REMARK       I    between atoms: N4_18  and  C13_19 
REMARK    4  A    between atoms: C13_19  and  C14_21 
ROOT
HETATM    1  N1  UNL     1      21.116   6.078  46.711  1.00  0.00    -0.191 NA
HETATM    2  C1  UNL     1      22.162   6.153  47.190  1.00  0.00     0.102 C 
HETATM    3  C2  UNL     1      23.475   6.273  47.790  1.00  0.00     0.073 A 
HETATM    4  C3  UNL     1      24.187   7.419  47.520  1.00  0.00     0.142 A 
HETATM    5  N2  UNL     1      25.398   7.502  48.087  1.00  0.00    -0.241 NA
HETATM    6  C4  UNL     1      25.930   6.572  48.869  1.00  0.00     0.139 A 
HETATM    7  C10 UNL     1      25.263   5.404  49.174  1.00  0.00     0.024 A 
HETATM    8  C11 UNL     1      25.800   4.441  49.976  1.00  0.00     0.045 A 
HETATM    9  C12 UNL     1      25.085   3.291  50.247  1.00  0.00     0.035 A 
HETATM   10  C18 UNL     1      23.817   3.166  49.674  1.00  0.00     0.030 A 
HETATM   11  C19 UNL     1      23.261   4.144  48.854  1.00  0.00     0.016 A 
HETATM   12  C20 UNL     1      24.009   5.276  48.610  1.00  0.00     0.000 A 
ENDROOT
BRANCH   6  13
HETATM   13  N3  UNL     1      27.214   6.832  49.376  1.00  0.00    -0.340 N 
HETATM   14  H2  UNL     1      27.666   6.596  50.285  1.00  0.00     0.167 HD
BRANCH  13  15
HETATM   15  C5  UNL     1      28.181   7.541  48.610  1.00  0.00     0.036 A 
HETATM   16  C6  UNL     1      28.744   7.210  47.477  1.00  0.00     0.004 A 
HETATM   17  C7  UNL     1      29.694   7.612  46.450  1.00  0.00     0.040 A 
HETATM   18  C8  UNL     1      30.378   8.923  46.653  1.00  0.00     0.083 A 
HETATM   19  S1  UNL     1      29.782   9.645  48.197  1.00  0.00    -0.123 SA
HETATM   20 BR1  UNL     1      30.520  11.669  48.910  1.00  0.00    -0.018 Br
HETATM   21  C9  UNL     1      28.689   8.831  49.054  1.00  0.00     0.075 A 
ENDBRANCH  13  15
ENDBRANCH   6  13
BRANCH   9  22
HETATM   22  N4  UNL     1      25.620   2.273  51.079  1.00  0.00    -0.323 N 
HETATM   23  C13 UNL     1      25.542   1.929  52.454  1.00  0.00     0.258 C 
HETATM   24  O1  UNL     1      24.821   2.687  53.182  1.00  0.00    -0.267 OA
HETATM   25  H10 UNL     1      26.188   1.712  50.393  1.00  0.00     0.169 HD
BRANCH  23  26
HETATM   26  C14 UNL     1      26.291   0.750  52.874  1.00  0.00     0.056 A 
HETATM   27  C15 UNL     1      26.810  -0.281  52.158  1.00  0.00     0.043 A 
HETATM   28  C16 UNL     1      27.410  -1.104  53.057  1.00  0.00     0.142 A 
HETATM   29  O2  UNL     1      27.261  -0.593  54.258  1.00  0.00    -0.334 OA
HETATM   30  C17 UNL     1      26.585   0.540  54.204  1.00  0.00     0.158 A 
ENDBRANCH  23  26
ENDBRANCH   9  22
TORSDOF 4
ENDMDL
