MODEL 1
REMARK VINA RESULT:      -7.1      0.000      0.000
REMARK  5 active torsions:
REMARK  status: ('A' for Active; 'I' for Inactive)
REMARK    1  A    between atoms: C2_2  and  C3_3 
REMARK    2  A    between atoms: C2_2  and  C5_7 
REMARK    3  A    between atoms: C3_3  and  N1_4 
REMARK    4  A    between atoms: N1_4  and  S1_6 
REMARK    5  A    between atoms: C5_7  and  C6_9 
ROOT
HETATM    1  C6  UNL     1      24.232  -0.588  54.051  1.00  0.00     0.017 A 
HETATM    2  C7  UNL     1      23.422  -1.194  54.993  1.00  0.00     0.018 A 
HETATM    3  C8  UNL     1      22.027  -1.200  54.865  1.00  0.00     0.040 A 
HETATM    4  C9  UNL     1      21.421  -0.597  53.783  1.00  0.00     0.103 A 
HETATM    5  C10 UNL     1      22.199   0.016  52.825  1.00  0.00     0.110 A 
HETATM    6  C11 UNL     1      23.555  -0.008  53.001  1.00  0.00     0.055 A 
HETATM    7  O2  UNL     1      21.613   0.631  51.726  1.00  0.00    -0.310 OA
HETATM    8  C12 UNL     1      20.228   0.601  51.637  1.00  0.00     0.073 C 
HETATM    9  C13 UNL     1      19.637   0.713  50.457  1.00  0.00     0.004 C 
HETATM   10  C14 UNL     1      18.209   0.714  50.069  1.00  0.00     0.038 C 
HETATM   11  C15 UNL     1      19.442   0.446  52.866  1.00  0.00     0.240 C 
HETATM   12  O3  UNL     1      20.041  -0.597  53.646  1.00  0.00    -0.342 OA
ENDROOT
BRANCH   1  13
HETATM   13  C5  UNL     1      25.656  -0.630  54.262  1.00  0.00     0.189 C 
HETATM   14  O1  UNL     1      26.021  -0.485  55.467  1.00  0.00    -0.287 OA
BRANCH  13  15
HETATM   15  C2  UNL     1      26.719  -0.811  53.298  1.00  0.00    -0.003 C 
HETATM   16  C1  UNL     1      26.794  -1.798  52.434  1.00  0.00     0.024 C 
BRANCH  15  17
HETATM   17  C3  UNL     1      27.844   0.148  53.222  1.00  0.00     0.143 C 
BRANCH  17  18
HETATM   18  N1  UNL     1      27.307   1.515  53.262  1.00  0.00    -0.261 NA
HETATM   19  C4  UNL     1      28.429   2.411  53.551  1.00  0.00     0.124 C 
BRANCH  18  20
HETATM   20  S1  UNL     1      26.683   1.952  51.679  1.00  0.00    -0.096 SA
HETATM   21  H8  UNL     1      27.704   1.907  50.717  1.00  0.00     0.119 HD
ENDBRANCH  18  20
ENDBRANCH  17  18
ENDBRANCH  15  17
ENDBRANCH  13  15
ENDBRANCH   1  13
TORSDOF 5
ENDMDL
MODEL 2
REMARK VINA RESULT:      -6.9      2.853      3.263
REMARK  5 active torsions:
REMARK  status: ('A' for Active; 'I' for Inactive)
REMARK    1  A    between atoms: C2_2  and  C3_3 
REMARK    2  A    between atoms: C2_2  and  C5_7 
REMARK    3  A    between atoms: C3_3  and  N1_4 
REMARK    4  A    between atoms: N1_4  and  S1_6 
REMARK    5  A    between atoms: C5_7  and  C6_9 
ROOT
HETATM    1  C6  UNL     1      24.515   0.267  53.307  1.00  0.00     0.017 A 
HETATM    2  C7  UNL     1      23.281  -0.317  53.091  1.00  0.00     0.018 A 
HETATM    3  C8  UNL     1      22.176   0.437  52.673  1.00  0.00     0.040 A 
HETATM    4  C9  UNL     1      22.294   1.794  52.464  1.00  0.00     0.103 A 
HETATM    5  C10 UNL     1      23.510   2.409  52.670  1.00  0.00     0.110 A 
HETATM    6  C11 UNL     1      24.554   1.625  53.078  1.00  0.00     0.055 A 
HETATM    7  O2  UNL     1      23.655   3.775  52.467  1.00  0.00    -0.310 OA
HETATM    8  C12 UNL     1      22.536   4.485  52.053  1.00  0.00     0.073 C 
HETATM    9  C13 UNL     1      22.681   5.624  51.393  1.00  0.00     0.004 C 
HETATM   10  C14 UNL     1      21.688   6.572  50.840  1.00  0.00     0.038 C 
HETATM   11  C15 UNL     1      21.204   3.950  52.359  1.00  0.00     0.240 C 
HETATM   12  O3  UNL     1      21.207   2.550  52.051  1.00  0.00    -0.342 OA
ENDROOT
BRANCH   1  13
HETATM   13  C5  UNL     1      25.595  -0.583  53.736  1.00  0.00     0.189 C 
HETATM   14  O1  UNL     1      25.533  -0.957  54.946  1.00  0.00    -0.287 OA
BRANCH  13  15
HETATM   15  C2  UNL     1      26.734  -1.065  52.984  1.00  0.00    -0.003 C 
HETATM   16  C1  UNL     1      26.826  -2.255  52.435  1.00  0.00     0.024 C 
BRANCH  15  17
HETATM   17  C3  UNL     1      27.922  -0.208  52.778  1.00  0.00     0.143 C 
BRANCH  17  18
HETATM   18  N1  UNL     1      28.715  -0.187  54.015  1.00  0.00    -0.261 NA
HETATM   19  C4  UNL     1      29.954  -0.919  53.746  1.00  0.00     0.124 C 
BRANCH  18  20
HETATM   20  S1  UNL     1      29.159   1.468  54.406  1.00  0.00    -0.096 SA
HETATM   21  H8  UNL     1      28.029   2.200  54.802  1.00  0.00     0.119 HD
ENDBRANCH  18  20
ENDBRANCH  17  18
ENDBRANCH  15  17
ENDBRANCH  13  15
ENDBRANCH   1  13
TORSDOF 5
ENDMDL
MODEL 3
REMARK VINA RESULT:      -6.8      1.417      2.120
REMARK  5 active torsions:
REMARK  status: ('A' for Active; 'I' for Inactive)
REMARK    1  A    between atoms: C2_2  and  C3_3 
REMARK    2  A    between atoms: C2_2  and  C5_7 
REMARK    3  A    between atoms: C3_3  and  N1_4 
REMARK    4  A    between atoms: N1_4  and  S1_6 
REMARK    5  A    between atoms: C5_7  and  C6_9 
ROOT
HETATM    1  C6  UNL     1      24.080  -0.149  53.452  1.00  0.00     0.017 A 
HETATM    2  C7  UNL     1      23.966   1.170  53.052  1.00  0.00     0.018 A 
HETATM    3  C8  UNL     1      22.734   1.717  52.673  1.00  0.00     0.040 A 
HETATM    4  C9  UNL     1      21.591   0.948  52.691  1.00  0.00     0.103 A 
HETATM    5  C10 UNL     1      21.668  -0.371  53.085  1.00  0.00     0.110 A 
HETATM    6  C11 UNL     1      22.897  -0.853  53.444  1.00  0.00     0.055 A 
HETATM    7  O2  UNL     1      20.531  -1.169  53.111  1.00  0.00    -0.310 OA
HETATM    8  C12 UNL     1      19.330  -0.586  52.729  1.00  0.00     0.073 C 
HETATM    9  C13 UNL     1      18.184  -1.084  53.168  1.00  0.00     0.004 C 
HETATM   10  C14 UNL     1      16.781  -0.677  52.929  1.00  0.00     0.038 C 
HETATM   11  C15 UNL     1      19.360   0.578  51.837  1.00  0.00     0.240 C 
HETATM   12  O3  UNL     1      20.366   1.479  52.317  1.00  0.00    -0.342 OA
ENDROOT
BRANCH   1  13
HETATM   13  C5  UNL     1      25.385  -0.628  53.824  1.00  0.00     0.189 C 
HETATM   14  O1  UNL     1      25.553  -0.812  55.068  1.00  0.00    -0.287 OA
BRANCH  13  15
HETATM   15  C2  UNL     1      26.525  -0.925  52.984  1.00  0.00    -0.003 C 
HETATM   16  C1  UNL     1      26.825  -2.115  52.513  1.00  0.00     0.024 C 
BRANCH  15  17
HETATM   17  C3  UNL     1      27.470   0.141  52.585  1.00  0.00     0.143 C 
BRANCH  17  18
HETATM   18  N1  UNL     1      28.213   0.588  53.770  1.00  0.00    -0.261 NA
HETATM   19  C4  UNL     1      29.499  -0.111  53.763  1.00  0.00     0.124 C 
BRANCH  18  20
HETATM   20  S1  UNL     1      28.552   2.308  53.643  1.00  0.00    -0.096 SA
HETATM   21  H8  UNL     1      29.025   2.809  54.865  1.00  0.00     0.119 HD
ENDBRANCH  18  20
ENDBRANCH  17  18
ENDBRANCH  15  17
ENDBRANCH  13  15
ENDBRANCH   1  13
TORSDOF 5
ENDMDL
MODEL 4
REMARK VINA RESULT:      -6.8      3.402      7.249
REMARK  5 active torsions:
REMARK  status: ('A' for Active; 'I' for Inactive)
REMARK    1  A    between atoms: C2_2  and  C3_3 
REMARK    2  A    between atoms: C2_2  and  C5_7 
REMARK    3  A    between atoms: C3_3  and  N1_4 
REMARK    4  A    between atoms: N1_4  and  S1_6 
REMARK    5  A    between atoms: C5_7  and  C6_9 
ROOT
HETATM    1  C6  UNL     1      23.043   0.561  53.063  1.00  0.00     0.017 A 
HETATM    2  C7  UNL     1      23.371   1.894  52.903  1.00  0.00     0.018 A 
HETATM    3  C8  UNL     1      24.694   2.341  53.003  1.00  0.00     0.040 A 
HETATM    4  C9  UNL     1      25.715   1.452  53.266  1.00  0.00     0.103 A 
HETATM    5  C10 UNL     1      25.423   0.115  53.431  1.00  0.00     0.110 A 
HETATM    6  C11 UNL     1      24.114  -0.265  53.323  1.00  0.00     0.055 A 
HETATM    7  O2  UNL     1      26.433  -0.801  53.697  1.00  0.00    -0.310 OA
HETATM    8  C12 UNL     1      27.731  -0.317  53.788  1.00  0.00     0.073 C 
HETATM    9  C13 UNL     1      28.756  -1.123  53.556  1.00  0.00     0.004 C 
HETATM   10  C14 UNL     1      30.216  -0.886  53.579  1.00  0.00     0.038 C 
HETATM   11  C15 UNL     1      27.939   1.091  54.143  1.00  0.00     0.240 C 
HETATM   12  O3  UNL     1      27.029   1.883  53.368  1.00  0.00    -0.342 OA
ENDROOT
BRANCH   1  13
HETATM   13  C5  UNL     1      21.657   0.191  52.944  1.00  0.00     0.189 C 
HETATM   14  O1  UNL     1      21.175  -0.412  53.950  1.00  0.00    -0.287 OA
BRANCH  13  15
HETATM   15  C2  UNL     1      20.743   0.408  51.843  1.00  0.00    -0.003 C 
HETATM   16  C1  UNL     1      21.071   0.370  50.571  1.00  0.00     0.024 C 
BRANCH  15  17
HETATM   17  C3  UNL     1      19.314   0.701  52.092  1.00  0.00     0.143 C 
BRANCH  17  18
HETATM   18  N1  UNL     1      18.505  -0.428  51.614  1.00  0.00    -0.261 NA
HETATM   19  C4  UNL     1      17.864  -1.027  52.786  1.00  0.00     0.124 C 
BRANCH  18  20
HETATM   20  S1  UNL     1      17.227   0.162  50.562  1.00  0.00    -0.096 SA
HETATM   21  H8  UNL     1      17.000  -0.738  49.510  1.00  0.00     0.119 HD
ENDBRANCH  18  20
ENDBRANCH  17  18
ENDBRANCH  15  17
ENDBRANCH  13  15
ENDBRANCH   1  13
TORSDOF 5
ENDMDL
MODEL 5
REMARK VINA RESULT:      -6.7      3.282      6.963
REMARK  5 active torsions:
REMARK  status: ('A' for Active; 'I' for Inactive)
REMARK    1  A    between atoms: C2_2  and  C3_3 
REMARK    2  A    between atoms: C2_2  and  C5_7 
REMARK    3  A    between atoms: C3_3  and  N1_4 
REMARK    4  A    between atoms: N1_4  and  S1_6 
REMARK    5  A    between atoms: C5_7  and  C6_9 
ROOT
HETATM    1  C6  UNL     1      23.809   1.926  51.841  1.00  0.00     0.017 A 
HETATM    2  C7  UNL     1      24.036   2.878  52.818  1.00  0.00     0.018 A 
HETATM    3  C8  UNL     1      25.116   2.776  53.704  1.00  0.00     0.040 A 
HETATM    4  C9  UNL     1      25.990   1.713  53.623  1.00  0.00     0.103 A 
HETATM    5  C10 UNL     1      25.793   0.746  52.661  1.00  0.00     0.110 A 
HETATM    6  C11 UNL     1      24.723   0.896  51.823  1.00  0.00     0.055 A 
HETATM    7  O2  UNL     1      26.659  -0.335  52.558  1.00  0.00    -0.310 OA
HETATM    8  C12 UNL     1      27.717  -0.397  53.455  1.00  0.00     0.073 C 
HETATM    9  C13 UNL     1      28.812  -1.074  53.142  1.00  0.00     0.004 C 
HETATM   10  C14 UNL     1      30.069  -1.307  53.887  1.00  0.00     0.038 C 
HETATM   11  C15 UNL     1      27.595   0.295  54.743  1.00  0.00     0.240 C 
HETATM   12  O3  UNL     1      27.062   1.602  54.495  1.00  0.00    -0.342 OA
ENDROOT
BRANCH   1  13
HETATM   13  C5  UNL     1      22.675   2.111  50.974  1.00  0.00     0.189 C 
HETATM   14  O1  UNL     1      22.416   3.317  50.682  1.00  0.00    -0.287 OA
BRANCH  13  15
HETATM   15  C2  UNL     1      21.796   1.119  50.394  1.00  0.00    -0.003 C 
HETATM   16  C1  UNL     1      21.502   1.025  49.116  1.00  0.00     0.024 C 
BRANCH  15  17
HETATM   17  C3  UNL     1      21.140   0.100  51.243  1.00  0.00     0.143 C 
BRANCH  17  18
HETATM   18  N1  UNL     1      20.278   0.777  52.220  1.00  0.00    -0.261 NA
HETATM   19  C4  UNL     1      18.921   0.262  52.029  1.00  0.00     0.124 C 
BRANCH  18  20
HETATM   20  S1  UNL     1      20.777   0.345  53.849  1.00  0.00    -0.096 SA
HETATM   21  H8  UNL     1      21.708   1.273  54.341  1.00  0.00     0.119 HD
ENDBRANCH  18  20
ENDBRANCH  17  18
ENDBRANCH  15  17
ENDBRANCH  13  15
ENDBRANCH   1  13
TORSDOF 5
ENDMDL
MODEL 6
REMARK VINA RESULT:      -6.7      3.984      5.087
REMARK  5 active torsions:
REMARK  status: ('A' for Active; 'I' for Inactive)
REMARK    1  A    between atoms: C2_2  and  C3_3 
REMARK    2  A    between atoms: C2_2  and  C5_7 
REMARK    3  A    between atoms: C3_3  and  N1_4 
REMARK    4  A    between atoms: N1_4  and  S1_6 
REMARK    5  A    between atoms: C5_7  and  C6_9 
ROOT
HETATM    1  C6  UNL     1      24.618   1.329  52.480  1.00  0.00     0.017 A 
HETATM    2  C7  UNL     1      23.374   1.868  52.756  1.00  0.00     0.018 A 
HETATM    3  C8  UNL     1      22.989   3.117  52.252  1.00  0.00     0.040 A 
HETATM    4  C9  UNL     1      23.848   3.847  51.460  1.00  0.00     0.103 A 
HETATM    5  C10 UNL     1      25.096   3.340  51.165  1.00  0.00     0.110 A 
HETATM    6  C11 UNL     1      25.419   2.116  51.684  1.00  0.00     0.055 A 
HETATM    7  O2  UNL     1      25.980   4.057  50.369  1.00  0.00    -0.310 OA
HETATM    8  C12 UNL     1      25.558   5.290  49.890  1.00  0.00     0.073 C 
HETATM    9  C13 UNL     1      26.096   5.791  48.789  1.00  0.00     0.004 C 
HETATM   10  C14 UNL     1      25.846   7.056  48.063  1.00  0.00     0.038 C 
HETATM   11  C15 UNL     1      24.516   6.016  50.624  1.00  0.00     0.240 C 
HETATM   12  O3  UNL     1      23.477   5.085  50.956  1.00  0.00    -0.342 OA
ENDROOT
BRANCH   1  13
HETATM   13  C5  UNL     1      24.930   0.040  53.039  1.00  0.00     0.189 C 
HETATM   14  O1  UNL     1      23.938  -0.594  53.510  1.00  0.00    -0.287 OA
BRANCH  13  15
HETATM   15  C2  UNL     1      26.210  -0.629  53.138  1.00  0.00    -0.003 C 
HETATM   16  C1  UNL     1      26.563  -1.688  52.445  1.00  0.00     0.024 C 
BRANCH  15  17
HETATM   17  C3  UNL     1      27.249  -0.140  54.072  1.00  0.00     0.143 C 
BRANCH  17  18
HETATM   18  N1  UNL     1      28.386   0.369  53.295  1.00  0.00    -0.261 NA
HETATM   19  C4  UNL     1      28.600   1.759  53.702  1.00  0.00     0.124 C 
BRANCH  18  20
HETATM   20  S1  UNL     1      29.838  -0.528  53.713  1.00  0.00    -0.096 SA
HETATM   21  H8  UNL     1      30.452   0.029  54.846  1.00  0.00     0.119 HD
ENDBRANCH  18  20
ENDBRANCH  17  18
ENDBRANCH  15  17
ENDBRANCH  13  15
ENDBRANCH   1  13
TORSDOF 5
ENDMDL
MODEL 7
REMARK VINA RESULT:      -6.5      4.062      6.082
REMARK  5 active torsions:
REMARK  status: ('A' for Active; 'I' for Inactive)
REMARK    1  A    between atoms: C2_2  and  C3_3 
REMARK    2  A    between atoms: C2_2  and  C5_7 
REMARK    3  A    between atoms: C3_3  and  N1_4 
REMARK    4  A    between atoms: N1_4  and  S1_6 
REMARK    5  A    between atoms: C5_7  and  C6_9 
ROOT
HETATM    1  C6  UNL     1      24.547   0.514  52.949  1.00  0.00     0.017 A 
HETATM    2  C7  UNL     1      25.851   0.138  52.689  1.00  0.00     0.018 A 
HETATM    3  C8  UNL     1      26.699   0.927  51.900  1.00  0.00     0.040 A 
HETATM    4  C9  UNL     1      26.248   2.112  51.359  1.00  0.00     0.103 A 
HETATM    5  C10 UNL     1      24.953   2.517  51.598  1.00  0.00     0.110 A 
HETATM    6  C11 UNL     1      24.170   1.708  52.375  1.00  0.00     0.055 A 
HETATM    7  O2  UNL     1      24.474   3.707  51.064  1.00  0.00    -0.310 OA
HETATM    8  C12 UNL     1      25.347   4.459  50.289  1.00  0.00     0.073 C 
HETATM    9  C13 UNL     1      25.159   5.764  50.158  1.00  0.00     0.004 C 
HETATM   10  C14 UNL     1      25.914   6.794  49.411  1.00  0.00     0.038 C 
HETATM   11  C15 UNL     1      26.468   3.783  49.626  1.00  0.00     0.240 C 
HETATM   12  O3  UNL     1      27.078   2.901  50.576  1.00  0.00    -0.342 OA
ENDROOT
BRANCH   1  13
HETATM   13  C5  UNL     1      23.747  -0.357  53.769  1.00  0.00     0.189 C 
HETATM   14  O1  UNL     1      24.374  -0.931  54.710  1.00  0.00    -0.287 OA
BRANCH  13  15
HETATM   15  C2  UNL     1      22.337  -0.669  53.670  1.00  0.00    -0.003 C 
HETATM   16  C1  UNL     1      21.663  -1.398  54.530  1.00  0.00     0.024 C 
BRANCH  15  17
HETATM   17  C3  UNL     1      21.528  -0.162  52.539  1.00  0.00     0.143 C 
BRANCH  17  18
HETATM   18  N1  UNL     1      20.329   0.500  53.069  1.00  0.00    -0.261 NA
HETATM   19  C4  UNL     1      20.448   1.925  52.754  1.00  0.00     0.124 C 
BRANCH  18  20
HETATM   20  S1  UNL     1      18.903  -0.103  52.237  1.00  0.00    -0.096 SA
HETATM   21  H8  UNL     1      19.243  -0.586  50.964  1.00  0.00     0.119 HD
ENDBRANCH  18  20
ENDBRANCH  17  18
ENDBRANCH  15  17
ENDBRANCH  13  15
ENDBRANCH   1  13
TORSDOF 5
ENDMDL
MODEL 8
REMARK VINA RESULT:      -6.4      2.460      6.337
REMARK  5 active torsions:
REMARK  status: ('A' for Active; 'I' for Inactive)
REMARK    1  A    between atoms: C2_2  and  C3_3 
REMARK    2  A    between atoms: C2_2  and  C5_7 
REMARK    3  A    between atoms: C3_3  and  N1_4 
REMARK    4  A    between atoms: N1_4  and  S1_6 
REMARK    5  A    between atoms: C5_7  and  C6_9 
ROOT
HETATM    1  C6  UNL     1      21.962  -0.344  53.634  1.00  0.00     0.017 A 
HETATM    2  C7  UNL     1      22.334  -1.208  54.648  1.00  0.00     0.018 A 
HETATM    3  C8  UNL     1      23.658  -1.286  55.096  1.00  0.00     0.040 A 
HETATM    4  C9  UNL     1      24.636  -0.494  54.533  1.00  0.00     0.103 A 
HETATM    5  C10 UNL     1      24.301   0.379  53.520  1.00  0.00     0.110 A 
HETATM    6  C11 UNL     1      22.992   0.413  53.122  1.00  0.00     0.055 A 
HETATM    7  O2  UNL     1      25.266   1.187  52.935  1.00  0.00    -0.310 OA
HETATM    8  C12 UNL     1      26.567   1.079  53.410  1.00  0.00     0.073 C 
HETATM    9  C13 UNL     1      27.407   2.094  53.274  1.00  0.00     0.004 C 
HETATM   10  C14 UNL     1      28.822   2.257  53.676  1.00  0.00     0.038 C 
HETATM   11  C15 UNL     1      26.983  -0.170  54.056  1.00  0.00     0.240 C 
HETATM   12  O3  UNL     1      25.950  -0.563  54.969  1.00  0.00    -0.342 OA
ENDROOT
BRANCH   1  13
HETATM   13  C5  UNL     1      20.579  -0.330  53.236  1.00  0.00     0.189 C 
HETATM   14  O1  UNL     1      19.862  -1.233  53.763  1.00  0.00    -0.287 OA
BRANCH  13  15
HETATM   15  C2  UNL     1      19.898   0.564  52.325  1.00  0.00    -0.003 C 
HETATM   16  C1  UNL     1      19.162   0.184  51.304  1.00  0.00     0.024 C 
BRANCH  15  17
HETATM   17  C3  UNL     1      19.994   2.032  52.491  1.00  0.00     0.143 C 
BRANCH  17  18
HETATM   18  N1  UNL     1      20.010   2.662  51.165  1.00  0.00    -0.261 NA
HETATM   19  C4  UNL     1      19.242   3.904  51.267  1.00  0.00     0.124 C 
BRANCH  18  20
HETATM   20  S1  UNL     1      21.658   3.098  50.737  1.00  0.00    -0.096 SA
HETATM   21  H8  UNL     1      22.513   1.994  50.884  1.00  0.00     0.119 HD
ENDBRANCH  18  20
ENDBRANCH  17  18
ENDBRANCH  15  17
ENDBRANCH  13  15
ENDBRANCH   1  13
TORSDOF 5
ENDMDL
MODEL 9
REMARK VINA RESULT:      -6.4      3.378      7.033
REMARK  5 active torsions:
REMARK  status: ('A' for Active; 'I' for Inactive)
REMARK    1  A    between atoms: C2_2  and  C3_3 
REMARK    2  A    between atoms: C2_2  and  C5_7 
REMARK    3  A    between atoms: C3_3  and  N1_4 
REMARK    4  A    between atoms: N1_4  and  S1_6 
REMARK    5  A    between atoms: C5_7  and  C6_9 
ROOT
HETATM    1  C6  UNL     1      22.585   1.107  52.406  1.00  0.00     0.017 A 
HETATM    2  C7  UNL     1      22.343   0.047  53.260  1.00  0.00     0.018 A 
HETATM    3  C8  UNL     1      23.389  -0.698  53.819  1.00  0.00     0.040 A 
HETATM    4  C9  UNL     1      24.701  -0.389  53.530  1.00  0.00     0.103 A 
HETATM    5  C10 UNL     1      24.978   0.662  52.682  1.00  0.00     0.110 A 
HETATM    6  C11 UNL     1      23.918   1.355  52.165  1.00  0.00     0.055 A 
HETATM    7  O2  UNL     1      26.291   0.994  52.375  1.00  0.00    -0.310 OA
HETATM    8  C12 UNL     1      27.298   0.231  52.951  1.00  0.00     0.073 C 
HETATM    9  C13 UNL     1      28.509   0.744  53.109  1.00  0.00     0.004 C 
HETATM   10  C14 UNL     1      29.749   0.174  53.680  1.00  0.00     0.038 C 
HETATM   11  C15 UNL     1      26.993  -1.140  53.374  1.00  0.00     0.240 C 
HETATM   12  O3  UNL     1      25.744  -1.119  54.077  1.00  0.00    -0.342 OA
ENDROOT
BRANCH   1  13
HETATM   13  C5  UNL     1      21.450   1.817  51.878  1.00  0.00     0.189 C 
HETATM   14  O1  UNL     1      21.246   2.958  52.392  1.00  0.00    -0.287 OA
BRANCH  13  15
HETATM   15  C2  UNL     1      20.515   1.413  50.850  1.00  0.00    -0.003 C 
HETATM   16  C1  UNL     1      20.844   1.051  49.630  1.00  0.00     0.024 C 
BRANCH  15  17
HETATM   17  C3  UNL     1      19.060   1.382  51.120  1.00  0.00     0.143 C 
BRANCH  17  18
HETATM   18  N1  UNL     1      18.588  -0.006  51.029  1.00  0.00    -0.261 NA
HETATM   19  C4  UNL     1      18.339  -0.467  52.396  1.00  0.00     0.124 C 
BRANCH  18  20
HETATM   20  S1  UNL     1      17.055  -0.055  50.172  1.00  0.00    -0.096 SA
HETATM   21  H8  UNL     1      16.742   1.210  49.651  1.00  0.00     0.119 HD
ENDBRANCH  18  20
ENDBRANCH  17  18
ENDBRANCH  15  17
ENDBRANCH  13  15
ENDBRANCH   1  13
TORSDOF 5
ENDMDL
