MODEL 1
REMARK VINA RESULT:      -7.9      0.000      0.000
REMARK  8 active torsions:
REMARK  status: ('A' for Active; 'I' for Inactive)
REMARK    1  A    between atoms: C3_4  and  C4_5 
REMARK    2  A    between atoms: C4_5  and  C5_6 
REMARK    3  A    between atoms: C6_7  and  N1_8 
REMARK    4  A    between atoms: N1_8  and  C7_9 
REMARK    5  A    between atoms: C7_9  and  N2_11 
REMARK    6  A    between atoms: N2_11  and  C8_12 
REMARK    7  A    between atoms: C8_12  and  C9_13 
REMARK    8  A    between atoms: C9_13  and  N3_14 
ROOT
HETATM    1  C4  UNL     1      23.164   3.757  51.636  1.00  0.00    -0.005 C 
ENDROOT
BRANCH   1   2
HETATM    2  C3  UNL     1      23.928   4.712  51.156  1.00  0.00     0.071 A 
HETATM    3  C2  UNL     1      25.063   4.286  50.362  1.00  0.00     0.001 A 
HETATM    4  C1  UNL     1      25.761   3.385  49.786  1.00  0.00     0.449 C 
HETATM    5  C18 UNL     1      24.948   5.676  50.647  1.00  0.00     0.185 A 
HETATM    6  F1  UNL     1      26.915   3.339  49.030  1.00  0.00    -0.452 F 
HETATM    7  N5  UNL     1      25.749   6.170  49.584  1.00  0.00    -0.250 NA
HETATM    8  N6  UNL     1      25.012   6.942  50.793  1.00  0.00    -0.084 NA
HETATM    9  N4  UNL     1      23.966   6.161  51.334  1.00  0.00     0.000 N 
HETATM   10  C17 UNL     1      24.983   6.210  48.475  1.00  0.00     0.107 C 
HETATM   11  C16 UNL     1      23.786   6.740  48.781  1.00  0.00     0.086 C 
HETATM   12  C15 UNL     1      22.732   6.321  49.752  1.00  0.00     0.058 C 
HETATM   13 CL2  UNL     1      23.817   8.145  47.736  1.00  0.00    -0.080 Cl
HETATM   14  C14 UNL     1      22.515   6.002  51.096  1.00  0.00     0.027 C 
HETATM   15 CL1  UNL     1      21.421   6.379  48.552  1.00  0.00    -0.082 Cl
HETATM   16  N7  UNL     1      24.009   7.597  51.507  1.00  0.00    -0.232 N 
HETATM   17  H20 UNL     1      23.268   8.072  52.032  1.00  0.00     0.205 HD
ENDBRANCH   1   2
BRANCH   1  18
HETATM   18  C5  UNL     1      23.326   2.469  52.316  1.00  0.00     0.014 C 
HETATM   19  C6  UNL     1      22.553   1.483  51.907  1.00  0.00     0.090 C 
BRANCH  19  20
HETATM   20  N1  UNL     1      22.481   0.158  52.350  1.00  0.00    -0.343 N 
HETATM   21  H5  UNL     1      22.151  -0.480  51.597  1.00  0.00     0.167 HD
BRANCH  20  22
HETATM   22  C7  UNL     1      22.792  -0.294  53.644  1.00  0.00     0.171 C 
HETATM   23  S1  UNL     1      21.500  -0.423  54.626  1.00  0.00    -0.041 SA
BRANCH  22  24
HETATM   24  N2  UNL     1      24.089  -0.611  54.058  1.00  0.00    -0.365 N 
HETATM   25  H6  UNL     1      24.136  -1.557  54.550  1.00  0.00     0.161 HD
BRANCH  24  26
HETATM   26  C8  UNL     1      25.374  -0.013  54.000  1.00  0.00     0.152 C 
BRANCH  26  27
HETATM   27  C9  UNL     1      26.353  -0.638  53.040  1.00  0.00     0.292 C 
BRANCH  27  28
HETATM   28  N3  UNL     1      27.461   0.234  52.788  1.00  0.00     0.094 N 
HETATM   29  C10 UNL     1      28.649  -0.268  53.439  1.00  0.00     0.298 C 
HETATM   30  C11 UNL     1      28.757   0.362  54.834  1.00  0.00     0.198 C 
HETATM   31  O1  UNL     1      29.044   1.720  54.718  1.00  0.00    -0.388 OA
HETATM   32  C12 UNL     1      28.450   2.286  53.584  1.00  0.00     0.198 C 
HETATM   33  C13 UNL     1      27.175   1.562  53.229  1.00  0.00     0.298 C 
ENDBRANCH  27  28
ENDBRANCH  26  27
ENDBRANCH  24  26
ENDBRANCH  22  24
ENDBRANCH  20  22
ENDBRANCH  19  20
ENDBRANCH   1  18
TORSDOF 8
ENDMDL
MODEL 2
REMARK VINA RESULT:      -7.9      5.415      7.609
REMARK  8 active torsions:
REMARK  status: ('A' for Active; 'I' for Inactive)
REMARK    1  A    between atoms: C3_4  and  C4_5 
REMARK    2  A    between atoms: C4_5  and  C5_6 
REMARK    3  A    between atoms: C6_7  and  N1_8 
REMARK    4  A    between atoms: N1_8  and  C7_9 
REMARK    5  A    between atoms: C7_9  and  N2_11 
REMARK    6  A    between atoms: N2_11  and  C8_12 
REMARK    7  A    between atoms: C8_12  and  C9_13 
REMARK    8  A    between atoms: C9_13  and  N3_14 
ROOT
HETATM    1  C4  UNL     1      26.441   2.715  50.112  1.00  0.00    -0.005 C 
ENDROOT
BRANCH   1   2
HETATM    2  C3  UNL     1      25.701   2.578  51.188  1.00  0.00     0.071 A 
HETATM    3  C2  UNL     1      24.268   2.523  50.978  1.00  0.00     0.001 A 
HETATM    4  C1  UNL     1      23.240   2.490  50.220  1.00  0.00     0.449 C 
HETATM    5  C18 UNL     1      24.732   2.544  52.323  1.00  0.00     0.185 A 
HETATM    6  F1  UNL     1      21.871   2.432  50.386  1.00  0.00    -0.452 F 
HETATM    7  N5  UNL     1      23.585   1.982  52.944  1.00  0.00    -0.250 NA
HETATM    8  N6  UNL     1      24.954   2.551  53.579  1.00  0.00    -0.084 NA
HETATM    9  N4  UNL     1      25.989   2.577  52.619  1.00  0.00     0.000 N 
HETATM   10  C17 UNL     1      23.660   0.642  52.811  1.00  0.00     0.107 C 
HETATM   11  C16 UNL     1      24.908   0.236  53.101  1.00  0.00     0.086 C 
HETATM   12  C15 UNL     1      26.232   0.583  52.503  1.00  0.00     0.058 C 
HETATM   13 CL2  UNL     1      24.563  -0.808  54.464  1.00  0.00    -0.080 Cl
HETATM   14  C14 UNL     1      27.061   1.660  52.174  1.00  0.00     0.027 C 
HETATM   15 CL1  UNL     1      26.720  -1.112  52.279  1.00  0.00    -0.082 Cl
HETATM   16  N7  UNL     1      26.270   2.577  54.039  1.00  0.00    -0.232 N 
HETATM   17  H20 UNL     1      27.240   2.596  54.370  1.00  0.00     0.205 HD
ENDBRANCH   1   2
BRANCH   1  18
HETATM   18  C5  UNL     1      26.771   3.763  49.142  1.00  0.00     0.014 C 
HETATM   19  C6  UNL     1      26.247   4.954  49.357  1.00  0.00     0.090 C 
BRANCH  19  20
HETATM   20  N1  UNL     1      26.381   6.137  48.622  1.00  0.00    -0.343 N 
HETATM   21  H5  UNL     1      25.528   6.336  48.059  1.00  0.00     0.167 HD
BRANCH  20  22
HETATM   22  C7  UNL     1      27.510   6.973  48.608  1.00  0.00     0.171 C 
HETATM   23  S1  UNL     1      27.190   8.507  48.163  1.00  0.00    -0.041 SA
BRANCH  22  24
HETATM   24  N2  UNL     1      28.795   6.539  48.947  1.00  0.00    -0.365 N 
HETATM   25  H6  UNL     1      29.045   6.768  49.959  1.00  0.00     0.161 HD
BRANCH  24  26
HETATM   26  C8  UNL     1      29.867   5.866  48.307  1.00  0.00     0.152 C 
BRANCH  26  27
HETATM   27  C9  UNL     1      31.218   5.998  48.962  1.00  0.00     0.292 C 
BRANCH  27  28
HETATM   28  N3  UNL     1      32.274   5.899  47.999  1.00  0.00     0.094 N 
HETATM   29  C10 UNL     1      32.057   4.759  47.138  1.00  0.00     0.298 C 
HETATM   30  C11 UNL     1      32.783   3.543  47.729  1.00  0.00     0.198 C 
HETATM   31  O1  UNL     1      34.161   3.721  47.631  1.00  0.00    -0.388 OA
HETATM   32  C12 UNL     1      34.526   5.066  47.766  1.00  0.00     0.198 C 
HETATM   33  C13 UNL     1      33.545   5.802  48.644  1.00  0.00     0.298 C 
ENDBRANCH  27  28
ENDBRANCH  26  27
ENDBRANCH  24  26
ENDBRANCH  22  24
ENDBRANCH  20  22
ENDBRANCH  19  20
ENDBRANCH   1  18
TORSDOF 8
ENDMDL
MODEL 3
REMARK VINA RESULT:      -7.8      4.819      7.570
REMARK  8 active torsions:
REMARK  status: ('A' for Active; 'I' for Inactive)
REMARK    1  A    between atoms: C3_4  and  C4_5 
REMARK    2  A    between atoms: C4_5  and  C5_6 
REMARK    3  A    between atoms: C6_7  and  N1_8 
REMARK    4  A    between atoms: N1_8  and  C7_9 
REMARK    5  A    between atoms: C7_9  and  N2_11 
REMARK    6  A    between atoms: N2_11  and  C8_12 
REMARK    7  A    between atoms: C8_12  and  C9_13 
REMARK    8  A    between atoms: C9_13  and  N3_14 
ROOT
HETATM    1  C4  UNL     1      26.264   2.746  50.051  1.00  0.00    -0.005 C 
ENDROOT
BRANCH   1   2
HETATM    2  C3  UNL     1      25.559   2.573  51.146  1.00  0.00     0.071 A 
HETATM    3  C2  UNL     1      24.128   2.426  50.971  1.00  0.00     0.001 A 
HETATM    4  C1  UNL     1      23.086   2.320  50.239  1.00  0.00     0.449 C 
HETATM    5  C18 UNL     1      24.621   2.489  52.305  1.00  0.00     0.185 A 
HETATM    6  F1  UNL     1      21.729   2.177  50.439  1.00  0.00    -0.452 F 
HETATM    7  N5  UNL     1      23.528   1.862  52.958  1.00  0.00    -0.250 NA
HETATM    8  N6  UNL     1      24.872   2.523  53.555  1.00  0.00    -0.084 NA
HETATM    9  N4  UNL     1      25.881   2.605  52.570  1.00  0.00     0.000 N 
HETATM   10  C17 UNL     1      23.684   0.528  52.834  1.00  0.00     0.107 C 
HETATM   11  C16 UNL     1      24.963   0.204  53.098  1.00  0.00     0.086 C 
HETATM   12  C15 UNL     1      26.247   0.628  52.464  1.00  0.00     0.058 C 
HETATM   13 CL2  UNL     1      24.716  -0.846  54.477  1.00  0.00    -0.080 Cl
HETATM   14  C14 UNL     1      26.997   1.753  52.106  1.00  0.00     0.027 C 
HETATM   15 CL1  UNL     1      26.836  -1.034  52.243  1.00  0.00    -0.082 Cl
HETATM   16  N7  UNL     1      26.195   2.636  53.982  1.00  0.00    -0.232 N 
HETATM   17  H20 UNL     1      27.169   2.719  54.289  1.00  0.00     0.205 HD
ENDBRANCH   1   2
BRANCH   1  18
HETATM   18  C5  UNL     1      26.812   3.860  49.273  1.00  0.00     0.014 C 
HETATM   19  C6  UNL     1      26.197   5.020  49.387  1.00  0.00     0.090 C 
BRANCH  19  20
HETATM   20  N1  UNL     1      26.484   6.249  48.783  1.00  0.00    -0.343 N 
HETATM   21  H5  UNL     1      26.627   6.148  47.757  1.00  0.00     0.167 HD
BRANCH  20  22
HETATM   22  C7  UNL     1      26.588   7.485  49.443  1.00  0.00     0.171 C 
HETATM   23  S1  UNL     1      25.184   8.017  50.074  1.00  0.00    -0.041 SA
BRANCH  22  24
HETATM   24  N2  UNL     1      27.785   8.200  49.558  1.00  0.00    -0.365 N 
HETATM   25  H6  UNL     1      28.018   8.437  50.572  1.00  0.00     0.161 HD
BRANCH  24  26
HETATM   26  C8  UNL     1      28.786   8.697  48.685  1.00  0.00     0.152 C 
BRANCH  26  27
HETATM   27  C9  UNL     1      30.207   8.584  49.173  1.00  0.00     0.292 C 
BRANCH  27  28
HETATM   28  N3  UNL     1      30.997   7.780  48.289  1.00  0.00     0.094 N 
HETATM   29  C10 UNL     1      30.144   6.916  47.505  1.00  0.00     0.298 C 
HETATM   30  C11 UNL     1      29.991   5.573  48.232  1.00  0.00     0.198 C 
HETATM   31  O1  UNL     1      31.201   4.883  48.208  1.00  0.00    -0.388 OA
HETATM   32  C12 UNL     1      32.299   5.749  48.264  1.00  0.00     0.198 C 
HETATM   33  C13 UNL     1      31.951   7.007  49.019  1.00  0.00     0.298 C 
ENDBRANCH  27  28
ENDBRANCH  26  27
ENDBRANCH  24  26
ENDBRANCH  22  24
ENDBRANCH  20  22
ENDBRANCH  19  20
ENDBRANCH   1  18
TORSDOF 8
ENDMDL
MODEL 4
REMARK VINA RESULT:      -7.5      4.927      6.408
REMARK  8 active torsions:
REMARK  status: ('A' for Active; 'I' for Inactive)
REMARK    1  A    between atoms: C3_4  and  C4_5 
REMARK    2  A    between atoms: C4_5  and  C5_6 
REMARK    3  A    between atoms: C6_7  and  N1_8 
REMARK    4  A    between atoms: N1_8  and  C7_9 
REMARK    5  A    between atoms: C7_9  and  N2_11 
REMARK    6  A    between atoms: N2_11  and  C8_12 
REMARK    7  A    between atoms: C8_12  and  C9_13 
REMARK    8  A    between atoms: C9_13  and  N3_14 
ROOT
HETATM    1  C4  UNL     1      28.127   7.601  47.875  1.00  0.00    -0.005 C 
ENDROOT
BRANCH   1   2
HETATM    2  C3  UNL     1      29.323   7.917  48.317  1.00  0.00     0.071 A 
HETATM    3  C2  UNL     1      30.386   6.977  48.020  1.00  0.00     0.001 A 
HETATM    4  C1  UNL     1      30.830   5.919  47.461  1.00  0.00     0.449 C 
HETATM    5  C18 UNL     1      30.705   8.084  48.856  1.00  0.00     0.185 A 
HETATM    6  F1  UNL     1      32.037   5.255  47.384  1.00  0.00    -0.452 F 
HETATM    7  N5  UNL     1      32.110   8.095  48.653  1.00  0.00    -0.250 NA
HETATM    8  N6  UNL     1      31.178   9.001  49.607  1.00  0.00    -0.084 NA
HETATM    9  N4  UNL     1      29.835   8.987  49.169  1.00  0.00     0.000 N 
HETATM   10  C17 UNL     1      32.355   8.743  47.495  1.00  0.00     0.107 C 
HETATM   11  C16 UNL     1      31.611   9.863  47.448  1.00  0.00     0.086 C 
HETATM   12  C15 UNL     1      30.135  10.080  47.506  1.00  0.00     0.058 C 
HETATM   13 CL2  UNL     1      32.891  11.055  47.356  1.00  0.00    -0.080 Cl
HETATM   14  C14 UNL     1      28.994   9.803  48.266  1.00  0.00     0.027 C 
HETATM   15 CL1  UNL     1      30.097  11.094  46.046  1.00  0.00    -0.082 Cl
HETATM   16  N7  UNL     1      30.347  10.044  50.014  1.00  0.00    -0.232 N 
HETATM   17  H20 UNL     1      29.731  10.808  50.309  1.00  0.00     0.205 HD
ENDBRANCH   1   2
BRANCH   1  18
HETATM   18  C5  UNL     1      27.022   6.718  48.257  1.00  0.00     0.014 C 
HETATM   19  C6  UNL     1      26.627   6.774  49.513  1.00  0.00     0.090 C 
BRANCH  19  20
HETATM   20  N1  UNL     1      25.610   6.068  50.165  1.00  0.00    -0.343 N 
HETATM   21  H5  UNL     1      24.958   6.709  50.663  1.00  0.00     0.167 HD
BRANCH  20  22
HETATM   22  C7  UNL     1      25.459   4.671  50.181  1.00  0.00     0.171 C 
HETATM   23  S1  UNL     1      24.011   4.158  49.642  1.00  0.00    -0.041 SA
BRANCH  22  24
HETATM   24  N2  UNL     1      26.457   3.793  50.614  1.00  0.00    -0.365 N 
HETATM   25  H6  UNL     1      27.394   4.284  50.754  1.00  0.00     0.161 HD
BRANCH  24  26
HETATM   26  C8  UNL     1      26.563   2.413  50.925  1.00  0.00     0.152 C 
BRANCH  26  27
HETATM   27  C9  UNL     1      26.567   2.062  52.390  1.00  0.00     0.292 C 
BRANCH  27  28
HETATM   28  N3  UNL     1      27.411   0.935  52.651  1.00  0.00     0.094 N 
HETATM   29  C10 UNL     1      26.669  -0.094  53.344  1.00  0.00     0.298 C 
HETATM   30  C11 UNL     1      26.840   0.102  54.857  1.00  0.00     0.198 C 
HETATM   31  O1  UNL     1      28.150  -0.189  55.227  1.00  0.00    -0.388 OA
HETATM   32  C12 UNL     1      29.067   0.158  54.226  1.00  0.00     0.198 C 
HETATM   33  C13 UNL     1      28.557   1.321  53.413  1.00  0.00     0.298 C 
ENDBRANCH  27  28
ENDBRANCH  26  27
ENDBRANCH  24  26
ENDBRANCH  22  24
ENDBRANCH  20  22
ENDBRANCH  19  20
ENDBRANCH   1  18
TORSDOF 8
ENDMDL
MODEL 5
REMARK VINA RESULT:      -7.5      5.316      8.292
REMARK  8 active torsions:
REMARK  status: ('A' for Active; 'I' for Inactive)
REMARK    1  A    between atoms: C3_4  and  C4_5 
REMARK    2  A    between atoms: C4_5  and  C5_6 
REMARK    3  A    between atoms: C6_7  and  N1_8 
REMARK    4  A    between atoms: N1_8  and  C7_9 
REMARK    5  A    between atoms: C7_9  and  N2_11 
REMARK    6  A    between atoms: N2_11  and  C8_12 
REMARK    7  A    between atoms: C8_12  and  C9_13 
REMARK    8  A    between atoms: C9_13  and  N3_14 
ROOT
HETATM    1  C4  UNL     1      26.306   2.686  50.080  1.00  0.00    -0.005 C 
ENDROOT
BRANCH   1   2
HETATM    2  C3  UNL     1      25.614   2.520  51.184  1.00  0.00     0.071 A 
HETATM    3  C2  UNL     1      24.178   2.397  51.029  1.00  0.00     0.001 A 
HETATM    4  C1  UNL     1      23.125   2.311  50.311  1.00  0.00     0.449 C 
HETATM    5  C18 UNL     1      24.692   2.447  52.356  1.00  0.00     0.185 A 
HETATM    6  F1  UNL     1      21.768   2.190  50.529  1.00  0.00    -0.452 F 
HETATM    7  N5  UNL     1      23.598   1.835  53.022  1.00  0.00    -0.250 NA
HETATM    8  N6  UNL     1      24.961   2.472  53.602  1.00  0.00    -0.084 NA
HETATM    9  N4  UNL     1      25.957   2.541  52.603  1.00  0.00     0.000 N 
HETATM   10  C17 UNL     1      23.730   0.499  52.891  1.00  0.00     0.107 C 
HETATM   11  C16 UNL     1      25.007   0.154  53.135  1.00  0.00     0.086 C 
HETATM   12  C15 UNL     1      26.289   0.559  52.485  1.00  0.00     0.058 C 
HETATM   13 CL2  UNL     1      24.763  -0.897  54.514  1.00  0.00    -0.080 Cl
HETATM   14  C14 UNL     1      27.053   1.673  52.121  1.00  0.00     0.027 C 
HETATM   15 CL1  UNL     1      26.847  -1.111  52.249  1.00  0.00    -0.082 Cl
HETATM   16  N7  UNL     1      26.291   2.562  54.011  1.00  0.00    -0.232 N 
HETATM   17  H20 UNL     1      27.271   2.628  54.304  1.00  0.00     0.205 HD
ENDBRANCH   1   2
BRANCH   1  18
HETATM   18  C5  UNL     1      26.785   3.795  49.250  1.00  0.00     0.014 C 
HETATM   19  C6  UNL     1      26.242   4.976  49.471  1.00  0.00     0.090 C 
BRANCH  19  20
HETATM   20  N1  UNL     1      26.493   6.206  48.853  1.00  0.00    -0.343 N 
HETATM   21  H5  UNL     1      26.928   6.082  47.915  1.00  0.00     0.167 HD
BRANCH  20  22
HETATM   22  C7  UNL     1      26.220   7.472  49.400  1.00  0.00     0.171 C 
HETATM   23  S1  UNL     1      24.687   7.971  49.176  1.00  0.00    -0.041 SA
BRANCH  22  24
HETATM   24  N2  UNL     1      27.171   8.238  50.081  1.00  0.00    -0.365 N 
HETATM   25  H6  UNL     1      27.281   7.935  51.098  1.00  0.00     0.161 HD
BRANCH  24  26
HETATM   26  C8  UNL     1      28.041   9.318  49.784  1.00  0.00     0.152 C 
BRANCH  26  27
HETATM   27  C9  UNL     1      28.766   9.242  48.465  1.00  0.00     0.292 C 
BRANCH  27  28
HETATM   28  N3  UNL     1      30.185   9.202  48.654  1.00  0.00     0.094 N 
HETATM   29  C10 UNL     1      30.633  10.403  49.323  1.00  0.00     0.298 C 
HETATM   30  C11 UNL     1      31.027  11.444  48.267  1.00  0.00     0.198 C 
HETATM   31  O1  UNL     1      32.182  11.034  47.607  1.00  0.00    -0.388 OA
HETATM   32  C12 UNL     1      32.246   9.641  47.479  1.00  0.00     0.198 C 
HETATM   33  C13 UNL     1      30.862   9.046  47.406  1.00  0.00     0.298 C 
ENDBRANCH  27  28
ENDBRANCH  26  27
ENDBRANCH  24  26
ENDBRANCH  22  24
ENDBRANCH  20  22
ENDBRANCH  19  20
ENDBRANCH   1  18
TORSDOF 8
ENDMDL
MODEL 6
REMARK VINA RESULT:      -7.4      5.206      6.548
REMARK  8 active torsions:
REMARK  status: ('A' for Active; 'I' for Inactive)
REMARK    1  A    between atoms: C3_4  and  C4_5 
REMARK    2  A    between atoms: C4_5  and  C5_6 
REMARK    3  A    between atoms: C6_7  and  N1_8 
REMARK    4  A    between atoms: N1_8  and  C7_9 
REMARK    5  A    between atoms: C7_9  and  N2_11 
REMARK    6  A    between atoms: N2_11  and  C8_12 
REMARK    7  A    between atoms: C8_12  and  C9_13 
REMARK    8  A    between atoms: C9_13  and  N3_14 
ROOT
HETATM    1  C4  UNL     1      28.990   5.967  48.003  1.00  0.00    -0.005 C 
ENDROOT
BRANCH   1   2
HETATM    2  C3  UNL     1      30.219   6.286  48.340  1.00  0.00     0.071 A 
HETATM    3  C2  UNL     1      31.257   5.365  47.922  1.00  0.00     0.001 A 
HETATM    4  C1  UNL     1      31.657   4.324  47.299  1.00  0.00     0.449 C 
HETATM    5  C18 UNL     1      31.644   6.455  48.752  1.00  0.00     0.185 A 
HETATM    6  F1  UNL     1      32.858   3.676  47.094  1.00  0.00    -0.452 F 
HETATM    7  N5  UNL     1      33.024   6.486  48.420  1.00  0.00    -0.250 NA
HETATM    8  N6  UNL     1      32.176   7.358  49.479  1.00  0.00    -0.084 NA
HETATM    9  N4  UNL     1      30.799   7.340  49.167  1.00  0.00     0.000 N 
HETATM   10  C17 UNL     1      33.154   7.164  47.261  1.00  0.00     0.107 C 
HETATM   11  C16 UNL     1      32.400   8.276  47.311  1.00  0.00     0.086 C 
HETATM   12  C15 UNL     1      30.933   8.476  47.510  1.00  0.00     0.058 C 
HETATM   13 CL2  UNL     1      33.655   9.484  47.130  1.00  0.00    -0.080 Cl
HETATM   14  C14 UNL     1      29.871   8.168  48.367  1.00  0.00     0.027 C 
HETATM   15 CL1  UNL     1      30.751   9.524  46.087  1.00  0.00    -0.082 Cl
HETATM   16  N7  UNL     1      31.378   8.383  49.987  1.00  0.00    -0.232 N 
HETATM   17  H20 UNL     1      30.786   9.133  50.356  1.00  0.00     0.205 HD
ENDBRANCH   1   2
BRANCH   1  18
HETATM   18  C5  UNL     1      27.889   5.159  48.534  1.00  0.00     0.014 C 
HETATM   19  C6  UNL     1      26.948   5.803  49.195  1.00  0.00     0.090 C 
BRANCH  19  20
HETATM   20  N1  UNL     1      25.787   5.315  49.805  1.00  0.00    -0.343 N 
HETATM   21  H5  UNL     1      25.261   6.072  50.288  1.00  0.00     0.167 HD
BRANCH  20  22
HETATM   22  C7  UNL     1      25.357   3.977  49.801  1.00  0.00     0.171 C 
HETATM   23  S1  UNL     1      23.820   3.780  49.301  1.00  0.00    -0.041 SA
BRANCH  22  24
HETATM   24  N2  UNL     1      26.169   2.905  50.184  1.00  0.00    -0.365 N 
HETATM   25  H6  UNL     1      26.535   2.356  49.346  1.00  0.00     0.161 HD
BRANCH  24  26
HETATM   26  C8  UNL     1      26.645   2.344  51.397  1.00  0.00     0.152 C 
BRANCH  26  27
HETATM   27  C9  UNL     1      25.999   1.054  51.831  1.00  0.00     0.292 C 
BRANCH  27  28
HETATM   28  N3  UNL     1      26.950   0.177  52.444  1.00  0.00     0.094 N 
HETATM   29  C10 UNL     1      26.278  -0.754  53.321  1.00  0.00     0.298 C 
HETATM   30  C11 UNL     1      26.241  -0.165  54.738  1.00  0.00     0.198 C 
HETATM   31  O1  UNL     1      27.527  -0.141  55.273  1.00  0.00    -0.388 OA
HETATM   32  C12 UNL     1      28.499   0.089  54.293  1.00  0.00     0.198 C 
HETATM   33  C13 UNL     1      27.936   0.918  53.165  1.00  0.00     0.298 C 
ENDBRANCH  27  28
ENDBRANCH  26  27
ENDBRANCH  24  26
ENDBRANCH  22  24
ENDBRANCH  20  22
ENDBRANCH  19  20
ENDBRANCH   1  18
TORSDOF 8
ENDMDL
MODEL 7
REMARK VINA RESULT:      -7.4      5.958      7.820
REMARK  8 active torsions:
REMARK  status: ('A' for Active; 'I' for Inactive)
REMARK    1  A    between atoms: C3_4  and  C4_5 
REMARK    2  A    between atoms: C4_5  and  C5_6 
REMARK    3  A    between atoms: C6_7  and  N1_8 
REMARK    4  A    between atoms: N1_8  and  C7_9 
REMARK    5  A    between atoms: C7_9  and  N2_11 
REMARK    6  A    between atoms: N2_11  and  C8_12 
REMARK    7  A    between atoms: C8_12  and  C9_13 
REMARK    8  A    between atoms: C9_13  and  N3_14 
ROOT
HETATM    1  C4  UNL     1      25.964   3.693  49.622  1.00  0.00    -0.005 C 
ENDROOT
BRANCH   1   2
HETATM    2  C3  UNL     1      25.011   3.372  50.468  1.00  0.00     0.071 A 
HETATM    3  C2  UNL     1      23.728   3.027  49.888  1.00  0.00     0.001 A 
HETATM    4  C1  UNL     1      22.967   2.803  48.887  1.00  0.00     0.449 C 
HETATM    5  C18 UNL     1      23.806   3.104  51.307  1.00  0.00     0.185 A 
HETATM    6  F1  UNL     1      21.646   2.457  48.687  1.00  0.00    -0.452 F 
HETATM    7  N5  UNL     1      22.680   2.297  51.618  1.00  0.00    -0.250 NA
HETATM    8  N6  UNL     1      23.682   3.119  52.577  1.00  0.00    -0.084 NA
HETATM    9  N4  UNL     1      24.905   3.389  51.924  1.00  0.00     0.000 N 
HETATM   10  C17 UNL     1      23.065   1.006  51.545  1.00  0.00     0.107 C 
HETATM   11  C16 UNL     1      24.248   0.861  52.166  1.00  0.00     0.086 C 
HETATM   12  C15 UNL     1      25.580   1.493  51.929  1.00  0.00     0.058 C 
HETATM   13 CL2  UNL     1      23.781  -0.273  53.416  1.00  0.00    -0.080 Cl
HETATM   14  C14 UNL     1      26.223   2.729  51.802  1.00  0.00     0.027 C 
HETATM   15 CL1  UNL     1      26.453  -0.055  51.888  1.00  0.00    -0.082 Cl
HETATM   16  N7  UNL     1      24.796   3.405  53.367  1.00  0.00    -0.232 N 
HETATM   17  H20 UNL     1      25.618   3.615  53.941  1.00  0.00     0.205 HD
ENDBRANCH   1   2
BRANCH   1  18
HETATM   18  C5  UNL     1      26.478   4.898  48.965  1.00  0.00     0.014 C 
HETATM   19  C6  UNL     1      27.752   4.888  48.626  1.00  0.00     0.090 C 
BRANCH  19  20
HETATM   20  N1  UNL     1      28.516   5.872  47.990  1.00  0.00    -0.343 N 
HETATM   21  H5  UNL     1      28.223   6.004  47.000  1.00  0.00     0.167 HD
BRANCH  20  22
HETATM   22  C7  UNL     1      29.565   6.603  48.573  1.00  0.00     0.171 C 
HETATM   23  S1  UNL     1      29.501   8.203  48.273  1.00  0.00    -0.041 SA
BRANCH  22  24
HETATM   24  N2  UNL     1      30.574   6.021  49.347  1.00  0.00    -0.365 N 
HETATM   25  H6  UNL     1      30.193   5.582  50.242  1.00  0.00     0.161 HD
BRANCH  24  26
HETATM   26  C8  UNL     1      31.979   5.850  49.263  1.00  0.00     0.152 C 
BRANCH  26  27
HETATM   27  C9  UNL     1      32.620   6.253  47.960  1.00  0.00     0.292 C 
BRANCH  27  28
HETATM   28  N3  UNL     1      32.718   5.140  47.064  1.00  0.00     0.094 N 
HETATM   29  C10 UNL     1      33.212   3.977  47.766  1.00  0.00     0.298 C 
HETATM   30  C11 UNL     1      34.741   3.930  47.639  1.00  0.00     0.198 C 
HETATM   31  O1  UNL     1      35.096   3.645  46.323  1.00  0.00    -0.388 OA
HETATM   32  C12 UNL     1      34.193   4.194  45.405  1.00  0.00     0.198 C 
HETATM   33  C13 UNL     1      33.566   5.450  45.957  1.00  0.00     0.298 C 
ENDBRANCH  27  28
ENDBRANCH  26  27
ENDBRANCH  24  26
ENDBRANCH  22  24
ENDBRANCH  20  22
ENDBRANCH  19  20
ENDBRANCH   1  18
TORSDOF 8
ENDMDL
MODEL 8
REMARK VINA RESULT:      -7.3      4.232      6.759
REMARK  8 active torsions:
REMARK  status: ('A' for Active; 'I' for Inactive)
REMARK    1  A    between atoms: C3_4  and  C4_5 
REMARK    2  A    between atoms: C4_5  and  C5_6 
REMARK    3  A    between atoms: C6_7  and  N1_8 
REMARK    4  A    between atoms: N1_8  and  C7_9 
REMARK    5  A    between atoms: C7_9  and  N2_11 
REMARK    6  A    between atoms: N2_11  and  C8_12 
REMARK    7  A    between atoms: C8_12  and  C9_13 
REMARK    8  A    between atoms: C9_13  and  N3_14 
ROOT
HETATM    1  C4  UNL     1      22.577   0.387  52.925  1.00  0.00    -0.005 C 
ENDROOT
BRANCH   1   2
HETATM    2  C3  UNL     1      23.708   1.053  52.990  1.00  0.00     0.071 A 
HETATM    3  C2  UNL     1      24.918   0.257  53.042  1.00  0.00     0.001 A 
HETATM    4  C1  UNL     1      25.534  -0.861  53.011  1.00  0.00     0.449 C 
HETATM    5  C18 UNL     1      25.054   1.667  53.185  1.00  0.00     0.185 A 
HETATM    6  F1  UNL     1      26.843  -1.290  53.101  1.00  0.00    -0.452 F 
HETATM    7  N5  UNL     1      26.419   1.780  52.812  1.00  0.00    -0.250 NA
HETATM    8  N6  UNL     1      25.373   2.894  53.326  1.00  0.00    -0.084 NA
HETATM    9  N4  UNL     1      24.040   2.467  53.138  1.00  0.00     0.000 N 
HETATM   10  C17 UNL     1      26.479   1.788  51.464  1.00  0.00     0.107 C 
HETATM   11  C16 UNL     1      25.530   2.611  50.983  1.00  0.00     0.086 C 
HETATM   12  C15 UNL     1      24.044   2.609  51.130  1.00  0.00     0.058 C 
HETATM   13 CL2  UNL     1      26.546   3.768  50.151  1.00  0.00    -0.080 Cl
HETATM   14  C14 UNL     1      23.016   2.587  52.078  1.00  0.00     0.027 C 
HETATM   15 CL1  UNL     1      23.741   2.737  49.384  1.00  0.00    -0.082 Cl
HETATM   16  N7  UNL     1      24.375   3.867  53.286  1.00  0.00    -0.232 N 
HETATM   17  H20 UNL     1      23.636   4.576  53.255  1.00  0.00     0.205 HD
ENDBRANCH   1   2
BRANCH   1  18
HETATM   18  C5  UNL     1      21.547  -0.103  53.845  1.00  0.00     0.014 C 
HETATM   19  C6  UNL     1      20.381  -0.415  53.315  1.00  0.00     0.090 C 
BRANCH  19  20
HETATM   20  N1  UNL     1      19.223  -0.907  53.926  1.00  0.00    -0.343 N 
HETATM   21  H5  UNL     1      19.336  -0.980  54.959  1.00  0.00     0.167 HD
BRANCH  20  22
HETATM   22  C7  UNL     1      18.040  -1.281  53.266  1.00  0.00     0.171 C 
HETATM   23  S1  UNL     1      17.595  -2.825  53.530  1.00  0.00    -0.041 SA
BRANCH  22  24
HETATM   24  N2  UNL     1      17.301  -0.412  52.456  1.00  0.00    -0.365 N 
HETATM   25  H6  UNL     1      16.267  -0.397  52.719  1.00  0.00     0.161 HD
BRANCH  24  26
HETATM   26  C8  UNL     1      17.556   0.467  51.373  1.00  0.00     0.152 C 
BRANCH  26  27
HETATM   27  C9  UNL     1      16.734   1.730  51.336  1.00  0.00     0.292 C 
BRANCH  27  28
HETATM   28  N3  UNL     1      17.502   2.861  51.762  1.00  0.00     0.094 N 
HETATM   29  C10 UNL     1      17.097   4.041  51.032  1.00  0.00     0.298 C 
HETATM   30  C11 UNL     1      17.986   4.187  49.789  1.00  0.00     0.198 C 
HETATM   31  O1  UNL     1      19.284   4.515  50.172  1.00  0.00    -0.388 OA
HETATM   32  C12 UNL     1      19.636   3.925  51.392  1.00  0.00     0.198 C 
HETATM   33  C13 UNL     1      18.900   2.623  51.589  1.00  0.00     0.298 C 
ENDBRANCH  27  28
ENDBRANCH  26  27
ENDBRANCH  24  26
ENDBRANCH  22  24
ENDBRANCH  20  22
ENDBRANCH  19  20
ENDBRANCH   1  18
TORSDOF 8
ENDMDL
MODEL 9
REMARK VINA RESULT:      -7.1      4.045      5.387
REMARK  8 active torsions:
REMARK  status: ('A' for Active; 'I' for Inactive)
REMARK    1  A    between atoms: C3_4  and  C4_5 
REMARK    2  A    between atoms: C4_5  and  C5_6 
REMARK    3  A    between atoms: C6_7  and  N1_8 
REMARK    4  A    between atoms: N1_8  and  C7_9 
REMARK    5  A    between atoms: C7_9  and  N2_11 
REMARK    6  A    between atoms: N2_11  and  C8_12 
REMARK    7  A    between atoms: C8_12  and  C9_13 
REMARK    8  A    between atoms: C9_13  and  N3_14 
ROOT
HETATM    1  C4  UNL     1      27.662   5.459  48.739  1.00  0.00    -0.005 C 
ENDROOT
BRANCH   1   2
HETATM    2  C3  UNL     1      27.857   6.699  48.352  1.00  0.00     0.071 A 
HETATM    3  C2  UNL     1      27.086   7.715  49.041  1.00  0.00     0.001 A 
HETATM    4  C1  UNL     1      26.267   8.087  49.948  1.00  0.00     0.449 C 
HETATM    5  C18 UNL     1      27.885   8.134  47.939  1.00  0.00     0.185 A 
HETATM    6  F1  UNL     1      25.693   9.273  50.358  1.00  0.00    -0.452 F 
HETATM    7  N5  UNL     1      27.997   9.508  48.279  1.00  0.00    -0.250 NA
HETATM    8  N6  UNL     1      28.533   8.694  46.995  1.00  0.00    -0.084 NA
HETATM    9  N4  UNL     1      28.620   7.311  47.267  1.00  0.00     0.000 N 
HETATM   10  C17 UNL     1      28.980   9.627  49.194  1.00  0.00     0.107 C 
HETATM   11  C16 UNL     1      30.038   8.892  48.808  1.00  0.00     0.086 C 
HETATM   12  C15 UNL     1      30.186   7.433  48.527  1.00  0.00     0.058 C 
HETATM   13 CL2  UNL     1      31.234  10.162  48.659  1.00  0.00    -0.080 Cl
HETATM   14  C14 UNL     1      29.654   6.381  47.773  1.00  0.00     0.027 C 
HETATM   15 CL1  UNL     1      31.603   7.241  49.582  1.00  0.00    -0.082 Cl
HETATM   16  N7  UNL     1      29.375   7.921  46.194  1.00  0.00    -0.232 N 
HETATM   17  H20 UNL     1      29.991   7.348  45.610  1.00  0.00     0.205 HD
ENDBRANCH   1   2
BRANCH   1  18
HETATM   18  C5  UNL     1      26.541   4.526  48.884  1.00  0.00     0.014 C 
HETATM   19  C6  UNL     1      25.972   4.465  50.071  1.00  0.00     0.090 C 
BRANCH  19  20
HETATM   20  N1  UNL     1      24.895   3.687  50.509  1.00  0.00    -0.343 N 
HETATM   21  H5  UNL     1      24.793   2.820  49.940  1.00  0.00     0.167 HD
BRANCH  20  22
HETATM   22  C7  UNL     1      24.029   4.003  51.569  1.00  0.00     0.171 C 
HETATM   23  S1  UNL     1      23.378   5.493  51.467  1.00  0.00    -0.041 SA
BRANCH  22  24
HETATM   24  N2  UNL     1      23.742   3.126  52.619  1.00  0.00    -0.365 N 
HETATM   25  H6  UNL     1      23.042   3.539  53.311  1.00  0.00     0.161 HD
BRANCH  24  26
HETATM   26  C8  UNL     1      24.128   1.820  53.017  1.00  0.00     0.152 C 
BRANCH  26  27
HETATM   27  C9  UNL     1      25.574   1.645  53.403  1.00  0.00     0.292 C 
BRANCH  27  28
HETATM   28  N3  UNL     1      25.893   0.264  53.606  1.00  0.00     0.094 N 
HETATM   29  C10 UNL     1      26.511   0.081  54.900  1.00  0.00     0.298 C 
HETATM   30  C11 UNL     1      28.035   0.180  54.743  1.00  0.00     0.198 C 
HETATM   31  O1  UNL     1      28.510  -0.922  54.038  1.00  0.00    -0.388 OA
HETATM   32  C12 UNL     1      27.593  -1.364  53.076  1.00  0.00     0.198 C 
HETATM   33  C13 UNL     1      26.752  -0.218  52.572  1.00  0.00     0.298 C 
ENDBRANCH  27  28
ENDBRANCH  26  27
ENDBRANCH  24  26
ENDBRANCH  22  24
ENDBRANCH  20  22
ENDBRANCH  19  20
ENDBRANCH   1  18
TORSDOF 8
ENDMDL
