MODEL 1
REMARK VINA RESULT:      -8.1      0.000      0.000
REMARK  6 active torsions:
REMARK  status: ('A' for Active; 'I' for Inactive)
REMARK    1  A    between atoms: O1_2  and  C2_3 
REMARK    2  A    between atoms: C6_9  and  N3_10 
REMARK    3  A    between atoms: N3_10  and  C7_11 
REMARK    4  A    between atoms: C15_20  and  O2_21 
REMARK    5  A    between atoms: O2_21  and  C16_22 
REMARK    6  A    between atoms: C16_22  and  P1_23 
ROOT
HETATM    1  C2  UNL     1      20.202  -0.256  52.559  1.00  0.00     0.103 A 
HETATM    2  C3  UNL     1      20.616  -0.846  53.736  1.00  0.00     0.072 A 
HETATM    3  C4  UNL     1      21.947  -0.835  54.083  1.00  0.00     0.075 A 
HETATM    4  N1  UNL     1      22.298  -1.426  55.249  1.00  0.00    -0.241 NA
HETATM    5  C5  UNL     1      23.577  -1.460  55.663  1.00  0.00     0.236 A 
HETATM    6  N2  UNL     1      24.509  -0.893  54.897  1.00  0.00    -0.224 NA
HETATM    7  C6  UNL     1      24.252  -0.286  53.732  1.00  0.00     0.142 A 
HETATM    8  C13 UNL     1      22.941  -0.263  53.326  1.00  0.00     0.042 A 
HETATM    9  C14 UNL     1      22.470   0.310  52.164  1.00  0.00     0.057 A 
HETATM   10  C15 UNL     1      21.154   0.335  51.757  1.00  0.00     0.103 A 
ENDROOT
BRANCH   7  11
HETATM   11  N3  UNL     1      25.216   0.317  52.914  1.00  0.00    -0.340 N 
HETATM   12  H6  UNL     1      25.031   0.570  51.944  1.00  0.00     0.167 HD
BRANCH  11  13
HETATM   13  C7  UNL     1      26.555   0.691  53.194  1.00  0.00     0.035 A 
HETATM   14  C8  UNL     1      27.027   1.991  53.389  1.00  0.00     0.029 A 
HETATM   15  C9  UNL     1      28.333   2.296  53.662  1.00  0.00     0.004 A 
HETATM   16  C10 UNL     1      29.281   1.306  53.763  1.00  0.00     0.024 A 
HETATM   17  C11 UNL     1      28.874   0.012  53.581  1.00  0.00     0.036 A 
HETATM   18 CL1  UNL     1      30.123  -1.205  53.723  1.00  0.00    -0.084 Cl
HETATM   19  C12 UNL     1      27.549  -0.257  53.308  1.00  0.00     0.053 A 
ENDBRANCH  11  13
ENDBRANCH   7  11
BRANCH  10  20
HETATM   20  O2  UNL     1      20.736   0.915  50.599  1.00  0.00    -0.342 OA
BRANCH  20  21
HETATM   21  C16 UNL     1      21.234   0.711  49.312  1.00  0.00     0.243 C 
BRANCH  21  22
HETATM   22  P1  UNL     1      21.998   2.206  48.543  1.00  0.00     0.095 P 
HETATM   23  C17 UNL     1      23.249   2.962  49.711  1.00  0.00     0.082 C 
HETATM   24  F1  UNL     1      22.876   1.781  47.119  1.00  0.00    -0.224 F 
ENDBRANCH  21  22
ENDBRANCH  20  21
ENDBRANCH  10  20
BRANCH   1  25
HETATM   25  O1  UNL     1      18.884  -0.246  52.179  1.00  0.00    -0.353 OA
HETATM   26  C1  UNL     1      17.821  -0.907  52.791  1.00  0.00     0.210 C 
ENDBRANCH   1  25
TORSDOF 6
ENDMDL
MODEL 2
REMARK VINA RESULT:      -8.0      1.803      1.914
REMARK  6 active torsions:
REMARK  status: ('A' for Active; 'I' for Inactive)
REMARK    1  A    between atoms: O1_2  and  C2_3 
REMARK    2  A    between atoms: C6_9  and  N3_10 
REMARK    3  A    between atoms: N3_10  and  C7_11 
REMARK    4  A    between atoms: C15_20  and  O2_21 
REMARK    5  A    between atoms: O2_21  and  C16_22 
REMARK    6  A    between atoms: C16_22  and  P1_23 
ROOT
HETATM    1  C2  UNL     1      19.807  -0.054  52.466  1.00  0.00     0.103 A 
HETATM    2  C3  UNL     1      20.211  -0.676  53.629  1.00  0.00     0.072 A 
HETATM    3  C4  UNL     1      21.546  -0.724  53.959  1.00  0.00     0.075 A 
HETATM    4  N1  UNL     1      21.887  -1.345  55.113  1.00  0.00    -0.241 NA
HETATM    5  C5  UNL     1      23.168  -1.436  55.509  1.00  0.00     0.236 A 
HETATM    6  N2  UNL     1      24.113  -0.897  54.738  1.00  0.00    -0.224 NA
HETATM    7  C6  UNL     1      23.867  -0.266  53.585  1.00  0.00     0.142 A 
HETATM    8  C13 UNL     1      22.553  -0.183  53.196  1.00  0.00     0.042 A 
HETATM    9  C14 UNL     1      22.091   0.424  52.048  1.00  0.00     0.057 A 
HETATM   10  C15 UNL     1      20.772   0.509  51.659  1.00  0.00     0.103 A 
ENDROOT
BRANCH   7  11
HETATM   11  N3  UNL     1      24.844   0.308  52.761  1.00  0.00    -0.340 N 
HETATM   12  H6  UNL     1      24.661   0.570  51.793  1.00  0.00     0.167 HD
BRANCH  11  13
HETATM   13  C7  UNL     1      26.197   0.638  53.034  1.00  0.00     0.035 A 
HETATM   14  C8  UNL     1      26.712   1.923  53.223  1.00  0.00     0.029 A 
HETATM   15  C9  UNL     1      28.029   2.184  53.489  1.00  0.00     0.004 A 
HETATM   16  C10 UNL     1      28.945   1.164  53.587  1.00  0.00     0.024 A 
HETATM   17  C11 UNL     1      28.493  -0.116  53.409  1.00  0.00     0.036 A 
HETATM   18 CL1  UNL     1      29.703  -1.373  53.546  1.00  0.00    -0.084 Cl
HETATM   19  C12 UNL     1      27.159  -0.342  53.143  1.00  0.00     0.053 A 
ENDBRANCH  11  13
ENDBRANCH   7  11
BRANCH  10  20
HETATM   20  O2  UNL     1      20.363   1.120  50.514  1.00  0.00    -0.342 OA
BRANCH  20  21
HETATM   21  C16 UNL     1      20.630   2.425  50.098  1.00  0.00     0.243 C 
BRANCH  21  22
HETATM   22  P1  UNL     1      19.949   3.734  51.209  1.00  0.00     0.095 P 
HETATM   23  C17 UNL     1      18.107   3.494  51.432  1.00  0.00     0.082 C 
HETATM   24  F1  UNL     1      20.637   3.615  52.788  1.00  0.00    -0.224 F 
ENDBRANCH  21  22
ENDBRANCH  20  21
ENDBRANCH  10  20
BRANCH   1  25
HETATM   25  O1  UNL     1      18.486   0.015  52.103  1.00  0.00    -0.353 OA
HETATM   26  C1  UNL     1      17.438  -0.777  52.567  1.00  0.00     0.210 C 
ENDBRANCH   1  25
TORSDOF 6
ENDMDL
MODEL 3
REMARK VINA RESULT:      -7.6      4.511      6.164
REMARK  6 active torsions:
REMARK  status: ('A' for Active; 'I' for Inactive)
REMARK    1  A    between atoms: O1_2  and  C2_3 
REMARK    2  A    between atoms: C6_9  and  N3_10 
REMARK    3  A    between atoms: N3_10  and  C7_11 
REMARK    4  A    between atoms: C15_20  and  O2_21 
REMARK    5  A    between atoms: O2_21  and  C16_22 
REMARK    6  A    between atoms: C16_22  and  P1_23 
ROOT
HETATM    1  C2  UNL     1      23.857   0.121  53.417  1.00  0.00     0.103 A 
HETATM    2  C3  UNL     1      22.823   1.020  53.260  1.00  0.00     0.072 A 
HETATM    3  C4  UNL     1      22.906   2.009  52.308  1.00  0.00     0.075 A 
HETATM    4  N1  UNL     1      21.861   2.864  52.194  1.00  0.00    -0.241 NA
HETATM    5  C5  UNL     1      21.861   3.858  51.289  1.00  0.00     0.236 A 
HETATM    6  N2  UNL     1      22.921   3.992  50.492  1.00  0.00    -0.224 NA
HETATM    7  C6  UNL     1      23.995   3.194  50.533  1.00  0.00     0.142 A 
HETATM    8  C13 UNL     1      23.977   2.185  51.465  1.00  0.00     0.042 A 
HETATM    9  C14 UNL     1      24.978   1.260  51.666  1.00  0.00     0.057 A 
HETATM   10  C15 UNL     1      24.959   0.246  52.599  1.00  0.00     0.103 A 
ENDROOT
BRANCH   7  11
HETATM   11  N3  UNL     1      25.117   3.317  49.704  1.00  0.00    -0.340 N 
HETATM   12  H6  UNL     1      25.607   2.509  49.321  1.00  0.00     0.167 HD
BRANCH  11  13
HETATM   13  C7  UNL     1      25.787   4.474  49.232  1.00  0.00     0.035 A 
HETATM   14  C8  UNL     1      25.215   5.731  49.015  1.00  0.00     0.029 A 
HETATM   15  C9  UNL     1      25.912   6.818  48.562  1.00  0.00     0.004 A 
HETATM   16  C10 UNL     1      27.256   6.728  48.285  1.00  0.00     0.024 A 
HETATM   17  C11 UNL     1      27.867   5.520  48.479  1.00  0.00     0.036 A 
HETATM   18 CL1  UNL     1      29.577   5.466  48.112  1.00  0.00    -0.084 Cl
HETATM   19  C12 UNL     1      27.133   4.446  48.938  1.00  0.00     0.053 A 
ENDBRANCH  11  13
ENDBRANCH   7  11
BRANCH  10  20
HETATM   20  O2  UNL     1      25.974  -0.646  52.762  1.00  0.00    -0.342 OA
BRANCH  20  21
HETATM   21  C16 UNL     1      27.345  -0.391  52.761  1.00  0.00     0.243 C 
BRANCH  21  22
HETATM   22  P1  UNL     1      28.015   0.193  54.380  1.00  0.00     0.095 P 
HETATM   23  C17 UNL     1      29.006   1.762  54.139  1.00  0.00     0.082 C 
HETATM   24  F1  UNL     1      26.732   0.605  55.459  1.00  0.00    -0.224 F 
ENDBRANCH  21  22
ENDBRANCH  20  21
ENDBRANCH  10  20
BRANCH   1  25
HETATM   25  O1  UNL     1      23.811  -0.879  54.355  1.00  0.00    -0.353 OA
HETATM   26  C1  UNL     1      22.712  -1.281  55.112  1.00  0.00     0.210 C 
ENDBRANCH   1  25
TORSDOF 6
ENDMDL
MODEL 4
REMARK VINA RESULT:      -7.6      4.506      6.105
REMARK  6 active torsions:
REMARK  status: ('A' for Active; 'I' for Inactive)
REMARK    1  A    between atoms: O1_2  and  C2_3 
REMARK    2  A    between atoms: C6_9  and  N3_10 
REMARK    3  A    between atoms: N3_10  and  C7_11 
REMARK    4  A    between atoms: C15_20  and  O2_21 
REMARK    5  A    between atoms: O2_21  and  C16_22 
REMARK    6  A    between atoms: C16_22  and  P1_23 
ROOT
HETATM    1  C2  UNL     1      22.791  -0.101  52.788  1.00  0.00     0.103 A 
HETATM    2  C3  UNL     1      21.882   0.488  51.933  1.00  0.00     0.072 A 
HETATM    3  C4  UNL     1      22.185   1.681  51.318  1.00  0.00     0.075 A 
HETATM    4  N1  UNL     1      21.258   2.214  50.488  1.00  0.00    -0.241 NA
HETATM    5  C5  UNL     1      21.474   3.375  49.847  1.00  0.00     0.236 A 
HETATM    6  N2  UNL     1      22.633   4.005  50.043  1.00  0.00    -0.224 NA
HETATM    7  C6  UNL     1      23.604   3.551  50.844  1.00  0.00     0.142 A 
HETATM    8  C13 UNL     1      23.365   2.364  51.491  1.00  0.00     0.042 A 
HETATM    9  C14 UNL     1      24.233   1.730  52.353  1.00  0.00     0.057 A 
HETATM   10  C15 UNL     1      23.993   0.537  53.000  1.00  0.00     0.103 A 
ENDROOT
BRANCH   7  11
HETATM   11  N3  UNL     1      24.828   4.196  51.063  1.00  0.00    -0.340 N 
HETATM   12  H6  UNL     1      25.224   4.320  51.994  1.00  0.00     0.167 HD
BRANCH  11  13
HETATM   13  C7  UNL     1      25.736   4.780  50.142  1.00  0.00     0.035 A 
HETATM   14  C8  UNL     1      26.796   4.132  49.503  1.00  0.00     0.029 A 
HETATM   15  C9  UNL     1      27.641   4.744  48.618  1.00  0.00     0.004 A 
HETATM   16  C10 UNL     1      27.488   6.072  48.300  1.00  0.00     0.024 A 
HETATM   17  C11 UNL     1      26.464   6.756  48.898  1.00  0.00     0.036 A 
HETATM   18 CL1  UNL     1      26.316   8.442  48.454  1.00  0.00    -0.084 Cl
HETATM   19  C12 UNL     1      25.632   6.106  49.785  1.00  0.00     0.053 A 
ENDBRANCH  11  13
ENDBRANCH   7  11
BRANCH  10  20
HETATM   20  O2  UNL     1      24.883  -0.052  53.845  1.00  0.00    -0.342 OA
BRANCH  20  21
HETATM   21  C16 UNL     1      26.118  -0.619  53.528  1.00  0.00     0.243 C 
BRANCH  21  22
HETATM   22  P1  UNL     1      27.567   0.482  53.840  1.00  0.00     0.095 P 
HETATM   23  C17 UNL     1      29.117  -0.543  54.062  1.00  0.00     0.082 C 
HETATM   24  F1  UNL     1      27.864   1.502  52.480  1.00  0.00    -0.224 F 
ENDBRANCH  21  22
ENDBRANCH  20  21
ENDBRANCH  10  20
BRANCH   1  25
HETATM   25  O1  UNL     1      22.525  -1.290  53.419  1.00  0.00    -0.353 OA
HETATM   26  C1  UNL     1      21.713  -1.495  54.532  1.00  0.00     0.210 C 
ENDBRANCH   1  25
TORSDOF 6
ENDMDL
MODEL 5
REMARK VINA RESULT:      -7.4      3.854      6.844
REMARK  6 active torsions:
REMARK  status: ('A' for Active; 'I' for Inactive)
REMARK    1  A    between atoms: O1_2  and  C2_3 
REMARK    2  A    between atoms: C6_9  and  N3_10 
REMARK    3  A    between atoms: N3_10  and  C7_11 
REMARK    4  A    between atoms: C15_20  and  O2_21 
REMARK    5  A    between atoms: O2_21  and  C16_22 
REMARK    6  A    between atoms: C16_22  and  P1_23 
ROOT
HETATM    1  C2  UNL     1      26.585   0.055  53.057  1.00  0.00     0.103 A 
HETATM    2  C3  UNL     1      25.942  -0.646  54.056  1.00  0.00     0.072 A 
HETATM    3  C4  UNL     1      24.573  -0.585  54.172  1.00  0.00     0.075 A 
HETATM    4  N1  UNL     1      23.993  -1.293  55.169  1.00  0.00    -0.241 NA
HETATM    5  C5  UNL     1      22.661  -1.289  55.352  1.00  0.00     0.236 A 
HETATM    6  N2  UNL     1      21.908  -0.565  54.523  1.00  0.00    -0.224 NA
HETATM    7  C6  UNL     1      22.395   0.163  53.512  1.00  0.00     0.142 A 
HETATM    8  C13 UNL     1      23.757   0.147  53.342  1.00  0.00     0.042 A 
HETATM    9  C14 UNL     1      24.452   0.825  52.364  1.00  0.00     0.057 A 
HETATM   10  C15 UNL     1      25.819   0.806  52.192  1.00  0.00     0.103 A 
ENDROOT
BRANCH   7  11
HETATM   11  N3  UNL     1      21.620   0.928  52.631  1.00  0.00    -0.340 N 
HETATM   12  H6  UNL     1      21.899   1.860  52.323  1.00  0.00     0.167 HD
BRANCH  11  13
HETATM   13  C7  UNL     1      20.382   0.635  52.005  1.00  0.00     0.035 A 
HETATM   14  C8  UNL     1      19.977   1.056  50.735  1.00  0.00     0.029 A 
HETATM   15  C9  UNL     1      18.769   0.739  50.176  1.00  0.00     0.004 A 
HETATM   16  C10 UNL     1      17.859  -0.035  50.856  1.00  0.00     0.024 A 
HETATM   17  C11 UNL     1      18.204  -0.475  52.105  1.00  0.00     0.036 A 
HETATM   18 CL1  UNL     1      17.008  -1.457  52.922  1.00  0.00    -0.084 Cl
HETATM   19  C12 UNL     1      19.431  -0.136  52.637  1.00  0.00     0.053 A 
ENDBRANCH  11  13
ENDBRANCH   7  11
BRANCH  10  20
HETATM   20  O2  UNL     1      26.463   1.494  51.209  1.00  0.00    -0.342 OA
BRANCH  20  21
HETATM   21  C16 UNL     1      26.746   2.859  51.165  1.00  0.00     0.243 C 
BRANCH  21  22
HETATM   22  P1  UNL     1      26.124   3.719  49.653  1.00  0.00     0.095 P 
HETATM   23  C17 UNL     1      25.152   5.244  50.134  1.00  0.00     0.082 C 
HETATM   24  F1  UNL     1      27.438   4.281  48.685  1.00  0.00    -0.224 F 
ENDBRANCH  21  22
ENDBRANCH  20  21
ENDBRANCH  10  20
BRANCH   1  25
HETATM   25  O1  UNL     1      27.949   0.018  52.908  1.00  0.00    -0.353 OA
HETATM   26  C1  UNL     1      28.896   0.769  53.600  1.00  0.00     0.210 C 
ENDBRANCH   1  25
TORSDOF 6
ENDMDL
MODEL 6
REMARK VINA RESULT:      -7.3      4.252      6.051
REMARK  6 active torsions:
REMARK  status: ('A' for Active; 'I' for Inactive)
REMARK    1  A    between atoms: O1_2  and  C2_3 
REMARK    2  A    between atoms: C6_9  and  N3_10 
REMARK    3  A    between atoms: N3_10  and  C7_11 
REMARK    4  A    between atoms: C15_20  and  O2_21 
REMARK    5  A    between atoms: O2_21  and  C16_22 
REMARK    6  A    between atoms: C16_22  and  P1_23 
ROOT
HETATM    1  C2  UNL     1      24.276  -0.536  54.054  1.00  0.00     0.103 A 
HETATM    2  C3  UNL     1      22.924  -0.262  54.053  1.00  0.00     0.072 A 
HETATM    3  C4  UNL     1      22.380   0.531  53.069  1.00  0.00     0.075 A 
HETATM    4  N1  UNL     1      21.048   0.766  53.114  1.00  0.00    -0.241 NA
HETATM    5  C5  UNL     1      20.437   1.529  52.191  1.00  0.00     0.236 A 
HETATM    6  N2  UNL     1      21.175   2.059  51.214  1.00  0.00    -0.224 NA
HETATM    7  C6  UNL     1      22.495   1.878  51.091  1.00  0.00     0.142 A 
HETATM    8  C13 UNL     1      23.101   1.097  52.044  1.00  0.00     0.042 A 
HETATM    9  C14 UNL     1      24.443   0.789  52.096  1.00  0.00     0.057 A 
HETATM   10  C15 UNL     1      25.051   0.003  53.050  1.00  0.00     0.103 A 
ENDROOT
BRANCH   7  11
HETATM   11  N3  UNL     1      23.286   2.424  50.073  1.00  0.00    -0.340 N 
HETATM   12  H6  UNL     1      23.401   1.972  49.166  1.00  0.00     0.167 HD
BRANCH  11  13
HETATM   13  C7  UNL     1      24.050   3.619  50.043  1.00  0.00     0.035 A 
HETATM   14  C8  UNL     1      23.675   4.853  50.581  1.00  0.00     0.029 A 
HETATM   15  C9  UNL     1      24.456   5.976  50.528  1.00  0.00     0.004 A 
HETATM   16  C10 UNL     1      25.690   5.949  49.924  1.00  0.00     0.024 A 
HETATM   17  C11 UNL     1      26.107   4.765  49.380  1.00  0.00     0.036 A 
HETATM   18 CL1  UNL     1      27.686   4.790  48.626  1.00  0.00    -0.084 Cl
HETATM   19  C12 UNL     1      25.294   3.653  49.453  1.00  0.00     0.053 A 
ENDBRANCH  11  13
ENDBRANCH   7  11
BRANCH  10  20
HETATM   20  O2  UNL     1      26.384  -0.274  53.060  1.00  0.00    -0.342 OA
BRANCH  20  21
HETATM   21  C16 UNL     1      27.445   0.631  53.074  1.00  0.00     0.243 C 
BRANCH  21  22
HETATM   22  P1  UNL     1      28.716   0.297  54.371  1.00  0.00     0.095 P 
HETATM   23  C17 UNL     1      30.003  -0.894  53.718  1.00  0.00     0.082 C 
HETATM   24  F1  UNL     1      29.571   1.741  54.775  1.00  0.00    -0.224 F 
ENDBRANCH  21  22
ENDBRANCH  20  21
ENDBRANCH  10  20
BRANCH   1  25
HETATM   25  O1  UNL     1      24.854  -1.323  55.018  1.00  0.00    -0.353 OA
HETATM   26  C1  UNL     1      25.171  -0.964  56.326  1.00  0.00     0.210 C 
ENDBRANCH   1  25
TORSDOF 6
ENDMDL
MODEL 7
REMARK VINA RESULT:      -7.3      3.473      6.279
REMARK  6 active torsions:
REMARK  status: ('A' for Active; 'I' for Inactive)
REMARK    1  A    between atoms: O1_2  and  C2_3 
REMARK    2  A    between atoms: C6_9  and  N3_10 
REMARK    3  A    between atoms: N3_10  and  C7_11 
REMARK    4  A    between atoms: C15_20  and  O2_21 
REMARK    5  A    between atoms: O2_21  and  C16_22 
REMARK    6  A    between atoms: C16_22  and  P1_23 
ROOT
HETATM    1  C2  UNL     1      27.055   0.551  53.377  1.00  0.00     0.103 A 
HETATM    2  C3  UNL     1      26.540  -0.118  54.467  1.00  0.00     0.072 A 
HETATM    3  C4  UNL     1      25.214  -0.485  54.491  1.00  0.00     0.075 A 
HETATM    4  N1  UNL     1      24.761  -1.141  55.585  1.00  0.00    -0.241 NA
HETATM    5  C5  UNL     1      23.481  -1.536  55.688  1.00  0.00     0.236 A 
HETATM    6  N2  UNL     1      22.649  -1.267  54.681  1.00  0.00    -0.224 NA
HETATM    7  C6  UNL     1      23.010  -0.625  53.564  1.00  0.00     0.142 A 
HETATM    8  C13 UNL     1      24.322  -0.229  53.477  1.00  0.00     0.042 A 
HETATM    9  C14 UNL     1      24.891   0.440  52.415  1.00  0.00     0.057 A 
HETATM   10  C15 UNL     1      26.208   0.835  52.327  1.00  0.00     0.103 A 
ENDROOT
BRANCH   7  11
HETATM   11  N3  UNL     1      22.153  -0.334  52.494  1.00  0.00    -0.340 N 
HETATM   12  H6  UNL     1      22.055  -0.950  51.687  1.00  0.00     0.167 HD
BRANCH  11  13
HETATM   13  C7  UNL     1      21.291   0.773  52.282  1.00  0.00     0.035 A 
HETATM   14  C8  UNL     1      19.904   0.722  52.123  1.00  0.00     0.029 A 
HETATM   15  C9  UNL     1      19.119   1.825  51.925  1.00  0.00     0.004 A 
HETATM   16  C10 UNL     1      19.671   3.083  51.870  1.00  0.00     0.024 A 
HETATM   17  C11 UNL     1      21.027   3.190  52.019  1.00  0.00     0.036 A 
HETATM   18 CL1  UNL     1      21.673   4.815  51.941  1.00  0.00    -0.084 Cl
HETATM   19  C12 UNL     1      21.787   2.057  52.218  1.00  0.00     0.053 A 
ENDBRANCH  11  13
ENDBRANCH   7  11
BRANCH  10  20
HETATM   20  O2  UNL     1      26.725   1.495  51.255  1.00  0.00    -0.342 OA
BRANCH  20  21
HETATM   21  C16 UNL     1      26.775   2.873  51.042  1.00  0.00     0.243 C 
BRANCH  21  22
HETATM   22  P1  UNL     1      25.155   3.634  50.587  1.00  0.00     0.095 P 
HETATM   23  C17 UNL     1      25.405   4.942  49.272  1.00  0.00     0.082 C 
HETATM   24  F1  UNL     1      24.102   2.458  49.890  1.00  0.00    -0.224 F 
ENDBRANCH  21  22
ENDBRANCH  20  21
ENDBRANCH  10  20
BRANCH   1  25
HETATM   25  O1  UNL     1      28.372   0.932  53.316  1.00  0.00    -0.353 OA
HETATM   26  C1  UNL     1      29.491   0.162  53.623  1.00  0.00     0.210 C 
ENDBRANCH   1  25
TORSDOF 6
ENDMDL
MODEL 8
REMARK VINA RESULT:      -7.3      3.689      6.174
REMARK  6 active torsions:
REMARK  status: ('A' for Active; 'I' for Inactive)
REMARK    1  A    between atoms: O1_2  and  C2_3 
REMARK    2  A    between atoms: C6_9  and  N3_10 
REMARK    3  A    between atoms: N3_10  and  C7_11 
REMARK    4  A    between atoms: C15_20  and  O2_21 
REMARK    5  A    between atoms: O2_21  and  C16_22 
REMARK    6  A    between atoms: C16_22  and  P1_23 
ROOT
HETATM    1  C2  UNL     1      26.333  -0.062  52.837  1.00  0.00     0.103 A 
HETATM    2  C3  UNL     1      25.547  -0.735  53.749  1.00  0.00     0.072 A 
HETATM    3  C4  UNL     1      24.207  -0.442  53.857  1.00  0.00     0.075 A 
HETATM    4  N1  UNL     1      23.482  -1.134  54.767  1.00  0.00    -0.241 NA
HETATM    5  C5  UNL     1      22.167  -0.909  54.935  1.00  0.00     0.236 A 
HETATM    6  N2  UNL     1      21.579   0.019  54.181  1.00  0.00    -0.224 NA
HETATM    7  C6  UNL     1      22.216   0.748  53.258  1.00  0.00     0.142 A 
HETATM    8  C13 UNL     1      23.559   0.506  53.101  1.00  0.00     0.042 A 
HETATM    9  C14 UNL     1      24.391   1.145  52.209  1.00  0.00     0.057 A 
HETATM   10  C15 UNL     1      25.738   0.899  52.049  1.00  0.00     0.103 A 
ENDROOT
BRANCH   7  11
HETATM   11  N3  UNL     1      21.616   1.727  52.455  1.00  0.00    -0.340 N 
HETATM   12  H6  UNL     1      21.107   2.519  52.845  1.00  0.00     0.167 HD
BRANCH  11  13
HETATM   13  C7  UNL     1      21.568   1.853  51.043  1.00  0.00     0.035 A 
HETATM   14  C8  UNL     1      21.353   0.820  50.128  1.00  0.00     0.029 A 
HETATM   15  C9  UNL     1      21.312   1.000  48.771  1.00  0.00     0.004 A 
HETATM   16  C10 UNL     1      21.486   2.247  48.220  1.00  0.00     0.024 A 
HETATM   17  C11 UNL     1      21.701   3.296  49.072  1.00  0.00     0.036 A 
HETATM   18 CL1  UNL     1      21.914   4.859  48.314  1.00  0.00    -0.084 Cl
HETATM   19  C12 UNL     1      21.735   3.077  50.433  1.00  0.00     0.053 A 
ENDBRANCH  11  13
ENDBRANCH   7  11
BRANCH  10  20
HETATM   20  O2  UNL     1      26.522   1.558  51.152  1.00  0.00    -0.342 OA
BRANCH  20  21
HETATM   21  C16 UNL     1      26.871   2.908  51.150  1.00  0.00     0.243 C 
BRANCH  21  22
HETATM   22  P1  UNL     1      25.872   3.955  50.003  1.00  0.00     0.095 P 
HETATM   23  C17 UNL     1      26.999   4.899  48.846  1.00  0.00     0.082 C 
HETATM   24  F1  UNL     1      24.873   2.973  48.994  1.00  0.00    -0.224 F 
ENDBRANCH  21  22
ENDBRANCH  20  21
ENDBRANCH  10  20
BRANCH   1  25
HETATM   25  O1  UNL     1      27.672  -0.328  52.700  1.00  0.00    -0.353 OA
HETATM   26  C1  UNL     1      28.422  -1.278  53.389  1.00  0.00     0.210 C 
ENDBRANCH   1  25
TORSDOF 6
ENDMDL
MODEL 9
REMARK VINA RESULT:      -7.3      4.647      7.582
REMARK  6 active torsions:
REMARK  status: ('A' for Active; 'I' for Inactive)
REMARK    1  A    between atoms: O1_2  and  C2_3 
REMARK    2  A    between atoms: C6_9  and  N3_10 
REMARK    3  A    between atoms: N3_10  and  C7_11 
REMARK    4  A    between atoms: C15_20  and  O2_21 
REMARK    5  A    between atoms: O2_21  and  C16_22 
REMARK    6  A    between atoms: C16_22  and  P1_23 
ROOT
HETATM    1  C2  UNL     1      25.993   3.528  49.800  1.00  0.00     0.103 A 
HETATM    2  C3  UNL     1      24.837   3.938  49.168  1.00  0.00     0.072 A 
HETATM    3  C4  UNL     1      23.616   3.750  49.772  1.00  0.00     0.075 A 
HETATM    4  N1  UNL     1      22.514   4.173  49.109  1.00  0.00    -0.241 NA
HETATM    5  C5  UNL     1      21.282   4.029  49.628  1.00  0.00     0.236 A 
HETATM    6  N2  UNL     1      21.160   3.455  50.825  1.00  0.00    -0.224 NA
HETATM    7  C6  UNL     1      22.192   3.010  51.551  1.00  0.00     0.142 A 
HETATM    8  C13 UNL     1      23.442   3.165  51.004  1.00  0.00     0.042 A 
HETATM    9  C14 UNL     1      24.628   2.777  51.587  1.00  0.00     0.057 A 
HETATM   10  C15 UNL     1      25.883   2.935  51.039  1.00  0.00     0.103 A 
ENDROOT
BRANCH   7  11
HETATM   11  N3  UNL     1      22.085   2.407  52.810  1.00  0.00    -0.340 N 
HETATM   12  H6  UNL     1      22.270   2.911  53.677  1.00  0.00     0.167 HD
BRANCH  11  13
HETATM   13  C7  UNL     1      21.729   1.081  53.166  1.00  0.00     0.035 A 
HETATM   14  C8  UNL     1      22.598   0.086  53.622  1.00  0.00     0.029 A 
HETATM   15  C9  UNL     1      22.198  -1.180  53.957  1.00  0.00     0.004 A 
HETATM   16  C10 UNL     1      20.879  -1.552  53.859  1.00  0.00     0.024 A 
HETATM   17  C11 UNL     1      19.984  -0.615  53.418  1.00  0.00     0.036 A 
HETATM   18 CL1  UNL     1      18.319  -1.145  53.315  1.00  0.00    -0.084 Cl
HETATM   19  C12 UNL     1      20.422   0.651  53.090  1.00  0.00     0.053 A 
ENDBRANCH  11  13
ENDBRANCH   7  11
BRANCH  10  20
HETATM   20  O2  UNL     1      27.029   2.534  51.655  1.00  0.00    -0.342 OA
BRANCH  20  21
HETATM   21  C16 UNL     1      27.274   1.323  52.301  1.00  0.00     0.243 C 
BRANCH  21  22
HETATM   22  P1  UNL     1      28.425   1.445  53.741  1.00  0.00     0.095 P 
HETATM   23  C17 UNL     1      29.761   0.142  53.609  1.00  0.00     0.082 C 
HETATM   24  F1  UNL     1      29.244   2.964  53.741  1.00  0.00    -0.224 F 
ENDBRANCH  21  22
ENDBRANCH  20  21
ENDBRANCH  10  20
BRANCH   1  25
HETATM   25  O1  UNL     1      27.230   3.698  49.230  1.00  0.00    -0.353 OA
HETATM   26  C1  UNL     1      27.726   4.843  48.610  1.00  0.00     0.210 C 
ENDBRANCH   1  25
TORSDOF 6
ENDMDL
