MODEL 1
REMARK VINA RESULT:      -7.9      0.000      0.000
REMARK  2 active torsions:
REMARK  status: ('A' for Active; 'I' for Inactive)
REMARK    1  A    between atoms: C1_2  and  C2_3 
REMARK    2  A    between atoms: N3_11  and  C8_12 
ROOT
HETATM    1  C2  UNL     1      21.456  -0.278  53.426  1.00  0.00    -0.015 A 
HETATM    2  C3  UNL     1      22.512  -0.926  53.926  1.00  0.00     0.013 A 
HETATM    3  C4  UNL     1      23.815  -0.468  53.496  1.00  0.00     0.034 A 
HETATM    4  C5  UNL     1      23.931   0.539  52.651  1.00  0.00     0.084 A 
HETATM    5  C6  UNL     1      22.796   1.256  52.090  1.00  0.00     0.069 A 
HETATM    6  N1  UNL     1      22.983   2.221  51.255  1.00  0.00    -0.242 NA
HETATM    7  C7  UNL     1      24.347   2.547  50.912  1.00  0.00     0.255 A 
HETATM    8  N2  UNL     1      25.381   1.938  51.385  1.00  0.00    -0.160 NA
HETATM    9  N3  UNL     1      25.255   0.870  52.307  1.00  0.00    -0.231 N 
HETATM   10  C14 UNL     1      21.420   0.867  52.480  1.00  0.00     0.103 A 
ENDROOT
BRANCH   9  11
HETATM   11  C8  UNL     1      26.490   0.313  52.720  1.00  0.00     0.060 A 
HETATM   12  C9  UNL     1      27.019  -0.950  52.564  1.00  0.00     0.035 A 
HETATM   13  C10 UNL     1      28.269  -1.273  53.027  1.00  0.00     0.046 A 
HETATM   14  C11 UNL     1      29.076  -0.373  53.675  1.00  0.00     0.138 A 
HETATM   15  F1  UNL     1      30.286  -0.803  54.086  1.00  0.00    -0.204 F 
HETATM   16  C12 UNL     1      28.593   0.897  53.855  1.00  0.00     0.074 A 
HETATM   17 CL1  UNL     1      29.599   2.069  54.677  1.00  0.00    -0.081 Cl
HETATM   18  C13 UNL     1      27.336   1.212  53.384  1.00  0.00     0.058 A 
ENDBRANCH   9  11
BRANCH   1  19
HETATM   19  C1  UNL     1      20.107  -0.678  53.809  1.00  0.00     0.266 C 
HETATM   20  O1  UNL     1      18.999  -0.573  53.241  1.00  0.00    -0.302 OA
ENDBRANCH   1  19
TORSDOF 2
ENDMDL
MODEL 2
REMARK VINA RESULT:      -7.7      3.294      4.843
REMARK  2 active torsions:
REMARK  status: ('A' for Active; 'I' for Inactive)
REMARK    1  A    between atoms: C1_2  and  C2_3 
REMARK    2  A    between atoms: N3_11  and  C8_12 
ROOT
HETATM    1  C2  UNL     1      22.517  -0.085  53.838  1.00  0.00    -0.015 A 
HETATM    2  C3  UNL     1      22.190   0.989  53.113  1.00  0.00     0.013 A 
HETATM    3  C4  UNL     1      23.252   1.595  52.341  1.00  0.00     0.034 A 
HETATM    4  C5  UNL     1      24.473   1.097  52.366  1.00  0.00     0.084 A 
HETATM    5  C6  UNL     1      24.853  -0.069  53.150  1.00  0.00     0.069 A 
HETATM    6  N1  UNL     1      26.072  -0.493  53.139  1.00  0.00    -0.242 NA
HETATM    7  C7  UNL     1      27.019   0.233  52.329  1.00  0.00     0.255 A 
HETATM    8  N2  UNL     1      26.726   1.270  51.619  1.00  0.00    -0.160 NA
HETATM    9  N3  UNL     1      25.410   1.792  51.579  1.00  0.00    -0.231 N 
HETATM   10  C14 UNL     1      23.830  -0.766  53.966  1.00  0.00     0.103 A 
ENDROOT
BRANCH   9  11
HETATM   11  C8  UNL     1      25.266   2.935  50.754  1.00  0.00     0.060 A 
HETATM   12  C9  UNL     1      24.179   3.740  50.493  1.00  0.00     0.035 A 
HETATM   13  C10 UNL     1      24.269   4.832  49.667  1.00  0.00     0.046 A 
HETATM   14  C11 UNL     1      25.435   5.198  49.046  1.00  0.00     0.138 A 
HETATM   15  F1  UNL     1      25.405   6.291  48.257  1.00  0.00    -0.204 F 
HETATM   16  C12 UNL     1      26.545   4.427  49.274  1.00  0.00     0.074 A 
HETATM   17 CL1  UNL     1      28.049   4.868  48.496  1.00  0.00    -0.081 Cl
HETATM   18  C13 UNL     1      26.444   3.332  50.106  1.00  0.00     0.058 A 
ENDBRANCH   9  11
BRANCH   1  19
HETATM   19  C1  UNL     1      21.504  -0.755  54.646  1.00  0.00     0.266 C 
HETATM   20  O1  UNL     1      21.352  -1.943  54.999  1.00  0.00    -0.302 OA
ENDBRANCH   1  19
TORSDOF 2
ENDMDL
MODEL 3
REMARK VINA RESULT:      -7.7      2.113      3.114
REMARK  2 active torsions:
REMARK  status: ('A' for Active; 'I' for Inactive)
REMARK    1  A    between atoms: C1_2  and  C2_3 
REMARK    2  A    between atoms: N3_11  and  C8_12 
ROOT
HETATM    1  C2  UNL     1      21.122   0.410  51.976  1.00  0.00    -0.015 A 
HETATM    2  C3  UNL     1      22.288   0.929  51.580  1.00  0.00     0.013 A 
HETATM    3  C4  UNL     1      23.442   0.625  52.397  1.00  0.00     0.034 A 
HETATM    4  C5  UNL     1      23.326  -0.127  53.475  1.00  0.00     0.084 A 
HETATM    5  C6  UNL     1      22.067  -0.699  53.928  1.00  0.00     0.069 A 
HETATM    6  N1  UNL     1      22.024  -1.412  55.002  1.00  0.00    -0.242 NA
HETATM    7  C7  UNL     1      23.262  -1.610  55.717  1.00  0.00     0.255 A 
HETATM    8  N2  UNL     1      24.399  -1.121  55.352  1.00  0.00    -0.160 NA
HETATM    9  N3  UNL     1      24.524  -0.330  54.184  1.00  0.00    -0.231 N 
HETATM   10  C14 UNL     1      20.830  -0.453  53.149  1.00  0.00     0.103 A 
ENDROOT
BRANCH   9  11
HETATM   11  C8  UNL     1      25.841   0.128  53.934  1.00  0.00     0.060 A 
HETATM   12  C9  UNL     1      26.376   1.397  53.904  1.00  0.00     0.035 A 
HETATM   13  C10 UNL     1      27.709   1.616  53.664  1.00  0.00     0.046 A 
HETATM   14  C11 UNL     1      28.599   0.598  53.438  1.00  0.00     0.138 A 
HETATM   15  F1  UNL     1      29.885   0.933  53.214  1.00  0.00    -0.204 F 
HETATM   16  C12 UNL     1      28.115  -0.684  53.457  1.00  0.00     0.074 A 
HETATM   17 CL1  UNL     1      29.225  -2.005  53.172  1.00  0.00    -0.081 Cl
HETATM   18  C13 UNL     1      26.773  -0.893  53.700  1.00  0.00     0.058 A 
ENDBRANCH   9  11
BRANCH   1  19
HETATM   19  C1  UNL     1      19.910   0.669  51.207  1.00  0.00     0.266 C 
HETATM   20  O1  UNL     1      18.940   1.434  51.387  1.00  0.00    -0.302 OA
ENDBRANCH   1  19
TORSDOF 2
ENDMDL
MODEL 4
REMARK VINA RESULT:      -7.6      2.797      4.317
REMARK  2 active torsions:
REMARK  status: ('A' for Active; 'I' for Inactive)
REMARK    1  A    between atoms: C1_2  and  C2_3 
REMARK    2  A    between atoms: N3_11  and  C8_12 
ROOT
HETATM    1  C2  UNL     1      24.844   4.000  49.825  1.00  0.00    -0.015 A 
HETATM    2  C3  UNL     1      26.133   3.747  50.072  1.00  0.00     0.013 A 
HETATM    3  C4  UNL     1      26.414   2.704  51.033  1.00  0.00     0.034 A 
HETATM    4  C5  UNL     1      25.434   2.049  51.625  1.00  0.00     0.084 A 
HETATM    5  C6  UNL     1      24.024   2.309  51.376  1.00  0.00     0.069 A 
HETATM    6  N1  UNL     1      23.117   1.640  52.003  1.00  0.00    -0.242 NA
HETATM    7  C7  UNL     1      23.561   0.642  52.945  1.00  0.00     0.255 A 
HETATM    8  N2  UNL     1      24.799   0.379  53.197  1.00  0.00    -0.160 NA
HETATM    9  N3  UNL     1      25.851   1.070  52.546  1.00  0.00    -0.231 N 
HETATM   10  C14 UNL     1      23.635   3.353  50.397  1.00  0.00     0.103 A 
ENDROOT
BRANCH   9  11
HETATM   11  C8  UNL     1      27.146   0.659  52.944  1.00  0.00     0.060 A 
HETATM   12  C9  UNL     1      28.220   1.371  53.433  1.00  0.00     0.035 A 
HETATM   13  C10 UNL     1      29.395   0.757  53.787  1.00  0.00     0.046 A 
HETATM   14  C11 UNL     1      29.586  -0.596  53.679  1.00  0.00     0.138 A 
HETATM   15  F1  UNL     1      30.783  -1.088  54.058  1.00  0.00    -0.204 F 
HETATM   16  C12 UNL     1      28.548  -1.348  53.196  1.00  0.00     0.074 A 
HETATM   17 CL1  UNL     1      28.761  -3.078  53.047  1.00  0.00    -0.081 Cl
HETATM   18  C13 UNL     1      27.370  -0.721  52.844  1.00  0.00     0.058 A 
ENDBRANCH   9  11
BRANCH   1  19
HETATM   19  C1  UNL     1      24.474   5.038  48.869  1.00  0.00     0.266 C 
HETATM   20  O1  UNL     1      23.899   6.139  48.995  1.00  0.00    -0.302 OA
ENDBRANCH   1  19
TORSDOF 2
ENDMDL
MODEL 5
REMARK VINA RESULT:      -7.5      4.485      6.512
REMARK  2 active torsions:
REMARK  status: ('A' for Active; 'I' for Inactive)
REMARK    1  A    between atoms: C1_2  and  C2_3 
REMARK    2  A    between atoms: N3_11  and  C8_12 
ROOT
HETATM    1  C2  UNL     1      27.676   1.326  53.773  1.00  0.00    -0.015 A 
HETATM    2  C3  UNL     1      26.850   0.481  54.397  1.00  0.00     0.013 A 
HETATM    3  C4  UNL     1      25.501   0.397  53.881  1.00  0.00     0.034 A 
HETATM    4  C5  UNL     1      25.127   1.128  52.848  1.00  0.00     0.084 A 
HETATM    5  C6  UNL     1      26.007   2.058  52.156  1.00  0.00     0.069 A 
HETATM    6  N1  UNL     1      25.570   2.753  51.162  1.00  0.00    -0.242 NA
HETATM    7  C7  UNL     1      24.191   2.567  50.779  1.00  0.00     0.255 A 
HETATM    8  N2  UNL     1      23.376   1.755  51.363  1.00  0.00    -0.160 NA
HETATM    9  N3  UNL     1      23.785   0.957  52.460  1.00  0.00    -0.231 N 
HETATM   10  C14 UNL     1      27.413   2.205  52.605  1.00  0.00     0.103 A 
ENDROOT
BRANCH   9  11
HETATM   11  C8  UNL     1      22.764   0.127  52.984  1.00  0.00     0.060 A 
HETATM   12  C9  UNL     1      22.787  -0.837  53.968  1.00  0.00     0.035 A 
HETATM   13  C10 UNL     1      21.655  -1.515  54.344  1.00  0.00     0.046 A 
HETATM   14  C11 UNL     1      20.430  -1.288  53.771  1.00  0.00     0.138 A 
HETATM   15  F1  UNL     1      19.388  -2.015  54.221  1.00  0.00    -0.204 F 
HETATM   16  C12 UNL     1      20.356  -0.339  52.785  1.00  0.00     0.074 A 
HETATM   17 CL1  UNL     1      18.807  -0.026  52.035  1.00  0.00    -0.081 Cl
HETATM   18  C13 UNL     1      21.500   0.338  52.416  1.00  0.00     0.058 A 
ENDBRANCH   9  11
BRANCH   1  19
HETATM   19  C1  UNL     1      29.053   1.471  54.232  1.00  0.00     0.266 C 
HETATM   20  O1  UNL     1      29.622   2.319  54.952  1.00  0.00    -0.302 OA
ENDBRANCH   1  19
TORSDOF 2
ENDMDL
MODEL 6
REMARK VINA RESULT:      -7.3      4.661      6.562
REMARK  2 active torsions:
REMARK  status: ('A' for Active; 'I' for Inactive)
REMARK    1  A    between atoms: C1_2  and  C2_3 
REMARK    2  A    between atoms: N3_11  and  C8_12 
ROOT
HETATM    1  C2  UNL     1      26.417   4.522  49.449  1.00  0.00    -0.015 A 
HETATM    2  C3  UNL     1      26.426   3.246  49.845  1.00  0.00     0.013 A 
HETATM    3  C4  UNL     1      25.343   2.830  50.709  1.00  0.00     0.034 A 
HETATM    4  C5  UNL     1      24.407   3.684  51.076  1.00  0.00     0.084 A 
HETATM    5  C6  UNL     1      24.379   5.078  50.661  1.00  0.00     0.069 A 
HETATM    6  N1  UNL     1      23.440   5.862  51.071  1.00  0.00    -0.242 NA
HETATM    7  C7  UNL     1      22.440   5.298  51.945  1.00  0.00     0.255 A 
HETATM    8  N2  UNL     1      22.426   4.069  52.338  1.00  0.00    -0.160 NA
HETATM    9  N3  UNL     1      23.422   3.149  51.928  1.00  0.00    -0.231 N 
HETATM   10  C14 UNL     1      25.441   5.595  49.765  1.00  0.00     0.103 A 
ENDROOT
BRANCH   9  11
HETATM   11  C8  UNL     1      23.258   1.845  52.455  1.00  0.00     0.060 A 
HETATM   12  C9  UNL     1      24.169   0.944  52.962  1.00  0.00     0.035 A 
HETATM   13  C10 UNL     1      23.782  -0.277  53.454  1.00  0.00     0.046 A 
HETATM   14  C11 UNL     1      22.474  -0.687  53.477  1.00  0.00     0.138 A 
HETATM   15  F1  UNL     1      22.213  -1.908  53.985  1.00  0.00    -0.204 F 
HETATM   16  C12 UNL     1      21.530   0.174  52.982  1.00  0.00     0.074 A 
HETATM   17 CL1  UNL     1      19.852  -0.321  52.997  1.00  0.00    -0.081 Cl
HETATM   18  C13 UNL     1      21.929   1.399  52.490  1.00  0.00     0.058 A 
ENDBRANCH   9  11
BRANCH   1  19
HETATM   19  C1  UNL     1      27.474   5.022  48.577  1.00  0.00     0.266 C 
HETATM   20  O1  UNL     1      28.718   4.914  48.606  1.00  0.00    -0.302 OA
ENDBRANCH   1  19
TORSDOF 2
ENDMDL
MODEL 7
REMARK VINA RESULT:      -7.3      4.308      6.516
REMARK  2 active torsions:
REMARK  status: ('A' for Active; 'I' for Inactive)
REMARK    1  A    between atoms: C1_2  and  C2_3 
REMARK    2  A    between atoms: N3_11  and  C8_12 
ROOT
HETATM    1  C2  UNL     1      27.839  -1.304  52.985  1.00  0.00    -0.015 A 
HETATM    2  C3  UNL     1      26.702  -1.737  52.434  1.00  0.00     0.013 A 
HETATM    3  C4  UNL     1      25.598  -0.803  52.412  1.00  0.00     0.034 A 
HETATM    4  C5  UNL     1      25.729   0.408  52.918  1.00  0.00     0.084 A 
HETATM    5  C6  UNL     1      26.956   0.900  53.527  1.00  0.00     0.069 A 
HETATM    6  N1  UNL     1      27.008   2.092  54.017  1.00  0.00    -0.242 NA
HETATM    7  C7  UNL     1      25.813   2.897  53.932  1.00  0.00     0.255 A 
HETATM    8  N2  UNL     1      24.705   2.502  53.402  1.00  0.00    -0.160 NA
HETATM    9  N3  UNL     1      24.573   1.207  52.842  1.00  0.00    -0.231 N 
HETATM   10  C14 UNL     1      28.147   0.019  53.585  1.00  0.00     0.103 A 
ENDROOT
BRANCH   9  11
HETATM   11  C8  UNL     1      23.289   0.937  52.308  1.00  0.00     0.060 A 
HETATM   12  C9  UNL     1      22.720   1.257  51.094  1.00  0.00     0.035 A 
HETATM   13  C10 UNL     1      21.447   0.865  50.766  1.00  0.00     0.046 A 
HETATM   14  C11 UNL     1      20.654   0.135  51.613  1.00  0.00     0.138 A 
HETATM   15  F1  UNL     1      19.419  -0.193  51.182  1.00  0.00    -0.204 F 
HETATM   16  C12 UNL     1      21.175  -0.207  52.833  1.00  0.00     0.074 A 
HETATM   17 CL1  UNL     1      20.187  -1.138  53.937  1.00  0.00    -0.081 Cl
HETATM   18  C13 UNL     1      22.456   0.191  53.153  1.00  0.00     0.058 A 
ENDBRANCH   9  11
BRANCH   1  19
HETATM   19  C1  UNL     1      29.001  -2.185  53.047  1.00  0.00     0.266 C 
HETATM   20  O1  UNL     1      29.284  -3.163  53.770  1.00  0.00    -0.302 OA
ENDBRANCH   1  19
TORSDOF 2
ENDMDL
MODEL 8
REMARK VINA RESULT:      -7.1      4.423      6.554
REMARK  2 active torsions:
REMARK  status: ('A' for Active; 'I' for Inactive)
REMARK    1  A    between atoms: C1_2  and  C2_3 
REMARK    2  A    between atoms: N3_11  and  C8_12 
ROOT
HETATM    1  C2  UNL     1      27.120  -0.256  52.974  1.00  0.00    -0.015 A 
HETATM    2  C3  UNL     1      27.206   0.720  52.065  1.00  0.00     0.013 A 
HETATM    3  C4  UNL     1      25.974   1.399  51.729  1.00  0.00     0.034 A 
HETATM    4  C5  UNL     1      24.836   1.057  52.302  1.00  0.00     0.084 A 
HETATM    5  C6  UNL     1      24.718  -0.005  53.290  1.00  0.00     0.069 A 
HETATM    6  N1  UNL     1      23.569  -0.298  53.797  1.00  0.00    -0.242 NA
HETATM    7  C7  UNL     1      22.430   0.464  53.344  1.00  0.00     0.255 A 
HETATM    8  N2  UNL     1      22.489   1.412  52.471  1.00  0.00    -0.160 NA
HETATM    9  N3  UNL     1      23.715   1.791  51.872  1.00  0.00    -0.231 N 
HETATM   10  C14 UNL     1      25.928  -0.753  53.708  1.00  0.00     0.103 A 
ENDROOT
BRANCH   9  11
HETATM   11  C8  UNL     1      23.598   2.845  50.933  1.00  0.00     0.060 A 
HETATM   12  C9  UNL     1      23.931   4.180  51.013  1.00  0.00     0.035 A 
HETATM   13  C10 UNL     1      23.755   5.035  49.955  1.00  0.00     0.046 A 
HETATM   14  C11 UNL     1      23.237   4.629  48.751  1.00  0.00     0.138 A 
HETATM   15  F1  UNL     1      23.110   5.557  47.782  1.00  0.00    -0.204 F 
HETATM   16  C12 UNL     1      22.889   3.310  48.623  1.00  0.00     0.074 A 
HETATM   17 CL1  UNL     1      22.226   2.761  47.099  1.00  0.00    -0.081 Cl
HETATM   18  C13 UNL     1      23.072   2.458  49.693  1.00  0.00     0.058 A 
ENDBRANCH   9  11
BRANCH   1  19
HETATM   19  C1  UNL     1      28.316  -0.993  53.368  1.00  0.00     0.266 C 
HETATM   20  O1  UNL     1      28.587  -2.211  53.405  1.00  0.00    -0.302 OA
ENDBRANCH   1  19
TORSDOF 2
ENDMDL
MODEL 9
REMARK VINA RESULT:      -7.1      5.540      7.797
REMARK  2 active torsions:
REMARK  status: ('A' for Active; 'I' for Inactive)
REMARK    1  A    between atoms: C1_2  and  C2_3 
REMARK    2  A    between atoms: N3_11  and  C8_12 
ROOT
HETATM    1  C2  UNL     1      27.704   5.819  48.581  1.00  0.00    -0.015 A 
HETATM    2  C3  UNL     1      27.399   4.544  48.840  1.00  0.00     0.013 A 
HETATM    3  C4  UNL     1      26.182   4.309  49.585  1.00  0.00     0.034 A 
HETATM    4  C5  UNL     1      25.427   5.317  49.980  1.00  0.00     0.084 A 
HETATM    5  C6  UNL     1      25.741   6.713  49.714  1.00  0.00     0.069 A 
HETATM    6  N1  UNL     1      24.966   7.649  50.145  1.00  0.00    -0.242 NA
HETATM    7  C7  UNL     1      23.796   7.251  50.889  1.00  0.00     0.255 A 
HETATM    8  N2  UNL     1      23.479   6.027  51.148  1.00  0.00    -0.160 NA
HETATM    9  N3  UNL     1      24.281   4.945  50.706  1.00  0.00    -0.231 N 
HETATM   10  C14 UNL     1      26.963   7.053  48.947  1.00  0.00     0.103 A 
ENDROOT
BRANCH   9  11
HETATM   11  C8  UNL     1      23.790   3.671  51.081  1.00  0.00     0.060 A 
HETATM   12  C9  UNL     1      23.907   2.956  52.253  1.00  0.00     0.035 A 
HETATM   13  C10 UNL     1      23.319   1.727  52.414  1.00  0.00     0.046 A 
HETATM   14  C11 UNL     1      22.579   1.125  51.430  1.00  0.00     0.138 A 
HETATM   15  F1  UNL     1      22.047  -0.084  51.701  1.00  0.00    -0.204 F 
HETATM   16  C12 UNL     1      22.434   1.796  50.244  1.00  0.00     0.074 A 
HETATM   17 CL1  UNL     1      21.495   1.054  48.968  1.00  0.00    -0.081 Cl
HETATM   18  C13 UNL     1      23.029   3.031  50.093  1.00  0.00     0.058 A 
ENDBRANCH   9  11
BRANCH   1  19
HETATM   19  C1  UNL     1      28.915   6.142  47.835  1.00  0.00     0.266 C 
HETATM   20  O1  UNL     1      30.054   5.632  47.808  1.00  0.00    -0.302 OA
ENDBRANCH   1  19
TORSDOF 2
ENDMDL
