MODEL 1
REMARK VINA RESULT:      -9.9      0.000      0.000
REMARK  1 active torsions:
REMARK  status: ('A' for Active; 'I' for Inactive)
REMARK    1  A    between atoms: C3_3  and  C4_4 
ROOT
HETATM    1  C4  UNL     1      25.535   0.191  53.870  1.00  0.00    -0.051 C 
HETATM    2  C5  UNL     1      24.576   0.668  53.170  1.00  0.00    -0.036 C 
HETATM    3  C6  UNL     1      25.047   1.576  52.019  1.00  0.00     0.007 C 
HETATM    4  C7  UNL     1      24.371   2.744  52.228  1.00  0.00     0.000 C 
HETATM    5  C8  UNL     1      24.105   4.059  51.798  1.00  0.00     0.204 C 
HETATM    6  O1  UNL     1      23.896   5.342  51.496  1.00  0.00    -0.336 OA
HETATM    7  C9  UNL     1      22.857   5.649  50.509  1.00  0.00     0.137 C 
HETATM    8 CL1  UNL     1      24.227   5.947  49.542  1.00  0.00    -0.057 Cl
HETATM    9  C10 UNL     1      21.509   5.643  50.479  1.00  0.00     0.044 C 
HETATM   10  C11 UNL     1      20.163   5.824  49.873  1.00  0.00     0.175 C 
HETATM   11  N1  UNL     1      19.504   4.510  49.852  1.00  0.00    -0.303 N 
HETATM   12  C12 UNL     1      20.500   3.990  48.933  1.00  0.00     0.222 C 
HETATM   13  N2  UNL     1      20.683   3.179  49.871  1.00  0.00    -0.236 NA
HETATM   14  C13 UNL     1      21.583   2.136  49.958  1.00  0.00     0.233 C 
HETATM   15  N3  UNL     1      22.269   1.291  50.529  1.00  0.00    -0.257 NA
HETATM   16  C14 UNL     1      22.597   0.794  51.736  1.00  0.00     0.107 C 
HETATM   17  C15 UNL     1      23.089   0.326  52.977  1.00  0.00     0.042 A 
HETATM   18  C16 UNL     1      22.119  -0.871  53.692  1.00  0.00     0.033 A 
HETATM   19  C17 UNL     1      23.206  -0.389  53.667  1.00  0.00     0.081 A 
HETATM   20  C18 UNL     1      24.442  -0.739  54.501  1.00  0.00     0.047 C 
HETATM   21  C19 UNL     1      21.025  -0.341  53.001  1.00  0.00    -0.099 C 
HETATM   22  C20 UNL     1      20.119   0.118  52.430  1.00  0.00    -0.106 C 
HETATM   23  C21 UNL     1      19.034   0.683  51.711  1.00  0.00     0.095 C 
HETATM   24  C22 UNL     1      18.929   2.197  51.838  1.00  0.00     0.028 C 
HETATM   25  C23 UNL     1      18.167   2.710  50.655  1.00  0.00     0.111 C 
HETATM   26  N4  UNL     1      18.318   4.154  50.550  1.00  0.00    -0.237 NA
HETATM   27  H25 UNL     1      18.468   4.569  51.525  1.00  0.00     0.146 HD
ENDROOT
BRANCH   1  28
HETATM   28  C3  UNL     1      26.947   0.229  53.813  1.00  0.00     0.003 C 
HETATM   29  C2  UNL     1      27.349  -0.759  53.174  1.00  0.00    -0.030 C 
HETATM   30  C1  UNL     1      26.860  -1.955  52.483  1.00  0.00     0.036 C 
ENDBRANCH   1  28
TORSDOF 1
ENDMDL
MODEL 2
REMARK VINA RESULT:      -9.6      2.663      4.528
REMARK  1 active torsions:
REMARK  status: ('A' for Active; 'I' for Inactive)
REMARK    1  A    between atoms: C3_3  and  C4_4 
ROOT
HETATM    1  C4  UNL     1      26.568   2.197  52.165  1.00  0.00    -0.051 C 
HETATM    2  C5  UNL     1      25.327   2.307  51.877  1.00  0.00    -0.036 C 
HETATM    3  C6  UNL     1      24.391   2.032  53.068  1.00  0.00     0.007 C 
HETATM    4  C7  UNL     1      23.558   1.053  52.610  1.00  0.00     0.000 C 
HETATM    5  C8  UNL     1      22.470   0.197  52.871  1.00  0.00     0.204 C 
HETATM    6  O1  UNL     1      21.512  -0.704  53.098  1.00  0.00    -0.336 OA
HETATM    7  C9  UNL     1      20.122  -0.292  52.879  1.00  0.00     0.137 C 
HETATM    8 CL1  UNL     1      20.125  -0.295  54.582  1.00  0.00    -0.057 Cl
HETATM    9  C10 UNL     1      19.336  -0.042  51.812  1.00  0.00     0.044 C 
HETATM   10  C11 UNL     1      18.083   0.338  51.109  1.00  0.00     0.175 C 
HETATM   11  N1  UNL     1      18.351   1.577  50.362  1.00  0.00    -0.303 N 
HETATM   12  C12 UNL     1      18.579   2.308  51.595  1.00  0.00     0.222 C 
HETATM   13  N2  UNL     1      19.701   2.495  51.066  1.00  0.00    -0.236 NA
HETATM   14  C13 UNL     1      20.791   3.183  51.558  1.00  0.00     0.233 C 
HETATM   15  N3  UNL     1      21.978   3.496  51.636  1.00  0.00    -0.257 NA
HETATM   16  C14 UNL     1      23.199   3.257  51.125  1.00  0.00     0.107 C 
HETATM   17  C15 UNL     1      24.523   2.948  50.732  1.00  0.00     0.042 A 
HETATM   18  C16 UNL     1      25.034   3.772  49.337  1.00  0.00     0.033 A 
HETATM   19  C17 UNL     1      25.397   3.190  50.308  1.00  0.00     0.081 A 
HETATM   20  C18 UNL     1      26.821   2.858  50.766  1.00  0.00     0.047 C 
HETATM   21  C19 UNL     1      23.695   3.855  48.944  1.00  0.00    -0.099 C 
HETATM   22  C20 UNL     1      22.576   3.907  48.622  1.00  0.00    -0.106 C 
HETATM   23  C21 UNL     1      21.206   3.973  48.259  1.00  0.00     0.095 C 
HETATM   24  C22 UNL     1      20.473   2.643  48.365  1.00  0.00     0.028 C 
HETATM   25  C23 UNL     1      19.010   2.931  48.517  1.00  0.00     0.111 C 
HETATM   26  N4  UNL     1      18.306   1.732  48.950  1.00  0.00    -0.237 NA
HETATM   27  H25 UNL     1      18.820   0.866  48.587  1.00  0.00     0.146 HD
ENDROOT
BRANCH   1  28
HETATM   28  C3  UNL     1      27.318   1.952  53.338  1.00  0.00     0.003 C 
HETATM   29  C2  UNL     1      27.565   0.736  53.411  1.00  0.00    -0.030 C 
HETATM   30  C1  UNL     1      27.325  -0.528  52.708  1.00  0.00     0.036 C 
ENDBRANCH   1  28
TORSDOF 1
ENDMDL
MODEL 3
REMARK VINA RESULT:      -9.5      2.527      4.418
REMARK  1 active torsions:
REMARK  status: ('A' for Active; 'I' for Inactive)
REMARK    1  A    between atoms: C3_3  and  C4_4 
ROOT
HETATM    1  C4  UNL     1      26.000   0.753  52.659  1.00  0.00    -0.051 C 
HETATM    2  C5  UNL     1      25.095   1.453  52.087  1.00  0.00    -0.036 C 
HETATM    3  C6  UNL     1      23.715   1.348  52.763  1.00  0.00     0.007 C 
HETATM    4  C7  UNL     1      22.885   0.959  51.752  1.00  0.00     0.000 C 
HETATM    5  C8  UNL     1      21.578   0.627  51.346  1.00  0.00     0.204 C 
HETATM    6  O1  UNL     1      20.382   0.204  50.931  1.00  0.00    -0.336 OA
HETATM    7  C9  UNL     1      19.417   1.216  50.490  1.00  0.00     0.137 C 
HETATM    8 CL1  UNL     1      18.712   0.825  51.991  1.00  0.00    -0.057 Cl
HETATM    9  C10 UNL     1      19.268   2.019  49.417  1.00  0.00     0.044 C 
HETATM   10  C11 UNL     1      18.611   3.054  48.576  1.00  0.00     0.175 C 
HETATM   11  N1  UNL     1      19.540   4.188  48.459  1.00  0.00    -0.303 N 
HETATM   12  C12 UNL     1      19.455   4.445  49.886  1.00  0.00     0.222 C 
HETATM   13  N2  UNL     1      20.690   4.242  49.814  1.00  0.00    -0.236 NA
HETATM   14  C13 UNL     1      21.634   4.256  50.821  1.00  0.00     0.233 C 
HETATM   15  N3  UNL     1      22.713   3.997  51.351  1.00  0.00    -0.257 NA
HETATM   16  C14 UNL     1      23.892   3.375  51.165  1.00  0.00     0.107 C 
HETATM   17  C15 UNL     1      25.087   2.622  51.087  1.00  0.00     0.042 A 
HETATM   18  C16 UNL     1      26.362   3.436  50.315  1.00  0.00     0.033 A 
HETATM   19  C17 UNL     1      26.085   2.550  51.057  1.00  0.00     0.081 A 
HETATM   20  C18 UNL     1      27.005   1.538  51.747  1.00  0.00     0.047 C 
HETATM   21  C19 UNL     1      25.408   4.179  49.611  1.00  0.00    -0.099 C 
HETATM   22  C20 UNL     1      24.604   4.783  49.023  1.00  0.00    -0.106 C 
HETATM   23  C21 UNL     1      23.607   5.518  48.331  1.00  0.00     0.095 C 
HETATM   24  C22 UNL     1      22.516   4.652  47.715  1.00  0.00     0.028 C 
HETATM   25  C23 UNL     1      21.296   5.503  47.532  1.00  0.00     0.111 C 
HETATM   26  N4  UNL     1      20.137   4.665  47.261  1.00  0.00    -0.237 NA
HETATM   27  H25 UNL     1      20.453   3.769  46.766  1.00  0.00     0.146 HD
ENDROOT
BRANCH   1  28
HETATM   28  C3  UNL     1      26.076  -0.053  53.819  1.00  0.00     0.003 C 
HETATM   29  C2  UNL     1      26.452  -1.192  53.492  1.00  0.00    -0.030 C 
HETATM   30  C1  UNL     1      26.822  -1.985  52.316  1.00  0.00     0.036 C 
ENDBRANCH   1  28
TORSDOF 1
ENDMDL
MODEL 4
REMARK VINA RESULT:      -9.3      2.692      6.528
REMARK  1 active torsions:
REMARK  status: ('A' for Active; 'I' for Inactive)
REMARK    1  A    between atoms: C3_3  and  C4_4 
ROOT
HETATM    1  C4  UNL     1      24.718   6.525  48.229  1.00  0.00    -0.051 C 
HETATM    2  C5  UNL     1      24.364   5.466  48.854  1.00  0.00    -0.036 C 
HETATM    3  C6  UNL     1      22.907   5.048  48.580  1.00  0.00     0.007 C 
HETATM    4  C7  UNL     1      22.351   4.970  49.824  1.00  0.00     0.000 C 
HETATM    5  C8  UNL     1      21.209   4.695  50.602  1.00  0.00     0.204 C 
HETATM    6  O1  UNL     1      20.134   4.548  51.379  1.00  0.00    -0.336 OA
HETATM    7  C9  UNL     1      19.802   3.193  51.833  1.00  0.00     0.137 C 
HETATM    8 CL1  UNL     1      18.574   3.384  50.667  1.00  0.00    -0.057 Cl
HETATM    9  C10 UNL     1      20.302   2.313  52.723  1.00  0.00     0.044 C 
HETATM   10  C11 UNL     1      20.372   1.032  53.473  1.00  0.00     0.175 C 
HETATM   11  N1  UNL     1      21.642   0.379  53.121  1.00  0.00    -0.303 N 
HETATM   12  C12 UNL     1      21.220   0.232  51.740  1.00  0.00     0.222 C 
HETATM   13  N2  UNL     1      22.248   0.922  51.540  1.00  0.00    -0.236 NA
HETATM   14  C13 UNL     1      22.767   1.385  50.348  1.00  0.00     0.233 C 
HETATM   15  N3  UNL     1      23.451   2.112  49.630  1.00  0.00    -0.257 NA
HETATM   16  C14 UNL     1      24.309   3.148  49.638  1.00  0.00     0.107 C 
HETATM   17  C15 UNL     1      25.101   4.319  49.566  1.00  0.00     0.042 A 
HETATM   18  C16 UNL     1      26.758   4.044  49.814  1.00  0.00     0.033 A 
HETATM   19  C17 UNL     1      25.956   4.795  49.360  1.00  0.00     0.081 A 
HETATM   20  C18 UNL     1      26.172   6.152  48.682  1.00  0.00     0.047 C 
HETATM   21  C19 UNL     1      26.417   2.915  50.567  1.00  0.00    -0.099 C 
HETATM   22  C20 UNL     1      26.120   1.985  51.202  1.00  0.00    -0.106 C 
HETATM   23  C21 UNL     1      25.735   0.847  51.957  1.00  0.00     0.095 C 
HETATM   24  C22 UNL     1      24.650   1.128  52.989  1.00  0.00     0.028 C 
HETATM   25  C23 UNL     1      23.954  -0.164  53.294  1.00  0.00     0.111 C 
HETATM   26  N4  UNL     1      22.713   0.092  54.010  1.00  0.00    -0.237 NA
HETATM   27  H25 UNL     1      22.811   0.993  54.582  1.00  0.00     0.146 HD
ENDROOT
BRANCH   1  28
HETATM   28  C3  UNL     1      24.126   7.385  47.276  1.00  0.00     0.003 C 
HETATM   29  C2  UNL     1      23.594   8.338  47.872  1.00  0.00    -0.030 C 
HETATM   30  C1  UNL     1      23.354   8.858  49.220  1.00  0.00     0.036 C 
ENDBRANCH   1  28
TORSDOF 1
ENDMDL
MODEL 5
REMARK VINA RESULT:      -8.9      2.471      4.458
REMARK  1 active torsions:
REMARK  status: ('A' for Active; 'I' for Inactive)
REMARK    1  A    between atoms: C3_3  and  C4_4 
ROOT
HETATM    1  C4  UNL     1      23.161  -0.558  53.447  1.00  0.00    -0.051 C 
HETATM    2  C5  UNL     1      23.078   0.583  52.875  1.00  0.00    -0.036 C 
HETATM    3  C6  UNL     1      21.766   1.331  53.180  1.00  0.00     0.007 C 
HETATM    4  C7  UNL     1      21.250   1.601  51.946  1.00  0.00     0.000 C 
HETATM    5  C8  UNL     1      20.213   2.182  51.190  1.00  0.00     0.204 C 
HETATM    6  O1  UNL     1      19.209   2.624  50.430  1.00  0.00    -0.336 OA
HETATM    7  C9  UNL     1      19.219   4.038  50.042  1.00  0.00     0.137 C 
HETATM    8 CL1  UNL     1      17.977   4.099  51.207  1.00  0.00    -0.057 Cl
HETATM    9  C10 UNL     1      19.922   4.810  49.190  1.00  0.00     0.044 C 
HETATM   10  C11 UNL     1      20.305   6.070  48.500  1.00  0.00     0.175 C 
HETATM   11  N1  UNL     1      21.695   6.376  48.871  1.00  0.00    -0.303 N 
HETATM   12  C12 UNL     1      21.317   6.556  50.261  1.00  0.00     0.222 C 
HETATM   13  N2  UNL     1      22.145   5.628  50.420  1.00  0.00    -0.236 NA
HETATM   14  C13 UNL     1      22.531   4.996  51.585  1.00  0.00     0.233 C 
HETATM   15  N3  UNL     1      23.014   4.091  52.263  1.00  0.00    -0.257 NA
HETATM   16  C14 UNL     1      23.594   2.879  52.200  1.00  0.00     0.107 C 
HETATM   17  C15 UNL     1      24.075   1.548  52.210  1.00  0.00     0.042 A 
HETATM   18  C16 UNL     1      25.750   1.422  51.962  1.00  0.00     0.033 A 
HETATM   19  C17 UNL     1      24.788   0.869  52.387  1.00  0.00     0.081 A 
HETATM   20  C18 UNL     1      24.664  -0.530  53.000  1.00  0.00     0.047 C 
HETATM   21  C19 UNL     1      25.698   2.634  51.266  1.00  0.00    -0.099 C 
HETATM   22  C20 UNL     1      25.639   3.637  50.677  1.00  0.00    -0.106 C 
HETATM   23  C21 UNL     1      25.546   4.869  49.978  1.00  0.00     0.095 C 
HETATM   24  C22 UNL     1      24.429   4.910  48.944  1.00  0.00     0.028 C 
HETATM   25  C23 UNL     1      24.071   6.346  48.705  1.00  0.00     0.111 C 
HETATM   26  N4  UNL     1      22.807   6.434  47.988  1.00  0.00    -0.237 NA
HETATM   27  H25 UNL     1      22.684   5.565  47.374  1.00  0.00     0.146 HD
ENDROOT
BRANCH   1  28
HETATM   28  C3  UNL     1      22.373  -1.291  54.364  1.00  0.00     0.003 C 
HETATM   29  C2  UNL     1      23.042  -1.502  55.390  1.00  0.00    -0.030 C 
HETATM   30  C1  UNL     1      24.372  -1.267  55.961  1.00  0.00     0.036 C 
ENDBRANCH   1  28
TORSDOF 1
ENDMDL
MODEL 6
REMARK VINA RESULT:      -8.7      5.780      8.435
REMARK  1 active torsions:
REMARK  status: ('A' for Active; 'I' for Inactive)
REMARK    1  A    between atoms: C3_3  and  C4_4 
ROOT
HETATM    1  C4  UNL     1      24.996   3.568  49.898  1.00  0.00    -0.051 C 
HETATM    2  C5  UNL     1      25.283   4.757  49.522  1.00  0.00    -0.036 C 
HETATM    3  C6  UNL     1      24.286   5.819  50.023  1.00  0.00     0.007 C 
HETATM    4  C7  UNL     1      23.878   6.446  48.882  1.00  0.00     0.000 C 
HETATM    5  C8  UNL     1      23.081   7.448  48.294  1.00  0.00     0.204 C 
HETATM    6  O1  UNL     1      22.270   8.310  47.677  1.00  0.00    -0.336 OA
HETATM    7  C9  UNL     1      22.735   9.692  47.523  1.00  0.00     0.137 C 
HETATM    8 CL1  UNL     1      21.586   9.943  48.755  1.00  0.00    -0.057 Cl
HETATM    9  C10 UNL     1      23.646  10.335  46.764  1.00  0.00     0.044 C 
HETATM   10  C11 UNL     1      24.412  11.507  46.264  1.00  0.00     0.175 C 
HETATM   11  N1  UNL     1      25.828  11.285  46.594  1.00  0.00    -0.303 N 
HETATM   12  C12 UNL     1      25.537  11.335  48.016  1.00  0.00     0.222 C 
HETATM   13  N2  UNL     1      26.020  10.179  47.973  1.00  0.00    -0.236 NA
HETATM   14  C13 UNL     1      26.188   9.267  48.995  1.00  0.00     0.233 C 
HETATM   15  N3  UNL     1      26.355   8.153  49.488  1.00  0.00    -0.257 NA
HETATM   16  C14 UNL     1      26.511   6.849  49.196  1.00  0.00     0.107 C 
HETATM   17  C15 UNL     1      26.535   5.453  48.963  1.00  0.00     0.042 A 
HETATM   18  C16 UNL     1      28.079   4.846  48.597  1.00  0.00     0.033 A 
HETATM   19  C17 UNL     1      26.991   4.563  48.984  1.00  0.00     0.081 A 
HETATM   20  C18 UNL     1      26.424   3.193  49.371  1.00  0.00     0.047 C 
HETATM   21  C19 UNL     1      28.417   6.112  48.108  1.00  0.00    -0.099 C 
HETATM   22  C20 UNL     1      28.683   7.168  47.693  1.00  0.00    -0.106 C 
HETATM   23  C21 UNL     1      28.990   8.466  47.209  1.00  0.00     0.095 C 
HETATM   24  C22 UNL     1      27.941   9.038  46.264  1.00  0.00     0.028 C 
HETATM   25  C23 UNL     1      28.065  10.531  46.282  1.00  0.00     0.111 C 
HETATM   26  N4  UNL     1      26.894  11.138  45.667  1.00  0.00    -0.237 NA
HETATM   27  H25 UNL     1      26.493  10.473  44.929  1.00  0.00     0.146 HD
ENDROOT
BRANCH   1  28
HETATM   28  C3  UNL     1      24.018   2.977  50.731  1.00  0.00     0.003 C 
HETATM   29  C2  UNL     1      23.106   2.523  50.018  1.00  0.00    -0.030 C 
HETATM   30  C1  UNL     1      22.691   2.413  48.617  1.00  0.00     0.036 C 
ENDBRANCH   1  28
TORSDOF 1
ENDMDL
MODEL 7
REMARK VINA RESULT:      -8.5      2.705      6.514
REMARK  1 active torsions:
REMARK  status: ('A' for Active; 'I' for Inactive)
REMARK    1  A    between atoms: C3_3  and  C4_4 
ROOT
HETATM    1  C4  UNL     1      24.451   6.253  48.072  1.00  0.00    -0.051 C 
HETATM    2  C5  UNL     1      24.179   5.359  48.946  1.00  0.00    -0.036 C 
HETATM    3  C6  UNL     1      25.190   5.304  50.106  1.00  0.00     0.007 C 
HETATM    4  C7  UNL     1      25.606   4.004  50.115  1.00  0.00     0.000 C 
HETATM    5  C8  UNL     1      26.417   3.017  50.710  1.00  0.00     0.204 C 
HETATM    6  O1  UNL     1      27.239   2.071  51.169  1.00  0.00    -0.336 OA
HETATM    7  C9  UNL     1      26.792   1.278  52.319  1.00  0.00     0.137 C 
HETATM    8 CL1  UNL     1      27.944   2.253  53.109  1.00  0.00    -0.057 Cl
HETATM    9  C10 UNL     1      25.889   0.301  52.537  1.00  0.00     0.044 C 
HETATM   10  C11 UNL     1      25.138  -0.698  53.342  1.00  0.00     0.175 C 
HETATM   11  N1  UNL     1      23.719  -0.311  53.320  1.00  0.00    -0.303 N 
HETATM   12  C12 UNL     1      24.012   0.920  54.032  1.00  0.00     0.222 C 
HETATM   13  N2  UNL     1      23.513   1.425  52.999  1.00  0.00    -0.236 NA
HETATM   14  C13 UNL     1      23.334   2.756  52.681  1.00  0.00     0.233 C 
HETATM   15  N3  UNL     1      23.152   3.717  51.935  1.00  0.00    -0.257 NA
HETATM   16  C14 UNL     1      22.979   4.075  50.650  1.00  0.00     0.107 C 
HETATM   17  C15 UNL     1      22.936   4.529  49.310  1.00  0.00     0.042 A 
HETATM   18  C16 UNL     1      21.385   4.484  48.619  1.00  0.00     0.033 A 
HETATM   19  C17 UNL     1      22.469   4.966  48.541  1.00  0.00     0.081 A 
HETATM   20  C18 UNL     1      23.018   5.958  47.510  1.00  0.00     0.047 C 
HETATM   21  C19 UNL     1      21.063   3.453  49.508  1.00  0.00    -0.099 C 
HETATM   22  C20 UNL     1      20.811   2.587  50.245  1.00  0.00    -0.106 C 
HETATM   23  C21 UNL     1      20.522   1.545  51.164  1.00  0.00     0.095 C 
HETATM   24  C22 UNL     1      21.577   0.448  51.209  1.00  0.00     0.028 C 
HETATM   25  C23 UNL     1      21.473  -0.243  52.534  1.00  0.00     0.111 C 
HETATM   26  N4  UNL     1      22.651  -1.065  52.764  1.00  0.00    -0.237 NA
HETATM   27  H25 UNL     1      23.043  -1.398  51.825  1.00  0.00     0.146 HD
ENDROOT
BRANCH   1  28
HETATM   28  C3  UNL     1      25.421   7.272  47.934  1.00  0.00     0.003 C 
HETATM   29  C2  UNL     1      24.948   8.338  48.364  1.00  0.00    -0.030 C 
HETATM   30  C1  UNL     1      23.724   8.900  48.943  1.00  0.00     0.036 C 
ENDBRANCH   1  28
TORSDOF 1
ENDMDL
MODEL 8
REMARK VINA RESULT:      -8.4      9.158     11.751
REMARK  1 active torsions:
REMARK  status: ('A' for Active; 'I' for Inactive)
REMARK    1  A    between atoms: C3_3  and  C4_4 
ROOT
HETATM    1  C4  UNL     1      27.033   5.227  48.849  1.00  0.00    -0.051 C 
HETATM    2  C5  UNL     1      27.934   5.974  48.332  1.00  0.00    -0.036 C 
HETATM    3  C6  UNL     1      29.229   5.221  47.975  1.00  0.00     0.007 C 
HETATM    4  C7  UNL     1      30.203   5.917  48.632  1.00  0.00     0.000 C 
HETATM    5  C8  UNL     1      31.573   6.054  48.930  1.00  0.00     0.204 C 
HETATM    6  O1  UNL     1      32.842   6.168  49.328  1.00  0.00    -0.336 OA
HETATM    7  C9  UNL     1      33.759   6.924  48.469  1.00  0.00     0.137 C 
HETATM    8 CL1  UNL     1      34.315   5.351  48.120  1.00  0.00    -0.057 Cl
HETATM    9  C10 UNL     1      33.961   8.221  48.162  1.00  0.00     0.044 C 
HETATM   10  C11 UNL     1      34.619   9.369  47.484  1.00  0.00     0.175 C 
HETATM   11  N1  UNL     1      33.614  10.014  46.626  1.00  0.00    -0.303 N 
HETATM   12  C12 UNL     1      33.509   8.824  45.801  1.00  0.00     0.222 C 
HETATM   13  N2  UNL     1      32.313   8.891  46.173  1.00  0.00    -0.236 NA
HETATM   14  C13 UNL     1      31.260   8.051  45.870  1.00  0.00     0.233 C 
HETATM   15  N3  UNL     1      30.153   7.538  46.027  1.00  0.00    -0.257 NA
HETATM   16  C14 UNL     1      29.064   7.529  46.816  1.00  0.00     0.107 C 
HETATM   17  C15 UNL     1      27.957   7.369  47.683  1.00  0.00     0.042 A 
HETATM   18  C16 UNL     1      26.714   8.498  47.426  1.00  0.00     0.033 A 
HETATM   19  C17 UNL     1      26.980   7.436  47.889  1.00  0.00     0.081 A 
HETATM   20  C18 UNL     1      26.077   6.451  48.640  1.00  0.00     0.047 C 
HETATM   21  C19 UNL     1      27.675   9.379  46.918  1.00  0.00    -0.099 C 
HETATM   22  C20 UNL     1      28.487  10.108  46.509  1.00  0.00    -0.106 C 
HETATM   23  C21 UNL     1      29.489  10.972  45.998  1.00  0.00     0.095 C 
HETATM   24  C22 UNL     1      30.717  11.092  46.892  1.00  0.00     0.028 C 
HETATM   25  C23 UNL     1      31.870  11.527  46.041  1.00  0.00     0.111 C 
HETATM   26  N4  UNL     1      33.122  11.341  46.760  1.00  0.00    -0.237 NA
HETATM   27  H25 UNL     1      32.947  11.436  47.813  1.00  0.00     0.146 HD
ENDROOT
BRANCH   1  28
HETATM   28  C3  UNL     1      26.893   3.845  49.114  1.00  0.00     0.003 C 
HETATM   29  C2  UNL     1      25.910   3.676  49.856  1.00  0.00    -0.030 C 
HETATM   30  C1  UNL     1      24.864   4.422  50.562  1.00  0.00     0.036 C 
ENDBRANCH   1  28
TORSDOF 1
ENDMDL
MODEL 9
REMARK VINA RESULT:      -8.4      3.265      4.959
REMARK  1 active torsions:
REMARK  status: ('A' for Active; 'I' for Inactive)
REMARK    1  A    between atoms: C3_3  and  C4_4 
ROOT
HETATM    1  C4  UNL     1      22.858  -0.663  54.055  1.00  0.00    -0.051 C 
HETATM    2  C5  UNL     1      22.055  -0.002  53.310  1.00  0.00    -0.036 C 
HETATM    3  C6  UNL     1      20.632   0.114  53.889  1.00  0.00     0.007 C 
HETATM    4  C7  UNL     1      19.835  -0.375  52.894  1.00  0.00     0.000 C 
HETATM    5  C8  UNL     1      18.531  -0.670  52.451  1.00  0.00     0.204 C 
HETATM    6  O1  UNL     1      17.330  -1.064  52.022  1.00  0.00    -0.336 OA
HETATM    7  C9  UNL     1      16.487  -0.070  51.350  1.00  0.00     0.137 C 
HETATM    8 CL1  UNL     1      15.659  -0.149  52.837  1.00  0.00    -0.057 Cl
HETATM    9  C10 UNL     1      16.475   0.549  50.153  1.00  0.00     0.044 C 
HETATM   10  C11 UNL     1      15.964   1.475  49.108  1.00  0.00     0.175 C 
HETATM   11  N1  UNL     1      16.995   2.499  48.879  1.00  0.00    -0.303 N 
HETATM   12  C12 UNL     1      16.845   2.998  50.234  1.00  0.00     0.222 C 
HETATM   13  N2  UNL     1      18.060   2.692  50.290  1.00  0.00    -0.236 NA
HETATM   14  C13 UNL     1      18.938   2.804  51.349  1.00  0.00     0.233 C 
HETATM   15  N3  UNL     1      19.955   2.556  51.993  1.00  0.00    -0.257 NA
HETATM   16  C14 UNL     1      21.084   1.824  52.000  1.00  0.00     0.107 C 
HETATM   17  C15 UNL     1      22.211   0.979  52.135  1.00  0.00     0.042 A 
HETATM   18  C16 UNL     1      23.598   1.552  51.339  1.00  0.00     0.033 A 
HETATM   19  C17 UNL     1      23.198   0.827  52.192  1.00  0.00     0.081 A 
HETATM   20  C18 UNL     1      23.982  -0.121  53.106  1.00  0.00     0.047 C 
HETATM   21  C19 UNL     1      22.758   2.237  50.455  1.00  0.00    -0.099 C 
HETATM   22  C20 UNL     1      22.047   2.792  49.718  1.00  0.00    -0.106 C 
HETATM   23  C21 UNL     1      21.163   3.474  48.842  1.00  0.00     0.095 C 
HETATM   24  C22 UNL     1      20.040   2.603  48.294  1.00  0.00     0.028 C 
HETATM   25  C23 UNL     1      18.913   3.502  47.885  1.00  0.00     0.111 C 
HETATM   26  N4  UNL     1      17.704   2.721  47.668  1.00  0.00    -0.237 NA
HETATM   27  H25 UNL     1      17.970   1.733  47.350  1.00  0.00     0.146 HD
ENDROOT
BRANCH   1  28
HETATM   28  C3  UNL     1      22.791  -1.266  55.332  1.00  0.00     0.003 C 
HETATM   29  C2  UNL     1      23.930  -1.276  55.831  1.00  0.00    -0.030 C 
HETATM   30  C1  UNL     1      25.315  -0.898  55.538  1.00  0.00     0.036 C 
ENDBRANCH   1  28
TORSDOF 1
ENDMDL
