MODEL 1
REMARK VINA RESULT:      -9.2      0.000      0.000
REMARK  2 active torsions:
REMARK  status: ('A' for Active; 'I' for Inactive)
REMARK    1  A    between atoms: C10_14  and  C11_15 
REMARK    2  A    between atoms: N4_20  and  C15_21 
ROOT
HETATM    1  C1  UNL     1      25.557  -0.816  55.408  1.00  0.00     0.024 C 
HETATM    2  C2  UNL     1      24.309  -0.812  54.906  1.00  0.00    -0.027 A 
HETATM    3  C3  UNL     1      23.234  -1.489  55.662  1.00  0.00     0.014 A 
HETATM    4  C4  UNL     1      22.177  -1.274  54.857  1.00  0.00     0.042 A 
HETATM    5  C5  UNL     1      22.510  -0.504  53.636  1.00  0.00     0.187 A 
HETATM    6  C6  UNL     1      23.792  -0.230  53.674  1.00  0.00     0.086 A 
HETATM    7  C7  UNL     1      24.738   0.477  52.827  1.00  0.00     0.302 C 
HETATM    8  O1  UNL     1      25.560  -0.280  52.238  1.00  0.00    -0.259 OA
HETATM    9  O2  UNL     1      24.939   1.793  52.527  1.00  0.00    -0.258 OA
HETATM   10  C8  UNL     1      25.886   2.343  51.710  1.00  0.00     0.167 C 
HETATM   11  C9  UNL     1      27.315   2.117  52.051  1.00  0.00     0.102 C 
HETATM   12  N1  UNL     1      25.640   3.065  50.634  1.00  0.00    -0.127 NA
HETATM   13  N2  UNL     1      24.339   3.326  50.241  1.00  0.00    -0.127 NA
HETATM   14  C10 UNL     1      23.777   4.466  50.223  1.00  0.00     0.180 C 
HETATM   15  N4  UNL     1      22.475   4.018  49.759  1.00  0.00    -0.319 N 
HETATM   16  C21 UNL     1      21.786   3.432  50.835  1.00  0.00     0.204 C 
HETATM   17  S1  UNL     1      20.201   2.684  50.521  1.00  0.00    -0.144 SA
HETATM   18  C22 UNL     1      19.668   1.960  52.127  1.00  0.00     0.156 C 
HETATM   19  C23 UNL     1      20.601   0.873  52.523  1.00  0.00     0.366 A 
HETATM   20  O3  UNL     1      21.545   1.037  53.369  1.00  0.00    -0.145 OA
HETATM   21  N5  UNL     1      21.395  -0.280  52.778  1.00  0.00     0.120 N 
HETATM   22  H21 UNL     1      21.102  -1.146  52.227  1.00  0.00     0.329 HD
ENDROOT
BRANCH  14  23
HETATM   23  C11 UNL     1      23.904   5.884  50.476  1.00  0.00     0.087 C 
HETATM   24  C12 UNL     1      24.965   6.586  50.215  1.00  0.00     0.004 C 
HETATM   25  C13 UNL     1      24.821   7.862  50.037  1.00  0.00     0.007 C 
HETATM   26  C14 UNL     1      23.528   8.177  50.685  1.00  0.00     0.148 C 
HETATM   27  N3  UNL     1      23.025   6.860  51.020  1.00  0.00    -0.383 N 
HETATM   28  H11 UNL     1      22.164   6.591  51.565  1.00  0.00     0.160 HD
ENDBRANCH  14  23
BRANCH  15  29
HETATM   29  C15 UNL     1      22.364   4.324  48.417  1.00  0.00     0.037 A 
HETATM   30  C16 UNL     1      22.187   3.225  47.564  1.00  0.00     0.029 A 
HETATM   31  C17 UNL     1      22.074   3.380  46.206  1.00  0.00     0.002 A 
HETATM   32  C18 UNL     1      22.125   4.603  45.600  1.00  0.00     0.000 A 
HETATM   33  C19 UNL     1      22.300   5.690  46.453  1.00  0.00     0.002 A 
HETATM   34  C20 UNL     1      22.414   5.552  47.808  1.00  0.00     0.029 A 
ENDBRANCH  15  29
TORSDOF 2
ENDMDL
MODEL 2
REMARK VINA RESULT:      -8.8      2.024      4.786
REMARK  2 active torsions:
REMARK  status: ('A' for Active; 'I' for Inactive)
REMARK    1  A    between atoms: C10_14  and  C11_15 
REMARK    2  A    between atoms: N4_20  and  C15_21 
ROOT
HETATM    1  C1  UNL     1      19.608  -0.507  53.258  1.00  0.00     0.024 C 
HETATM    2  C2  UNL     1      20.912  -0.191  53.338  1.00  0.00    -0.027 A 
HETATM    3  C3  UNL     1      21.844  -1.155  53.962  1.00  0.00     0.014 A 
HETATM    4  C4  UNL     1      23.010  -0.492  53.857  1.00  0.00     0.042 A 
HETATM    5  C5  UNL     1      22.882   0.833  53.207  1.00  0.00     0.187 A 
HETATM    6  C6  UNL     1      21.619   1.005  52.897  1.00  0.00     0.086 A 
HETATM    7  C7  UNL     1      20.830   2.043  52.256  1.00  0.00     0.302 C 
HETATM    8  O1  UNL     1      20.069   2.667  53.047  1.00  0.00    -0.259 OA
HETATM    9  O2  UNL     1      20.725   2.495  50.973  1.00  0.00    -0.258 OA
HETATM   10  C8  UNL     1      19.925   3.488  50.484  1.00  0.00     0.167 C 
HETATM   11  C9  UNL     1      18.455   3.335  50.637  1.00  0.00     0.102 C 
HETATM   12  N1  UNL     1      20.348   4.582  49.882  1.00  0.00    -0.127 NA
HETATM   13  N2  UNL     1      21.700   4.809  49.695  1.00  0.00    -0.127 NA
HETATM   14  C10 UNL     1      22.304   4.857  48.578  1.00  0.00     0.180 C 
HETATM   15  N4  UNL     1      23.639   5.085  49.104  1.00  0.00    -0.319 N 
HETATM   16  C21 UNL     1      24.147   3.869  49.596  1.00  0.00     0.204 C 
HETATM   17  S1  UNL     1      25.729   3.879  50.413  1.00  0.00    -0.144 SA
HETATM   18  C22 UNL     1      26.003   2.151  50.984  1.00  0.00     0.156 C 
HETATM   19  C23 UNL     1      24.981   1.789  52.000  1.00  0.00     0.366 A 
HETATM   20  O3  UNL     1      23.936   1.107  51.726  1.00  0.00    -0.145 OA
HETATM   21  N5  UNL     1      24.114   1.540  53.100  1.00  0.00     0.120 N 
HETATM   22  H21 UNL     1      24.446   1.958  54.025  1.00  0.00     0.329 HD
ENDROOT
BRANCH  14  23
HETATM   23  C11 UNL     1      22.199   4.763  47.139  1.00  0.00     0.087 C 
HETATM   24  C12 UNL     1      21.981   3.660  46.488  1.00  0.00     0.004 C 
HETATM   25  C13 UNL     1      21.452   3.747  45.307  1.00  0.00     0.007 C 
HETATM   26  C14 UNL     1      21.726   5.140  44.886  1.00  0.00     0.148 C 
HETATM   27  N3  UNL     1      22.284   5.719  46.090  1.00  0.00    -0.383 N 
HETATM   28  H11 UNL     1      22.698   6.677  46.243  1.00  0.00     0.160 HD
ENDBRANCH  14  23
BRANCH  15  29
HETATM   29  C15 UNL     1      23.949   6.420  48.939  1.00  0.00     0.037 A 
HETATM   30  C16 UNL     1      25.098   6.680  48.180  1.00  0.00     0.029 A 
HETATM   31  C17 UNL     1      25.530   7.961  47.946  1.00  0.00     0.002 A 
HETATM   32  C18 UNL     1      24.875   9.057  48.431  1.00  0.00     0.000 A 
HETATM   33  C19 UNL     1      23.734   8.791  49.184  1.00  0.00     0.002 A 
HETATM   34  C20 UNL     1      23.291   7.521  49.426  1.00  0.00     0.029 A 
ENDBRANCH  15  29
TORSDOF 2
ENDMDL
MODEL 3
REMARK VINA RESULT:      -8.2      2.186      3.045
REMARK  2 active torsions:
REMARK  status: ('A' for Active; 'I' for Inactive)
REMARK    1  A    between atoms: C10_14  and  C11_15 
REMARK    2  A    between atoms: N4_20  and  C15_21 
ROOT
HETATM    1  C1  UNL     1      28.208   2.168  53.225  1.00  0.00     0.024 C 
HETATM    2  C2  UNL     1      27.086   1.441  53.372  1.00  0.00    -0.027 A 
HETATM    3  C3  UNL     1      26.988   0.500  54.509  1.00  0.00     0.014 A 
HETATM    4  C4  UNL     1      25.762  -0.019  54.309  1.00  0.00     0.042 A 
HETATM    5  C5  UNL     1      25.073   0.530  53.118  1.00  0.00     0.187 A 
HETATM    6  C6  UNL     1      25.875   1.407  52.562  1.00  0.00     0.086 A 
HETATM    7  C7  UNL     1      25.825   2.289  51.408  1.00  0.00     0.302 C 
HETATM    8  O1  UNL     1      26.583   1.935  50.462  1.00  0.00    -0.259 OA
HETATM    9  O2  UNL     1      25.134   3.430  51.119  1.00  0.00    -0.258 OA
HETATM   10  C8  UNL     1      25.181   4.187  49.983  1.00  0.00     0.167 C 
HETATM   11  C9  UNL     1      26.487   4.782  49.598  1.00  0.00     0.102 C 
HETATM   12  N1  UNL     1      24.157   4.439  49.191  1.00  0.00    -0.127 NA
HETATM   13  N2  UNL     1      22.903   3.926  49.471  1.00  0.00    -0.127 NA
HETATM   14  C10 UNL     1      21.871   4.600  49.781  1.00  0.00     0.180 C 
HETATM   15  N4  UNL     1      20.968   3.475  49.962  1.00  0.00    -0.319 N 
HETATM   16  C21 UNL     1      21.239   2.871  51.203  1.00  0.00     0.204 C 
HETATM   17  S1  UNL     1      20.356   1.386  51.633  1.00  0.00    -0.144 SA
HETATM   18  C22 UNL     1      21.037   0.859  53.260  1.00  0.00     0.156 C 
HETATM   19  C23 UNL     1      22.471   0.496  53.111  1.00  0.00     0.366 A 
HETATM   20  O3  UNL     1      23.426   1.286  53.420  1.00  0.00    -0.145 OA
HETATM   21  N5  UNL     1      23.779  -0.022  52.900  1.00  0.00     0.120 N 
HETATM   22  H21 UNL     1      23.800  -1.014  52.506  1.00  0.00     0.329 HD
ENDROOT
BRANCH  14  23
HETATM   23  C11 UNL     1      21.305   5.909  50.019  1.00  0.00     0.087 C 
HETATM   24  C12 UNL     1      21.857   6.826  50.755  1.00  0.00     0.004 C 
HETATM   25  C13 UNL     1      21.533   8.061  50.530  1.00  0.00     0.007 C 
HETATM   26  C14 UNL     1      20.242   7.975  49.810  1.00  0.00     0.148 C 
HETATM   27  N3  UNL     1      20.113   6.550  49.583  1.00  0.00    -0.383 N 
HETATM   28  H11 UNL     1      19.310   6.009  49.169  1.00  0.00     0.160 HD
ENDBRANCH  14  23
BRANCH  15  29
HETATM   29  C15 UNL     1      20.156   3.387  48.849  1.00  0.00     0.037 A 
HETATM   30  C16 UNL     1      18.779   3.349  49.113  1.00  0.00     0.029 A 
HETATM   31  C17 UNL     1      17.857   3.251  48.102  1.00  0.00     0.002 A 
HETATM   32  C18 UNL     1      18.214   3.184  46.786  1.00  0.00     0.000 A 
HETATM   33  C19 UNL     1      19.583   3.223  46.532  1.00  0.00     0.002 A 
HETATM   34  C20 UNL     1      20.514   3.321  47.527  1.00  0.00     0.029 A 
ENDBRANCH  15  29
TORSDOF 2
ENDMDL
MODEL 4
REMARK VINA RESULT:      -8.2      2.169      4.768
REMARK  2 active torsions:
REMARK  status: ('A' for Active; 'I' for Inactive)
REMARK    1  A    between atoms: C10_14  and  C11_15 
REMARK    2  A    between atoms: N4_20  and  C15_21 
ROOT
HETATM    1  C1  UNL     1      22.742  -1.120  53.556  1.00  0.00     0.024 C 
HETATM    2  C2  UNL     1      23.767  -0.285  53.309  1.00  0.00    -0.027 A 
HETATM    3  C3  UNL     1      25.139  -0.719  53.652  1.00  0.00     0.014 A 
HETATM    4  C4  UNL     1      25.852   0.357  53.271  1.00  0.00     0.042 A 
HETATM    5  C5  UNL     1      25.023   1.448  52.708  1.00  0.00     0.187 A 
HETATM    6  C6  UNL     1      23.772   1.054  52.734  1.00  0.00     0.086 A 
HETATM    7  C7  UNL     1      22.489   1.611  52.342  1.00  0.00     0.302 C 
HETATM    8  O1  UNL     1      21.751   1.928  53.316  1.00  0.00    -0.259 OA
HETATM    9  O2  UNL     1      21.898   1.868  51.139  1.00  0.00    -0.258 OA
HETATM   10  C8  UNL     1      20.661   2.394  50.895  1.00  0.00     0.167 C 
HETATM   11  C9  UNL     1      19.478   1.657  51.412  1.00  0.00     0.102 C 
HETATM   12  N1  UNL     1      20.422   3.509  50.233  1.00  0.00    -0.127 NA
HETATM   13  N2  UNL     1      21.462   4.260  49.715  1.00  0.00    -0.127 NA
HETATM   14  C10 UNL     1      21.701   4.459  48.483  1.00  0.00     0.180 C 
HETATM   15  N4  UNL     1      22.898   5.264  48.658  1.00  0.00    -0.319 N 
HETATM   16  C21 UNL     1      23.974   4.416  48.973  1.00  0.00     0.204 C 
HETATM   17  S1  UNL     1      25.548   5.152  49.361  1.00  0.00    -0.144 SA
HETATM   18  C22 UNL     1      26.657   3.749  49.799  1.00  0.00     0.156 C 
HETATM   19  C23 UNL     1      26.161   3.084  51.033  1.00  0.00     0.366 A 
HETATM   20  O3  UNL     1      25.471   2.008  51.016  1.00  0.00    -0.145 OA
HETATM   21  N5  UNL     1      25.774   2.591  52.310  1.00  0.00     0.120 N 
HETATM   22  H21 UNL     1      26.111   3.186  53.130  1.00  0.00     0.329 HD
ENDROOT
BRANCH  14  23
HETATM   23  C11 UNL     1      21.303   4.207  47.115  1.00  0.00     0.087 C 
HETATM   24  C12 UNL     1      20.166   4.568  46.602  1.00  0.00     0.004 C 
HETATM   25  C13 UNL     1      20.101   4.720  45.316  1.00  0.00     0.007 C 
HETATM   26  C14 UNL     1      21.250   3.943  44.798  1.00  0.00     0.148 C 
HETATM   27  N3  UNL     1      21.941   3.571  46.015  1.00  0.00    -0.383 N 
HETATM   28  H11 UNL     1      22.779   2.945  46.145  1.00  0.00     0.160 HD
ENDBRANCH  14  23
BRANCH  15  29
HETATM   29  C15 UNL     1      22.563   6.588  48.454  1.00  0.00     0.037 A 
HETATM   30  C16 UNL     1      23.016   7.142  47.247  1.00  0.00     0.029 A 
HETATM   31  C17 UNL     1      22.765   8.451  46.919  1.00  0.00     0.002 A 
HETATM   32  C18 UNL     1      22.067   9.292  47.737  1.00  0.00     0.000 A 
HETATM   33  C19 UNL     1      21.620   8.734  48.933  1.00  0.00     0.002 A 
HETATM   34  C20 UNL     1      21.861   7.433  49.274  1.00  0.00     0.029 A 
ENDBRANCH  15  29
TORSDOF 2
ENDMDL
MODEL 5
REMARK VINA RESULT:      -8.0      4.564      8.071
REMARK  2 active torsions:
REMARK  status: ('A' for Active; 'I' for Inactive)
REMARK    1  A    between atoms: C10_14  and  C11_15 
REMARK    2  A    between atoms: N4_20  and  C15_21 
ROOT
HETATM    1  C1  UNL     1      22.867  -1.290  53.297  1.00  0.00     0.024 C 
HETATM    2  C2  UNL     1      22.680  -0.002  52.956  1.00  0.00    -0.027 A 
HETATM    3  C3  UNL     1      23.852   0.811  52.568  1.00  0.00     0.014 A 
HETATM    4  C4  UNL     1      23.271   1.998  52.313  1.00  0.00     0.042 A 
HETATM    5  C5  UNL     1      21.803   1.993  52.514  1.00  0.00     0.187 A 
HETATM    6  C6  UNL     1      21.456   0.788  52.899  1.00  0.00     0.086 A 
HETATM    7  C7  UNL     1      20.217   0.115  53.249  1.00  0.00     0.302 C 
HETATM    8  O1  UNL     1      20.106  -0.143  54.480  1.00  0.00    -0.259 OA
HETATM    9  O2  UNL     1      19.134  -0.306  52.532  1.00  0.00    -0.258 OA
HETATM   10  C8  UNL     1      18.015  -0.947  52.981  1.00  0.00     0.167 C 
HETATM   11  C9  UNL     1      18.188  -2.263  53.650  1.00  0.00     0.102 C 
HETATM   12  N1  UNL     1      16.781  -0.496  52.872  1.00  0.00    -0.127 NA
HETATM   13  N2  UNL     1      16.524   0.720  52.264  1.00  0.00    -0.127 NA
HETATM   14  C10 UNL     1      15.890   0.895  51.177  1.00  0.00     0.180 C 
HETATM   15  N4  UNL     1      16.022   2.341  51.121  1.00  0.00    -0.319 N 
HETATM   16  C21 UNL     1      17.322   2.663  50.690  1.00  0.00     0.204 C 
HETATM   17  S1  UNL     1      17.800   4.377  50.646  1.00  0.00    -0.144 SA
HETATM   18  C22 UNL     1      19.566   4.385  50.127  1.00  0.00     0.156 C 
HETATM   19  C23 UNL     1      20.398   3.718  51.163  1.00  0.00     0.366 A 
HETATM   20  O3  UNL     1      20.792   2.506  51.068  1.00  0.00    -0.145 OA
HETATM   21  N5  UNL     1      21.185   3.249  52.251  1.00  0.00     0.120 N 
HETATM   22  H21 UNL     1      21.349   3.973  53.018  1.00  0.00     0.329 HD
ENDROOT
BRANCH  14  23
HETATM   23  C11 UNL     1      15.180   0.282  50.076  1.00  0.00     0.087 C 
HETATM   24  C12 UNL     1      14.258  -0.623  50.209  1.00  0.00     0.004 C 
HETATM   25  C13 UNL     1      13.391  -0.752  49.253  1.00  0.00     0.007 C 
HETATM   26  C14 UNL     1      14.048  -0.133  48.079  1.00  0.00     0.148 C 
HETATM   27  N3  UNL     1      15.239   0.447  48.665  1.00  0.00    -0.383 N 
HETATM   28  H11 UNL     1      16.051   0.926  48.195  1.00  0.00     0.160 HD
ENDBRANCH  14  23
BRANCH  15  29
HETATM   29  C15 UNL     1      14.822   2.902  51.511  1.00  0.00     0.037 A 
HETATM   30  C16 UNL     1      14.798   3.422  52.813  1.00  0.00     0.029 A 
HETATM   31  C17 UNL     1      13.668   3.998  53.337  1.00  0.00     0.002 A 
HETATM   32  C18 UNL     1      12.504   4.102  52.631  1.00  0.00     0.000 A 
HETATM   33  C19 UNL     1      12.535   3.584  51.339  1.00  0.00     0.002 A 
HETATM   34  C20 UNL     1      13.652   3.008  50.803  1.00  0.00     0.029 A 
ENDBRANCH  15  29
TORSDOF 2
ENDMDL
MODEL 6
REMARK VINA RESULT:      -8.0      8.154     11.359
REMARK  2 active torsions:
REMARK  status: ('A' for Active; 'I' for Inactive)
REMARK    1  A    between atoms: C10_14  and  C11_15 
REMARK    2  A    between atoms: N4_20  and  C15_21 
ROOT
HETATM    1  C1  UNL     1      32.368   2.355  47.207  1.00  0.00     0.024 C 
HETATM    2  C2  UNL     1      33.117   3.427  46.892  1.00  0.00    -0.027 A 
HETATM    3  C3  UNL     1      34.436   3.214  46.259  1.00  0.00     0.014 A 
HETATM    4  C4  UNL     1      34.859   4.484  46.112  1.00  0.00     0.042 A 
HETATM    5  C5  UNL     1      33.894   5.491  46.610  1.00  0.00     0.187 A 
HETATM    6  C6  UNL     1      32.850   4.848  47.076  1.00  0.00     0.086 A 
HETATM    7  C7  UNL     1      31.581   5.210  47.684  1.00  0.00     0.302 C 
HETATM    8  O1  UNL     1      31.509   4.939  48.915  1.00  0.00    -0.259 OA
HETATM    9  O2  UNL     1      30.436   5.783  47.212  1.00  0.00    -0.258 OA
HETATM   10  C8  UNL     1      29.286   6.068  47.891  1.00  0.00     0.167 C 
HETATM   11  C9  UNL     1      28.557   4.941  48.530  1.00  0.00     0.102 C 
HETATM   12  N1  UNL     1      28.761   7.270  48.032  1.00  0.00    -0.127 NA
HETATM   13  N2  UNL     1      29.370   8.378  47.471  1.00  0.00    -0.127 NA
HETATM   14  C10 UNL     1      28.900   9.098  46.536  1.00  0.00     0.180 C 
HETATM   15  N4  UNL     1      30.023  10.015  46.431  1.00  0.00    -0.319 N 
HETATM   16  C21 UNL     1      31.068   9.377  45.738  1.00  0.00     0.204 C 
HETATM   17  S1  UNL     1      32.620  10.233  45.570  1.00  0.00    -0.144 SA
HETATM   18  C22 UNL     1      33.740   9.061  44.698  1.00  0.00     0.156 C 
HETATM   19  C23 UNL     1      33.980   7.867  45.551  1.00  0.00     0.366 A 
HETATM   20  O3  UNL     1      33.359   6.762  45.395  1.00  0.00    -0.145 OA
HETATM   21  N5  UNL     1      34.341   6.835  46.461  1.00  0.00     0.120 N 
HETATM   22  H21 UNL     1      35.092   7.115  47.167  1.00  0.00     0.329 HD
ENDROOT
BRANCH  14  23
HETATM   23  C11 UNL     1      27.810   9.328  45.614  1.00  0.00     0.087 C 
HETATM   24  C12 UNL     1      27.743   8.832  44.415  1.00  0.00     0.004 C 
HETATM   25  C13 UNL     1      26.571   8.704  43.876  1.00  0.00     0.007 C 
HETATM   26  C14 UNL     1      25.714   9.640  44.639  1.00  0.00     0.148 C 
HETATM   27  N3  UNL     1      26.601  10.071  45.700  1.00  0.00    -0.383 N 
HETATM   28  H11 UNL     1      26.447  10.800  46.446  1.00  0.00     0.160 HD
ENDBRANCH  14  23
BRANCH  15  29
HETATM   29  C15 UNL     1      29.676  11.199  47.052  1.00  0.00     0.037 A 
HETATM   30  C16 UNL     1      29.483  12.291  46.194  1.00  0.00     0.029 A 
HETATM   31  C17 UNL     1      29.146  13.531  46.675  1.00  0.00     0.002 A 
HETATM   32  C18 UNL     1      28.977  13.781  48.007  1.00  0.00     0.000 A 
HETATM   33  C19 UNL     1      29.170  12.691  48.852  1.00  0.00     0.002 A 
HETATM   34  C20 UNL     1      29.505  11.450  48.389  1.00  0.00     0.029 A 
ENDBRANCH  15  29
TORSDOF 2
ENDMDL
MODEL 7
REMARK VINA RESULT:      -7.8      2.332      5.407
REMARK  2 active torsions:
REMARK  status: ('A' for Active; 'I' for Inactive)
REMARK    1  A    between atoms: C10_14  and  C11_15 
REMARK    2  A    between atoms: N4_20  and  C15_21 
ROOT
HETATM    1  C1  UNL     1      16.557  -0.020  51.813  1.00  0.00     0.024 C 
HETATM    2  C2  UNL     1      17.806  -0.059  52.310  1.00  0.00    -0.027 A 
HETATM    3  C3  UNL     1      18.249  -1.271  53.032  1.00  0.00     0.014 A 
HETATM    4  C4  UNL     1      19.508  -0.928  53.364  1.00  0.00     0.042 A 
HETATM    5  C5  UNL     1      19.896   0.424  52.900  1.00  0.00     0.187 A 
HETATM    6  C6  UNL     1      18.868   0.939  52.267  1.00  0.00     0.086 A 
HETATM    7  C7  UNL     1      18.578   2.185  51.580  1.00  0.00     0.302 C 
HETATM    8  O1  UNL     1      17.769   2.933  52.198  1.00  0.00    -0.259 OA
HETATM    9  O2  UNL     1      18.988   2.733  50.399  1.00  0.00    -0.258 OA
HETATM   10  C8  UNL     1      18.630   3.929  49.847  1.00  0.00     0.167 C 
HETATM   11  C9  UNL     1      17.192   4.154  49.545  1.00  0.00     0.102 C 
HETATM   12  N1  UNL     1      19.458   4.914  49.554  1.00  0.00    -0.127 NA
HETATM   13  N2  UNL     1      20.814   4.793  49.800  1.00  0.00    -0.127 NA
HETATM   14  C10 UNL     1      21.733   4.756  48.923  1.00  0.00     0.180 C 
HETATM   15  N4  UNL     1      22.850   4.594  49.839  1.00  0.00    -0.319 N 
HETATM   16  C21 UNL     1      22.887   3.258  50.278  1.00  0.00     0.204 C 
HETATM   17  S1  UNL     1      24.090   2.804  51.510  1.00  0.00    -0.144 SA
HETATM   18  C22 UNL     1      23.771   1.030  51.883  1.00  0.00     0.156 C 
HETATM   19  C23 UNL     1      22.426   0.880  52.499  1.00  0.00     0.366 A 
HETATM   20  O3  UNL     1      21.395   0.512  51.841  1.00  0.00    -0.145 OA
HETATM   21  N5  UNL     1      21.225   0.793  53.255  1.00  0.00     0.120 N 
HETATM   22  H21 UNL     1      21.335   1.048  54.286  1.00  0.00     0.329 HD
ENDROOT
BRANCH  14  23
HETATM   23  C11 UNL     1      22.069   4.787  47.517  1.00  0.00     0.087 C 
HETATM   24  C12 UNL     1      22.065   3.748  46.737  1.00  0.00     0.004 C 
HETATM   25  C13 UNL     1      21.917   3.946  45.464  1.00  0.00     0.007 C 
HETATM   26  C14 UNL     1      22.295   5.364  45.268  1.00  0.00     0.148 C 
HETATM   27  N3  UNL     1      22.460   5.828  46.631  1.00  0.00    -0.383 N 
HETATM   28  H11 UNL     1      22.801   6.760  46.983  1.00  0.00     0.160 HD
ENDBRANCH  14  23
BRANCH  15  29
HETATM   29  C15 UNL     1      23.490   5.811  49.963  1.00  0.00     0.037 A 
HETATM   30  C16 UNL     1      24.802   5.852  49.468  1.00  0.00     0.029 A 
HETATM   31  C17 UNL     1      25.559   6.994  49.535  1.00  0.00     0.002 A 
HETATM   32  C18 UNL     1      25.092   8.154  50.083  1.00  0.00     0.000 A 
HETATM   33  C19 UNL     1      23.789   8.106  50.572  1.00  0.00     0.002 A 
HETATM   34  C20 UNL     1      23.021   6.977  50.512  1.00  0.00     0.029 A 
ENDBRANCH  15  29
TORSDOF 2
ENDMDL
MODEL 8
REMARK VINA RESULT:      -7.7      3.711      6.998
REMARK  2 active torsions:
REMARK  status: ('A' for Active; 'I' for Inactive)
REMARK    1  A    between atoms: C10_14  and  C11_15 
REMARK    2  A    between atoms: N4_20  and  C15_21 
ROOT
HETATM    1  C1  UNL     1      24.870   4.400  49.337  1.00  0.00     0.024 C 
HETATM    2  C2  UNL     1      24.668   3.396  50.209  1.00  0.00    -0.027 A 
HETATM    3  C3  UNL     1      25.718   3.096  51.206  1.00  0.00     0.014 A 
HETATM    4  C4  UNL     1      25.161   2.062  51.864  1.00  0.00     0.042 A 
HETATM    5  C5  UNL     1      23.824   1.684  51.350  1.00  0.00     0.187 A 
HETATM    6  C6  UNL     1      23.536   2.491  50.357  1.00  0.00     0.086 A 
HETATM    7  C7  UNL     1      22.420   2.672  49.445  1.00  0.00     0.302 C 
HETATM    8  O1  UNL     1      22.668   2.321  48.258  1.00  0.00    -0.259 OA
HETATM    9  O2  UNL     1      21.148   3.147  49.588  1.00  0.00    -0.258 OA
HETATM   10  C8  UNL     1      20.178   3.280  48.636  1.00  0.00     0.167 C 
HETATM   11  C9  UNL     1      20.462   4.159  47.471  1.00  0.00     0.102 C 
HETATM   12  N1  UNL     1      18.998   2.691  48.660  1.00  0.00    -0.127 NA
HETATM   13  N2  UNL     1      18.647   1.855  49.705  1.00  0.00    -0.127 NA
HETATM   14  C10 UNL     1      17.727   2.067  50.556  1.00  0.00     0.180 C 
HETATM   15  N4  UNL     1      17.925   0.859  51.341  1.00  0.00    -0.319 N 
HETATM   16  C21 UNL     1      19.053   1.032  52.163  1.00  0.00     0.204 C 
HETATM   17  S1  UNL     1      19.601  -0.345  53.150  1.00  0.00    -0.144 SA
HETATM   18  C22 UNL     1      21.126   0.234  54.003  1.00  0.00     0.156 C 
HETATM   19  C23 UNL     1      22.188   0.512  53.000  1.00  0.00     0.366 A 
HETATM   20  O3  UNL     1      22.459   1.688  52.581  1.00  0.00    -0.145 OA
HETATM   21  N5  UNL     1      23.235   0.587  52.040  1.00  0.00     0.120 N 
HETATM   22  H21 UNL     1      23.666  -0.357  51.787  1.00  0.00     0.329 HD
ENDROOT
BRANCH  14  23
HETATM   23  C11 UNL     1      16.682   2.955  51.016  1.00  0.00     0.087 C 
HETATM   24  C12 UNL     1      15.792   3.504  50.246  1.00  0.00     0.004 C 
HETATM   25  C13 UNL     1      14.671   3.874  50.782  1.00  0.00     0.007 C 
HETATM   26  C14 UNL     1      14.977   3.989  52.226  1.00  0.00     0.148 C 
HETATM   27  N3  UNL     1      16.322   3.455  52.297  1.00  0.00    -0.383 N 
HETATM   28  H11 UNL     1      16.980   3.407  53.118  1.00  0.00     0.160 HD
ENDBRANCH  14  23
BRANCH  15  29
HETATM   29  C15 UNL     1      16.935  -0.043  51.006  1.00  0.00     0.037 A 
HETATM   30  C16 UNL     1      16.241  -0.601  52.089  1.00  0.00     0.029 A 
HETATM   31  C17 UNL     1      15.240  -1.520  51.904  1.00  0.00     0.002 A 
HETATM   32  C18 UNL     1      14.856  -1.948  50.665  1.00  0.00     0.000 A 
HETATM   33  C19 UNL     1      15.549  -1.389  49.594  1.00  0.00     0.002 A 
HETATM   34  C20 UNL     1      16.548  -0.472  49.762  1.00  0.00     0.029 A 
ENDBRANCH  15  29
TORSDOF 2
ENDMDL
MODEL 9
REMARK VINA RESULT:      -7.4      4.489      7.394
REMARK  2 active torsions:
REMARK  status: ('A' for Active; 'I' for Inactive)
REMARK    1  A    between atoms: C10_14  and  C11_15 
REMARK    2  A    between atoms: N4_20  and  C15_21 
ROOT
HETATM    1  C1  UNL     1      23.560   5.063  51.899  1.00  0.00     0.024 C 
HETATM    2  C2  UNL     1      23.261   3.768  52.106  1.00  0.00    -0.027 A 
HETATM    3  C3  UNL     1      24.186   2.942  52.911  1.00  0.00     0.014 A 
HETATM    4  C4  UNL     1      23.559   1.751  52.884  1.00  0.00     0.042 A 
HETATM    5  C5  UNL     1      22.294   1.766  52.114  1.00  0.00     0.187 A 
HETATM    6  C6  UNL     1      22.122   2.981  51.651  1.00  0.00     0.086 A 
HETATM    7  C7  UNL     1      21.121   3.666  50.850  1.00  0.00     0.302 C 
HETATM    8  O1  UNL     1      21.510   3.955  49.684  1.00  0.00    -0.259 OA
HETATM    9  O2  UNL     1      19.840   4.074  51.084  1.00  0.00    -0.258 OA
HETATM   10  C8  UNL     1      18.989   4.729  50.240  1.00  0.00     0.167 C 
HETATM   11  C9  UNL     1      19.407   6.060  49.728  1.00  0.00     0.102 C 
HETATM   12  N1  UNL     1      17.817   4.279  49.836  1.00  0.00    -0.127 NA
HETATM   13  N2  UNL     1      17.347   3.049  50.262  1.00  0.00    -0.127 NA
HETATM   14  C10 UNL     1      16.332   2.851  51.000  1.00  0.00     0.180 C 
HETATM   15  N4  UNL     1      16.440   1.403  51.070  1.00  0.00    -0.319 N 
HETATM   16  C21 UNL     1      17.462   1.067  51.976  1.00  0.00     0.204 C 
HETATM   17  S1  UNL     1      17.894  -0.650  52.169  1.00  0.00    -0.144 SA
HETATM   18  C22 UNL     1      19.305  -0.676  53.350  1.00  0.00     0.156 C 
HETATM   19  C23 UNL     1      20.477   0.013  52.749  1.00  0.00     0.366 A 
HETATM   20  O3  UNL     1      20.792   1.221  53.022  1.00  0.00    -0.145 OA
HETATM   21  N5  UNL     1      21.630   0.506  52.078  1.00  0.00     0.120 N 
HETATM   22  H21 UNL     1      22.092  -0.200  51.423  1.00  0.00     0.329 HD
ENDROOT
BRANCH  14  23
HETATM   23  C11 UNL     1      15.237   3.439  51.739  1.00  0.00     0.087 C 
HETATM   24  C12 UNL     1      14.235   4.063  51.196  1.00  0.00     0.004 C 
HETATM   25  C13 UNL     1      13.126   4.126  51.865  1.00  0.00     0.007 C 
HETATM   26  C14 UNL     1      13.530   3.877  53.267  1.00  0.00     0.148 C 
HETATM   27  N3  UNL     1      14.926   3.517  53.124  1.00  0.00    -0.383 N 
HETATM   28  H11 UNL     1      15.648   3.328  53.868  1.00  0.00     0.160 HD
ENDBRANCH  14  23
BRANCH  15  29
HETATM   29  C15 UNL     1      15.500   0.856  50.219  1.00  0.00     0.037 A 
HETATM   30  C16 UNL     1      14.386   0.280  50.847  1.00  0.00     0.029 A 
HETATM   31  C17 UNL     1      13.380  -0.310  50.125  1.00  0.00     0.002 A 
HETATM   32  C18 UNL     1      13.396  -0.375  48.761  1.00  0.00     0.000 A 
HETATM   33  C19 UNL     1      14.505   0.200  48.145  1.00  0.00     0.002 A 
HETATM   34  C20 UNL     1      15.515   0.791  48.849  1.00  0.00     0.029 A 
ENDBRANCH  15  29
TORSDOF 2
ENDMDL
