MODEL 1
REMARK VINA RESULT:      -8.3      0.000      0.000
REMARK  2 active torsions:
REMARK  status: ('A' for Active; 'I' for Inactive)
REMARK    1  A    between atoms: C7_9  and  N2_10 
REMARK    2  A    between atoms: N2_10  and  C8_11 
ROOT
HETATM    1  C1  UNL     1      21.437   1.771  48.317  1.00  0.00     0.026 C 
HETATM    2  C2  UNL     1      21.205   0.984  49.347  1.00  0.00     0.134 C 
HETATM    3  O1  UNL     1      21.782   1.165  50.628  1.00  0.00    -0.363 OA
HETATM    4  C3  UNL     1      21.649   0.071  51.479  1.00  0.00     0.176 C 
HETATM    5  C4  UNL     1      21.906   0.265  52.912  1.00  0.00     0.046 C 
HETATM    6  C5  UNL     1      23.223   0.601  53.435  1.00  0.00     0.122 C 
HETATM    7  N1  UNL     1      23.929   1.772  53.048  1.00  0.00    -0.383 N 
HETATM    8  C6  UNL     1      24.624   2.346  51.964  1.00  0.00     0.128 A 
HETATM    9  C7  UNL     1      25.988   2.143  52.279  1.00  0.00     0.160 A 
HETATM   10  N3  UNL     1      27.079   2.491  51.547  1.00  0.00    -0.222 NA
HETATM   11  C14 UNL     1      26.787   3.115  50.363  1.00  0.00     0.238 A 
HETATM   12  N4  UNL     1      25.517   3.329  50.027  1.00  0.00    -0.215 NA
HETATM   13  C15 UNL     1      24.469   2.977  50.763  1.00  0.00     0.201 A 
HETATM   14  O2  UNL     1      23.216   3.283  50.259  1.00  0.00    -0.302 OA
HETATM   15  C16 UNL     1      23.125   3.747  48.956  1.00  0.00     0.144 C 
HETATM   16  C17 UNL     1      22.315   2.883  48.464  1.00  0.00     0.026 C 
HETATM   17  H9  UNL     1      24.004   2.525  53.802  1.00  0.00     0.159 HD
ENDROOT
BRANCH   9  18
HETATM   18  N2  UNL     1      26.494   1.554  53.505  1.00  0.00    -0.339 N 
HETATM   19  H10 UNL     1      26.376   1.967  54.452  1.00  0.00     0.167 HD
BRANCH  18  20
HETATM   20  C8  UNL     1      27.194   0.306  53.337  1.00  0.00     0.033 A 
HETATM   21  C9  UNL     1      28.508   0.224  53.694  1.00  0.00     0.029 A 
HETATM   22  C10 UNL     1      29.313  -0.916  53.581  1.00  0.00     0.002 A 
HETATM   23  C11 UNL     1      28.734  -2.050  53.063  1.00  0.00     0.000 A 
HETATM   24  C12 UNL     1      27.390  -1.994  52.689  1.00  0.00     0.002 A 
HETATM   25  C13 UNL     1      26.623  -0.832  52.821  1.00  0.00     0.029 A 
ENDBRANCH  18  20
ENDBRANCH   9  18
TORSDOF 2
ENDMDL
MODEL 2
REMARK VINA RESULT:      -7.8      2.081      2.441
REMARK  2 active torsions:
REMARK  status: ('A' for Active; 'I' for Inactive)
REMARK    1  A    between atoms: C7_9  and  N2_10 
REMARK    2  A    between atoms: N2_10  and  C8_11 
ROOT
HETATM    1  C1  UNL     1      19.430   3.189  51.263  1.00  0.00     0.026 C 
HETATM    2  C2  UNL     1      19.234   1.990  51.773  1.00  0.00     0.134 C 
HETATM    3  O1  UNL     1      20.165   1.324  52.610  1.00  0.00    -0.363 OA
HETATM    4  C3  UNL     1      19.906  -0.031  52.792  1.00  0.00     0.176 C 
HETATM    5  C4  UNL     1      20.593  -0.733  53.884  1.00  0.00     0.046 C 
HETATM    6  C5  UNL     1      22.036  -0.934  53.902  1.00  0.00     0.122 C 
HETATM    7  N1  UNL     1      22.963   0.143  53.876  1.00  0.00    -0.383 N 
HETATM    8  C6  UNL     1      23.488   1.139  53.028  1.00  0.00     0.128 A 
HETATM    9  C7  UNL     1      24.733   0.617  52.607  1.00  0.00     0.160 A 
HETATM   10  N3  UNL     1      25.634   1.177  51.757  1.00  0.00    -0.222 NA
HETATM   11  C14 UNL     1      25.260   2.400  51.267  1.00  0.00     0.238 A 
HETATM   12  N4  UNL     1      24.098   2.931  51.638  1.00  0.00    -0.215 NA
HETATM   13  C15 UNL     1      23.236   2.360  52.472  1.00  0.00     0.201 A 
HETATM   14  O2  UNL     1      22.073   3.060  52.751  1.00  0.00    -0.302 OA
HETATM   15  C16 UNL     1      21.794   4.196  52.008  1.00  0.00     0.144 C 
HETATM   16  C17 UNL     1      20.637   3.887  51.548  1.00  0.00     0.026 C 
HETATM   17  H9  UNL     1      23.492   0.306  54.790  1.00  0.00     0.159 HD
ENDROOT
BRANCH   9  18
HETATM   18  N2  UNL     1      25.323  -0.630  53.058  1.00  0.00    -0.339 N 
HETATM   19  H10 UNL     1      24.827  -1.544  53.084  1.00  0.00     0.167 HD
BRANCH  18  20
HETATM   20  C8  UNL     1      26.697  -0.536  53.479  1.00  0.00     0.033 A 
HETATM   21  C9  UNL     1      27.634  -1.333  52.889  1.00  0.00     0.029 A 
HETATM   22  C10 UNL     1      28.998  -1.356  53.201  1.00  0.00     0.002 A 
HETATM   23  C11 UNL     1      29.435  -0.505  54.188  1.00  0.00     0.000 A 
HETATM   24  C12 UNL     1      28.498   0.322  54.809  1.00  0.00     0.002 A 
HETATM   25  C13 UNL     1      27.143   0.311  54.465  1.00  0.00     0.029 A 
ENDBRANCH  18  20
ENDBRANCH   9  18
TORSDOF 2
ENDMDL
MODEL 3
REMARK VINA RESULT:      -7.7      2.091      4.138
REMARK  2 active torsions:
REMARK  status: ('A' for Active; 'I' for Inactive)
REMARK    1  A    between atoms: C7_9  and  N2_10 
REMARK    2  A    between atoms: N2_10  and  C8_11 
ROOT
HETATM    1  C1  UNL     1      19.485   0.265  53.395  1.00  0.00     0.026 C 
HETATM    2  C2  UNL     1      20.082   1.152  52.627  1.00  0.00     0.134 C 
HETATM    3  O1  UNL     1      21.433   1.056  52.209  1.00  0.00    -0.363 OA
HETATM    4  C3  UNL     1      21.949   2.228  51.662  1.00  0.00     0.176 C 
HETATM    5  C4  UNL     1      23.204   2.150  50.903  1.00  0.00     0.046 C 
HETATM    6  C5  UNL     1      24.475   1.795  51.521  1.00  0.00     0.122 C 
HETATM    7  N1  UNL     1      24.686   0.558  52.190  1.00  0.00    -0.383 N 
HETATM    8  C6  UNL     1      24.344  -0.145  53.362  1.00  0.00     0.128 A 
HETATM    9  C7  UNL     1      25.471   0.015  54.203  1.00  0.00     0.160 A 
HETATM   10  N3  UNL     1      25.647  -0.454  55.467  1.00  0.00    -0.222 NA
HETATM   11  C14 UNL     1      24.584  -1.165  55.958  1.00  0.00     0.238 A 
HETATM   12  N4  UNL     1      23.505  -1.342  55.200  1.00  0.00    -0.215 NA
HETATM   13  C15 UNL     1      23.360  -0.873  53.966  1.00  0.00     0.201 A 
HETATM   14  O2  UNL     1      22.167  -1.157  53.321  1.00  0.00    -0.302 OA
HETATM   15  C16 UNL     1      21.141  -1.731  54.056  1.00  0.00     0.144 C 
HETATM   16  C17 UNL     1      20.210  -0.873  53.851  1.00  0.00     0.026 C 
HETATM   17  H9  UNL     1      25.329  -0.126  51.681  1.00  0.00     0.159 HD
ENDROOT
BRANCH   9  18
HETATM   18  N2  UNL     1      26.707   0.684  53.843  1.00  0.00    -0.339 N 
HETATM   19  H10 UNL     1      26.811   1.712  53.728  1.00  0.00     0.167 HD
BRANCH  18  20
HETATM   20  C8  UNL     1      27.837  -0.188  53.651  1.00  0.00     0.033 A 
HETATM   21  C9  UNL     1      29.092   0.274  53.926  1.00  0.00     0.029 A 
HETATM   22  C10 UNL     1      30.278  -0.455  53.779  1.00  0.00     0.002 A 
HETATM   23  C11 UNL     1      30.175  -1.745  53.317  1.00  0.00     0.000 A 
HETATM   24  C12 UNL     1      28.903  -2.243  53.027  1.00  0.00     0.002 A 
HETATM   25  C13 UNL     1      27.744  -1.478  53.189  1.00  0.00     0.029 A 
ENDBRANCH  18  20
ENDBRANCH   9  18
TORSDOF 2
ENDMDL
MODEL 4
REMARK VINA RESULT:      -7.6      2.432      5.702
REMARK  2 active torsions:
REMARK  status: ('A' for Active; 'I' for Inactive)
REMARK    1  A    between atoms: C7_9  and  N2_10 
REMARK    2  A    between atoms: N2_10  and  C8_11 
ROOT
HETATM    1  C1  UNL     1      22.661  -0.807  54.096  1.00  0.00     0.026 C 
HETATM    2  C2  UNL     1      23.966  -0.799  54.274  1.00  0.00     0.134 C 
HETATM    3  O1  UNL     1      24.811   0.273  53.890  1.00  0.00    -0.363 OA
HETATM    4  C3  UNL     1      26.168  -0.038  53.889  1.00  0.00     0.176 C 
HETATM    5  C4  UNL     1      27.137   1.065  53.837  1.00  0.00     0.046 C 
HETATM    6  C5  UNL     1      27.265   1.942  52.681  1.00  0.00     0.122 C 
HETATM    7  N1  UNL     1      26.189   2.732  52.191  1.00  0.00    -0.383 N 
HETATM    8  C6  UNL     1      24.957   2.635  51.513  1.00  0.00     0.128 A 
HETATM    9  C7  UNL     1      25.265   2.991  50.179  1.00  0.00     0.160 A 
HETATM   10  N3  UNL     1      24.429   3.039  49.108  1.00  0.00    -0.222 NA
HETATM   11  C14 UNL     1      23.134   2.693  49.390  1.00  0.00     0.238 A 
HETATM   12  N4  UNL     1      22.798   2.353  50.632  1.00  0.00    -0.215 NA
HETATM   13  C15 UNL     1      23.638   2.316  51.660  1.00  0.00     0.201 A 
HETATM   14  O2  UNL     1      23.113   1.942  52.887  1.00  0.00    -0.302 OA
HETATM   15  C16 UNL     1      21.819   1.449  52.927  1.00  0.00     0.144 C 
HETATM   16  C17 UNL     1      22.027   0.312  53.485  1.00  0.00     0.026 C 
HETATM   17  H9  UNL     1      26.288   3.782  52.354  1.00  0.00     0.159 HD
ENDROOT
BRANCH   9  18
HETATM   18  N2  UNL     1      26.561   3.438  49.702  1.00  0.00    -0.339 N 
HETATM   19  H10 UNL     1      27.401   2.832  49.618  1.00  0.00     0.167 HD
BRANCH  18  20
HETATM   20  C8  UNL     1      26.624   4.827  49.323  1.00  0.00     0.033 A 
HETATM   21  C9  UNL     1      27.645   5.256  48.526  1.00  0.00     0.029 A 
HETATM   22  C10 UNL     1      27.838   6.572  48.088  1.00  0.00     0.002 A 
HETATM   23  C11 UNL     1      26.924   7.514  48.496  1.00  0.00     0.000 A 
HETATM   24  C12 UNL     1      25.870   7.102  49.313  1.00  0.00     0.002 A 
HETATM   25  C13 UNL     1      25.716   5.776  49.727  1.00  0.00     0.029 A 
ENDBRANCH  18  20
ENDBRANCH   9  18
TORSDOF 2
ENDMDL
MODEL 5
REMARK VINA RESULT:      -7.4      2.874      5.358
REMARK  2 active torsions:
REMARK  status: ('A' for Active; 'I' for Inactive)
REMARK    1  A    between atoms: C7_9  and  N2_10 
REMARK    2  A    between atoms: N2_10  and  C8_11 
ROOT
HETATM    1  C1  UNL     1      20.837  -1.216  54.491  1.00  0.00     0.026 C 
HETATM    2  C2  UNL     1      20.101  -0.797  53.482  1.00  0.00     0.134 C 
HETATM    3  O1  UNL     1      20.630  -0.210  52.306  1.00  0.00    -0.363 OA
HETATM    4  C3  UNL     1      19.686   0.429  51.507  1.00  0.00     0.176 C 
HETATM    5  C4  UNL     1      20.055   0.774  50.128  1.00  0.00     0.046 C 
HETATM    6  C5  UNL     1      21.087   1.753  49.814  1.00  0.00     0.122 C 
HETATM    7  N1  UNL     1      22.434   1.618  50.247  1.00  0.00    -0.383 N 
HETATM    8  C6  UNL     1      23.244   1.687  51.398  1.00  0.00     0.128 A 
HETATM    9  C7  UNL     1      23.843   2.966  51.326  1.00  0.00     0.160 A 
HETATM   10  N3  UNL     1      24.702   3.542  52.209  1.00  0.00    -0.222 NA
HETATM   11  C14 UNL     1      25.005   2.759  53.291  1.00  0.00     0.238 A 
HETATM   12  N4  UNL     1      24.466   1.547  53.399  1.00  0.00    -0.215 NA
HETATM   13  C15 UNL     1      23.629   1.009  52.520  1.00  0.00     0.201 A 
HETATM   14  O2  UNL     1      23.168  -0.269  52.791  1.00  0.00    -0.302 OA
HETATM   15  C16 UNL     1      23.443  -0.819  54.033  1.00  0.00     0.144 C 
HETATM   16  C17 UNL     1      22.253  -1.087  54.430  1.00  0.00     0.026 C 
HETATM   17  H9  UNL     1      23.136   1.392  49.475  1.00  0.00     0.159 HD
ENDROOT
BRANCH   9  18
HETATM   18  N2  UNL     1      23.690   3.911  50.236  1.00  0.00    -0.339 N 
HETATM   19  H10 UNL     1      22.777   4.228  49.852  1.00  0.00     0.167 HD
BRANCH  18  20
HETATM   20  C8  UNL     1      24.923   4.418  49.691  1.00  0.00     0.033 A 
HETATM   21  C9  UNL     1      24.991   5.720  49.288  1.00  0.00     0.029 A 
HETATM   22  C10 UNL     1      26.115   6.344  48.735  1.00  0.00     0.002 A 
HETATM   23  C11 UNL     1      27.249   5.582  48.581  1.00  0.00     0.000 A 
HETATM   24  C12 UNL     1      27.208   4.247  48.985  1.00  0.00     0.002 A 
HETATM   25  C13 UNL     1      26.061   3.664  49.533  1.00  0.00     0.029 A 
ENDBRANCH  18  20
ENDBRANCH   9  18
TORSDOF 2
ENDMDL
MODEL 6
REMARK VINA RESULT:      -7.4      3.283      5.643
REMARK  2 active torsions:
REMARK  status: ('A' for Active; 'I' for Inactive)
REMARK    1  A    between atoms: C7_9  and  N2_10 
REMARK    2  A    between atoms: N2_10  and  C8_11 
ROOT
HETATM    1  C1  UNL     1      20.335   0.446  51.248  1.00  0.00     0.026 C 
HETATM    2  C2  UNL     1      21.586   0.289  51.629  1.00  0.00     0.134 C 
HETATM    3  O1  UNL     1      22.355   1.301  52.256  1.00  0.00    -0.363 OA
HETATM    4  C3  UNL     1      23.721   1.038  52.304  1.00  0.00     0.176 C 
HETATM    5  C4  UNL     1      24.556   1.840  53.208  1.00  0.00     0.046 C 
HETATM    6  C5  UNL     1      24.766   3.269  53.022  1.00  0.00     0.122 C 
HETATM    7  N1  UNL     1      23.700   4.209  53.011  1.00  0.00    -0.383 N 
HETATM    8  C6  UNL     1      22.610   4.646  52.232  1.00  0.00     0.128 A 
HETATM    9  C7  UNL     1      23.084   5.818  51.598  1.00  0.00     0.160 A 
HETATM   10  N3  UNL     1      22.429   6.620  50.717  1.00  0.00    -0.222 NA
HETATM   11  C14 UNL     1      21.152   6.214  50.429  1.00  0.00     0.238 A 
HETATM   12  N4  UNL     1      20.664   5.118  51.004  1.00  0.00    -0.215 NA
HETATM   13  C15 UNL     1      21.328   4.353  51.863  1.00  0.00     0.201 A 
HETATM   14  O2  UNL     1      20.661   3.249  52.368  1.00  0.00    -0.302 OA
HETATM   15  C16 UNL     1      19.440   2.905  51.809  1.00  0.00     0.144 C 
HETATM   16  C17 UNL     1      19.684   1.694  51.463  1.00  0.00     0.026 C 
HETATM   17  H9  UNL     1      23.653   4.849  53.865  1.00  0.00     0.159 HD
ENDROOT
BRANCH   9  18
HETATM   18  N2  UNL     1      24.380   6.433  51.817  1.00  0.00    -0.339 N 
HETATM   19  H10 UNL     1      24.705   6.819  52.726  1.00  0.00     0.167 HD
BRANCH  18  20
HETATM   20  C8  UNL     1      25.237   6.476  50.660  1.00  0.00     0.033 A 
HETATM   21  C9  UNL     1      25.565   5.313  50.027  1.00  0.00     0.029 A 
HETATM   22  C10 UNL     1      26.390   5.202  48.902  1.00  0.00     0.002 A 
HETATM   23  C11 UNL     1      26.920   6.362  48.390  1.00  0.00     0.000 A 
HETATM   24  C12 UNL     1      26.601   7.567  49.019  1.00  0.00     0.002 A 
HETATM   25  C13 UNL     1      25.771   7.631  50.142  1.00  0.00     0.029 A 
ENDBRANCH  18  20
ENDBRANCH   9  18
TORSDOF 2
ENDMDL
MODEL 7
REMARK VINA RESULT:      -7.4      1.876      3.570
REMARK  2 active torsions:
REMARK  status: ('A' for Active; 'I' for Inactive)
REMARK    1  A    between atoms: C7_9  and  N2_10 
REMARK    2  A    between atoms: N2_10  and  C8_11 
ROOT
HETATM    1  C1  UNL     1      18.947   2.548  51.661  1.00  0.00     0.026 C 
HETATM    2  C2  UNL     1      19.861   3.487  51.533  1.00  0.00     0.134 C 
HETATM    3  O1  UNL     1      21.247   3.229  51.391  1.00  0.00    -0.363 OA
HETATM    4  C3  UNL     1      22.061   4.344  51.572  1.00  0.00     0.176 C 
HETATM    5  C4  UNL     1      23.459   4.269  51.126  1.00  0.00     0.046 C 
HETATM    6  C5  UNL     1      24.430   3.373  51.738  1.00  0.00     0.122 C 
HETATM    7  N1  UNL     1      24.261   1.962  51.773  1.00  0.00    -0.383 N 
HETATM    8  C6  UNL     1      23.497   0.948  52.386  1.00  0.00     0.128 A 
HETATM    9  C7  UNL     1      24.340   0.445  53.404  1.00  0.00     0.160 A 
HETATM   10  N3  UNL     1      24.073  -0.537  54.306  1.00  0.00    -0.222 NA
HETATM   11  C14 UNL     1      22.824  -1.086  54.186  1.00  0.00     0.238 A 
HETATM   12  N4  UNL     1      21.998  -0.645  53.240  1.00  0.00    -0.215 NA
HETATM   13  C15 UNL     1      22.286   0.317  52.371  1.00  0.00     0.201 A 
HETATM   14  O2  UNL     1      21.305   0.647  51.450  1.00  0.00    -0.302 OA
HETATM   15  C16 UNL     1      20.040   0.105  51.613  1.00  0.00     0.144 C 
HETATM   16  C17 UNL     1      19.339   1.179  51.659  1.00  0.00     0.026 C 
HETATM   17  H9  UNL     1      24.920   1.412  51.139  1.00  0.00     0.159 HD
ENDROOT
BRANCH   9  18
HETATM   18  N2  UNL     1      25.709   0.858  53.649  1.00  0.00    -0.339 N 
HETATM   19  H10 UNL     1      25.993   1.807  53.965  1.00  0.00     0.167 HD
BRANCH  18  20
HETATM   20  C8  UNL     1      26.702  -0.162  53.430  1.00  0.00     0.033 A 
HETATM   21  C9  UNL     1      27.958   0.009  53.933  1.00  0.00     0.029 A 
HETATM   22  C10 UNL     1      29.022  -0.891  53.792  1.00  0.00     0.002 A 
HETATM   23  C11 UNL     1      28.784  -2.045  53.085  1.00  0.00     0.000 A 
HETATM   24  C12 UNL     1      27.506  -2.246  52.559  1.00  0.00     0.002 A 
HETATM   25  C13 UNL     1      26.473  -1.319  52.725  1.00  0.00     0.029 A 
ENDBRANCH  18  20
ENDBRANCH   9  18
TORSDOF 2
ENDMDL
MODEL 8
REMARK VINA RESULT:      -7.0      2.430      3.220
REMARK  2 active torsions:
REMARK  status: ('A' for Active; 'I' for Inactive)
REMARK    1  A    between atoms: C7_9  and  N2_10 
REMARK    2  A    between atoms: N2_10  and  C8_11 
ROOT
HETATM    1  C1  UNL     1      21.758   7.542  49.605  1.00  0.00     0.026 C 
HETATM    2  C2  UNL     1      20.997   6.599  50.120  1.00  0.00     0.134 C 
HETATM    3  O1  UNL     1      21.475   5.575  50.977  1.00  0.00    -0.363 OA
HETATM    4  C3  UNL     1      20.585   4.521  51.165  1.00  0.00     0.176 C 
HETATM    5  C4  UNL     1      20.830   3.589  52.273  1.00  0.00     0.046 C 
HETATM    6  C5  UNL     1      21.991   2.710  52.316  1.00  0.00     0.122 C 
HETATM    7  N1  UNL     1      23.327   3.196  52.297  1.00  0.00    -0.383 N 
HETATM    8  C6  UNL     1      24.280   3.797  51.451  1.00  0.00     0.128 A 
HETATM    9  C7  UNL     1      25.115   2.728  51.054  1.00  0.00     0.160 A 
HETATM   10  N3  UNL     1      26.185   2.764  50.215  1.00  0.00    -0.222 NA
HETATM   11  C14 UNL     1      26.461   4.007  49.710  1.00  0.00     0.238 A 
HETATM   12  N4  UNL     1      25.702   5.044  50.058  1.00  0.00    -0.215 NA
HETATM   13  C15 UNL     1      24.662   4.978  50.882  1.00  0.00     0.201 A 
HETATM   14  O2  UNL     1      23.987   6.160  51.137  1.00  0.00    -0.302 OA
HETATM   15  C16 UNL     1      24.306   7.278  50.382  1.00  0.00     0.144 C 
HETATM   16  C17 UNL     1      23.150   7.566  49.905  1.00  0.00     0.026 C 
HETATM   17  H9  UNL     1      23.858   3.094  53.218  1.00  0.00     0.159 HD
ENDROOT
BRANCH   9  18
HETATM   18  N2  UNL     1      25.017   1.358  51.523  1.00  0.00    -0.339 N 
HETATM   19  H10 UNL     1      24.237   0.709  51.295  1.00  0.00     0.167 HD
BRANCH  18  20
HETATM   20  C8  UNL     1      26.108   0.919  52.355  1.00  0.00     0.033 A 
HETATM   21  C9  UNL     1      26.610  -0.338  52.190  1.00  0.00     0.029 A 
HETATM   22  C10 UNL     1      27.659  -0.900  52.929  1.00  0.00     0.002 A 
HETATM   23  C11 UNL     1      28.232  -0.122  53.906  1.00  0.00     0.000 A 
HETATM   24  C12 UNL     1      27.737   1.169  54.096  1.00  0.00     0.002 A 
HETATM   25  C13 UNL     1      26.687   1.690  53.334  1.00  0.00     0.029 A 
ENDBRANCH  18  20
ENDBRANCH   9  18
TORSDOF 2
ENDMDL
MODEL 9
REMARK VINA RESULT:      -7.0      1.492      3.568
REMARK  2 active torsions:
REMARK  status: ('A' for Active; 'I' for Inactive)
REMARK    1  A    between atoms: C7_9  and  N2_10 
REMARK    2  A    between atoms: N2_10  and  C8_11 
ROOT
HETATM    1  C1  UNL     1      20.583   3.709  47.945  1.00  0.00     0.026 C 
HETATM    2  C2  UNL     1      21.544   4.610  47.965  1.00  0.00     0.134 C 
HETATM    3  O1  UNL     1      22.845   4.369  48.472  1.00  0.00    -0.363 OA
HETATM    4  C3  UNL     1      23.604   5.518  48.677  1.00  0.00     0.176 C 
HETATM    5  C4  UNL     1      25.052   5.373  48.876  1.00  0.00     0.046 C 
HETATM    6  C5  UNL     1      25.622   4.704  50.038  1.00  0.00     0.122 C 
HETATM    7  N1  UNL     1      25.340   3.349  50.361  1.00  0.00    -0.383 N 
HETATM    8  C6  UNL     1      24.316   2.510  50.846  1.00  0.00     0.128 A 
HETATM    9  C7  UNL     1      24.637   2.324  52.211  1.00  0.00     0.160 A 
HETATM   10  N3  UNL     1      23.953   1.610  53.144  1.00  0.00    -0.222 NA
HETATM   11  C14 UNL     1      22.817   1.008  52.670  1.00  0.00     0.238 A 
HETATM   12  N4  UNL     1      22.478   1.154  51.392  1.00  0.00    -0.215 NA
HETATM   13  C15 UNL     1      23.167   1.858  50.501  1.00  0.00     0.201 A 
HETATM   14  O2  UNL     1      22.668   1.899  49.209  1.00  0.00    -0.302 OA
HETATM   15  C16 UNL     1      21.405   1.379  48.975  1.00  0.00     0.144 C 
HETATM   16  C17 UNL     1      20.833   2.403  48.455  1.00  0.00     0.026 C 
HETATM   17  H9  UNL     1      26.153   2.671  50.215  1.00  0.00     0.159 HD
ENDROOT
BRANCH   9  18
HETATM   18  N2  UNL     1      25.821   2.832  52.878  1.00  0.00    -0.339 N 
HETATM   19  H10 UNL     1      25.942   3.813  53.202  1.00  0.00     0.167 HD
BRANCH  18  20
HETATM   20  C8  UNL     1      26.867   1.863  53.086  1.00  0.00     0.033 A 
HETATM   21  C9  UNL     1      26.659   0.567  52.716  1.00  0.00     0.029 A 
HETATM   22  C10 UNL     1      27.577  -0.480  52.864  1.00  0.00     0.002 A 
HETATM   23  C11 UNL     1      28.792  -0.179  53.433  1.00  0.00     0.000 A 
HETATM   24  C12 UNL     1      29.031   1.140  53.821  1.00  0.00     0.002 A 
HETATM   25  C13 UNL     1      28.083   2.155  53.653  1.00  0.00     0.029 A 
ENDBRANCH  18  20
ENDBRANCH   9  18
TORSDOF 2
ENDMDL
