MODEL 1
REMARK VINA RESULT:      -7.6      0.000      0.000
REMARK  7 active torsions:
REMARK  status: ('A' for Active; 'I' for Inactive)
REMARK    1  A    between atoms: C2_2  and  C3_3 
REMARK       I    between atoms: C3_3  and  N1_5 
REMARK    2  A    between atoms: N1_5  and  C4_6 
REMARK    3  A    between atoms: C9_13  and  N3_14 
REMARK    4  A    between atoms: N3_14  and  C10_15 
REMARK    5  A    between atoms: N4_18  and  O2_19 
REMARK    6  A    between atoms: O2_19  and  C13_20 
REMARK    7  A    between atoms: C13_20  and  C14_21 
ROOT
HETATM    1  C4  UNL     1      25.791   3.587  49.917  1.00  0.00     0.051 A 
HETATM    2  C5  UNL     1      26.453   4.656  49.336  1.00  0.00     0.035 A 
HETATM    3  C6  UNL     1      25.153   4.906  49.403  1.00  0.00     0.015 A 
HETATM    4  C7  UNL     1      23.762   4.681  49.696  1.00  0.00     0.062 A 
HETATM    5  P1  UNL     1      22.943   5.926  50.756  1.00  0.00    -0.077 P 
HETATM    6  C8  UNL     1      22.151   4.938  52.118  1.00  0.00     0.122 A 
HETATM    7  N2  UNL     1      22.229   3.665  52.311  1.00  0.00    -0.243 NA
HETATM    8  C9  UNL     1      22.983   2.876  51.405  1.00  0.00     0.131 A 
HETATM    9  C21 UNL     1      23.599   3.335  50.356  1.00  0.00    -0.022 A 
HETATM   10  C22 UNL     1      24.598   2.737  49.383  1.00  0.00     0.071 C 
HETATM   11  H9  UNL     1      21.884   6.608  50.031  1.00  0.00     0.064 HD
ENDROOT
BRANCH   8  12
HETATM   12  N3  UNL     1      23.104   1.460  51.618  1.00  0.00    -0.341 N 
HETATM   13  H11 UNL     1      23.886   0.792  51.727  1.00  0.00     0.167 HD
BRANCH  12  14
HETATM   14  C10 UNL     1      21.740   1.001  51.669  1.00  0.00     0.032 A 
HETATM   15  C11 UNL     1      20.851   1.044  50.676  1.00  0.00     0.025 A 
HETATM   16  C12 UNL     1      19.444   0.571  50.728  1.00  0.00     0.184 A 
HETATM   17  N4  UNL     1      19.121   0.028  52.042  1.00  0.00    -0.266 N 
HETATM   18  C19 UNL     1      20.045  -0.039  53.140  1.00  0.00     0.119 A 
HETATM   19  C20 UNL     1      21.267   0.425  52.936  1.00  0.00     0.048 A 
BRANCH  17  20
HETATM   20  O2  UNL     1      17.879  -0.450  52.272  1.00  0.00    -0.274 OA
BRANCH  20  21
HETATM   21  C13 UNL     1      17.936  -1.261  53.402  1.00  0.00     0.241 C 
BRANCH  21  22
HETATM   22  C14 UNL     1      17.031  -2.431  53.125  1.00  0.00    -0.015 A 
HETATM   23  C15 UNL     1      17.318  -3.696  53.595  1.00  0.00     0.012 A 
HETATM   24  C16 UNL     1      16.410  -4.695  53.277  1.00  0.00     0.020 A 
HETATM   25  C17 UNL     1      15.274  -4.421  52.523  1.00  0.00     0.116 A 
HETATM   26  N5  UNL     1      15.017  -3.168  52.074  1.00  0.00    -0.272 NA
HETATM   27  C18 UNL     1      15.879  -2.192  52.370  1.00  0.00     0.125 A 
ENDBRANCH  21  22
ENDBRANCH  20  21
ENDBRANCH  17  20
ENDBRANCH  12  14
ENDBRANCH   8  12
BRANCH   1  28
HETATM   28  N1  UNL     1      25.771   3.617  51.433  1.00  0.00    -0.350 N 
HETATM   29  C3  UNL     1      26.564   2.544  51.870  1.00  0.00     0.217 C 
HETATM   30  O1  UNL     1      27.174   1.714  51.123  1.00  0.00    -0.274 OA
HETATM   31  H6  UNL     1      25.398   4.125  52.282  1.00  0.00     0.163 HD
BRANCH  29  32
HETATM   32  C2  UNL     1      26.860   2.146  53.276  1.00  0.00     0.098 C 
HETATM   33  C1  UNL     1      28.356   2.295  53.480  1.00  0.00     0.014 C 
ENDBRANCH  29  32
ENDBRANCH   1  28
TORSDOF 7
ENDMDL
MODEL 2
REMARK VINA RESULT:      -7.6      4.134     10.314
REMARK  7 active torsions:
REMARK  status: ('A' for Active; 'I' for Inactive)
REMARK    1  A    between atoms: C2_2  and  C3_3 
REMARK       I    between atoms: C3_3  and  N1_5 
REMARK    2  A    between atoms: N1_5  and  C4_6 
REMARK    3  A    between atoms: C9_13  and  N3_14 
REMARK    4  A    between atoms: N3_14  and  C10_15 
REMARK    5  A    between atoms: N4_18  and  O2_19 
REMARK    6  A    between atoms: O2_19  and  C13_20 
REMARK    7  A    between atoms: C13_20  and  C14_21 
ROOT
HETATM    1  C4  UNL     1      22.794   0.943  52.520  1.00  0.00     0.051 A 
HETATM    2  C5  UNL     1      22.215  -0.313  52.600  1.00  0.00     0.035 A 
HETATM    3  C6  UNL     1      21.607   0.411  51.670  1.00  0.00     0.015 A 
HETATM    4  C7  UNL     1      21.321   1.551  50.840  1.00  0.00     0.062 A 
HETATM    5  P1  UNL     1      21.373   1.274  49.033  1.00  0.00    -0.077 P 
HETATM    6  C8  UNL     1      22.506   2.599  48.386  1.00  0.00     0.122 A 
HETATM    7  N2  UNL     1      23.168   3.470  49.070  1.00  0.00    -0.243 NA
HETATM    8  C9  UNL     1      23.046   3.471  50.484  1.00  0.00     0.131 A 
HETATM    9  C21 UNL     1      22.286   2.664  51.164  1.00  0.00    -0.022 A 
HETATM   10  C22 UNL     1      22.146   2.355  52.642  1.00  0.00     0.071 C 
HETATM   11  H9  UNL     1      20.063   1.484  48.439  1.00  0.00     0.064 HD
ENDROOT
BRANCH   8  12
HETATM   12  N3  UNL     1      23.794   4.415  51.266  1.00  0.00    -0.341 N 
HETATM   13  H11 UNL     1      23.696   4.846  52.201  1.00  0.00     0.167 HD
BRANCH  12  14
HETATM   14  C10 UNL     1      24.913   4.750  50.423  1.00  0.00     0.032 A 
HETATM   15  C11 UNL     1      25.882   3.925  50.026  1.00  0.00     0.025 A 
HETATM   16  C12 UNL     1      27.037   4.269  49.157  1.00  0.00     0.184 A 
HETATM   17  N4  UNL     1      26.998   5.674  48.765  1.00  0.00    -0.266 N 
HETATM   18  C19 UNL     1      25.975   6.598  49.168  1.00  0.00     0.119 A 
HETATM   19  C20 UNL     1      25.010   6.138  49.946  1.00  0.00     0.048 A 
BRANCH  17  20
HETATM   20  O2  UNL     1      27.974   6.165  47.972  1.00  0.00    -0.274 OA
BRANCH  20  21
HETATM   21  C13 UNL     1      29.110   5.382  48.157  1.00  0.00     0.241 C 
BRANCH  21  22
HETATM   22  C14 UNL     1      30.221   6.332  48.516  1.00  0.00    -0.015 A 
HETATM   23  C15 UNL     1      30.017   7.695  48.579  1.00  0.00     0.012 A 
HETATM   24  C16 UNL     1      31.115   8.470  48.920  1.00  0.00     0.020 A 
HETATM   25  C17 UNL     1      32.351   7.890  49.183  1.00  0.00     0.116 A 
HETATM   26  N5  UNL     1      32.523   6.547  49.114  1.00  0.00    -0.272 NA
HETATM   27  C18 UNL     1      31.477   5.783  48.787  1.00  0.00     0.125 A 
ENDBRANCH  21  22
ENDBRANCH  20  21
ENDBRANCH  17  20
ENDBRANCH  12  14
ENDBRANCH   8  12
BRANCH   1  28
HETATM   28  N1  UNL     1      24.017   1.007  51.626  1.00  0.00    -0.350 N 
HETATM   29  C3  UNL     1      25.131   0.756  52.445  1.00  0.00     0.217 C 
HETATM   30  O1  UNL     1      25.100   0.524  53.695  1.00  0.00    -0.274 OA
HETATM   31  H6  UNL     1      24.358   1.164  50.637  1.00  0.00     0.163 HD
BRANCH  29  32
HETATM   32  C2  UNL     1      26.565   0.711  52.040  1.00  0.00     0.098 C 
HETATM   33  C1  UNL     1      27.130  -0.607  52.534  1.00  0.00     0.014 C 
ENDBRANCH  29  32
ENDBRANCH   1  28
TORSDOF 7
ENDMDL
MODEL 3
REMARK VINA RESULT:      -7.4      5.891      7.883
REMARK  7 active torsions:
REMARK  status: ('A' for Active; 'I' for Inactive)
REMARK    1  A    between atoms: C2_2  and  C3_3 
REMARK       I    between atoms: C3_3  and  N1_5 
REMARK    2  A    between atoms: N1_5  and  C4_6 
REMARK    3  A    between atoms: C9_13  and  N3_14 
REMARK    4  A    between atoms: N3_14  and  C10_15 
REMARK    5  A    between atoms: N4_18  and  O2_19 
REMARK    6  A    between atoms: O2_19  and  C13_20 
REMARK    7  A    between atoms: C13_20  and  C14_21 
ROOT
HETATM    1  C4  UNL     1      22.199   7.135  49.624  1.00  0.00     0.051 A 
HETATM    2  C5  UNL     1      21.856   8.476  49.564  1.00  0.00     0.035 A 
HETATM    3  C6  UNL     1      23.123   8.346  49.932  1.00  0.00     0.015 A 
HETATM    4  C7  UNL     1      24.353   7.682  50.277  1.00  0.00     0.062 A 
HETATM    5  P1  UNL     1      25.828   8.145  49.299  1.00  0.00    -0.077 P 
HETATM    6  C8  UNL     1      26.523   6.527  48.701  1.00  0.00     0.122 A 
HETATM    7  N2  UNL     1      26.029   5.347  48.875  1.00  0.00    -0.243 NA
HETATM    8  C9  UNL     1      24.824   5.208  49.610  1.00  0.00     0.131 A 
HETATM    9  C21 UNL     1      24.170   6.190  50.157  1.00  0.00    -0.022 A 
HETATM   10  C22 UNL     1      22.800   6.306  50.799  1.00  0.00     0.071 C 
HETATM   11  H9  UNL     1      26.831   8.773  50.141  1.00  0.00     0.064 HD
ENDROOT
BRANCH   8  12
HETATM   12  N3  UNL     1      24.243   3.907  49.792  1.00  0.00    -0.341 N 
HETATM   13  H11 UNL     1      23.485   3.364  49.344  1.00  0.00     0.167 HD
BRANCH  12  14
HETATM   14  C10 UNL     1      24.992   3.345  50.887  1.00  0.00     0.032 A 
HETATM   15  C11 UNL     1      26.249   2.903  50.843  1.00  0.00     0.025 A 
HETATM   16  C12 UNL     1      27.023   2.323  51.972  1.00  0.00     0.184 A 
HETATM   17  N4  UNL     1      26.224   2.287  53.192  1.00  0.00    -0.266 N 
HETATM   18  C19 UNL     1      24.868   2.753  53.285  1.00  0.00     0.119 A 
HETATM   19  C20 UNL     1      24.316   3.244  52.189  1.00  0.00     0.048 A 
BRANCH  17  20
HETATM   20  O2  UNL     1      26.768   1.790  54.323  1.00  0.00    -0.274 OA
BRANCH  20  21
HETATM   21  C13 UNL     1      26.274   0.501  54.503  1.00  0.00     0.241 C 
BRANCH  21  22
HETATM   22  C14 UNL     1      27.360  -0.433  54.040  1.00  0.00    -0.015 A 
HETATM   23  C15 UNL     1      28.691  -0.185  54.306  1.00  0.00     0.012 A 
HETATM   24  C16 UNL     1      29.601  -1.116  53.829  1.00  0.00     0.020 A 
HETATM   25  C17 UNL     1      29.179  -2.237  53.122  1.00  0.00     0.116 A 
HETATM   26  N5  UNL     1      27.864  -2.456  52.875  1.00  0.00    -0.272 NA
HETATM   27  C18 UNL     1      26.972  -1.570  53.327  1.00  0.00     0.125 A 
ENDBRANCH  21  22
ENDBRANCH  20  21
ENDBRANCH  17  20
ENDBRANCH  12  14
ENDBRANCH   8  12
BRANCH   1  28
HETATM   28  N1  UNL     1      22.630   6.544  48.296  1.00  0.00    -0.350 N 
HETATM   29  C3  UNL     1      21.561   5.759  47.836  1.00  0.00     0.217 C 
HETATM   30  O1  UNL     1      20.451   5.586  48.433  1.00  0.00    -0.274 OA
HETATM   31  H6  UNL     1      23.413   6.492  47.586  1.00  0.00     0.163 HD
BRANCH  29  32
HETATM   32  C2  UNL     1      21.491   4.968  46.574  1.00  0.00     0.098 C 
HETATM   33  C1  UNL     1      22.289   5.720  45.526  1.00  0.00     0.014 C 
ENDBRANCH  29  32
ENDBRANCH   1  28
TORSDOF 7
ENDMDL
MODEL 4
REMARK VINA RESULT:      -7.3      4.580     10.706
REMARK  7 active torsions:
REMARK  status: ('A' for Active; 'I' for Inactive)
REMARK    1  A    between atoms: C2_2  and  C3_3 
REMARK       I    between atoms: C3_3  and  N1_5 
REMARK    2  A    between atoms: N1_5  and  C4_6 
REMARK    3  A    between atoms: C9_13  and  N3_14 
REMARK    4  A    between atoms: N3_14  and  C10_15 
REMARK    5  A    between atoms: N4_18  and  O2_19 
REMARK    6  A    between atoms: O2_19  and  C13_20 
REMARK    7  A    between atoms: C13_20  and  C14_21 
ROOT
HETATM    1  C4  UNL     1      23.600   1.670  52.974  1.00  0.00     0.051 A 
HETATM    2  C5  UNL     1      22.579   0.862  53.448  1.00  0.00     0.035 A 
HETATM    3  C6  UNL     1      22.130   1.641  52.474  1.00  0.00     0.015 A 
HETATM    4  C7  UNL     1      22.162   2.646  51.443  1.00  0.00     0.062 A 
HETATM    5  P1  UNL     1      21.639   2.114  49.773  1.00  0.00    -0.077 P 
HETATM    6  C8  UNL     1      23.030   2.637  48.655  1.00  0.00     0.122 A 
HETATM    7  N2  UNL     1      24.147   3.184  48.995  1.00  0.00    -0.243 NA
HETATM    8  C9  UNL     1      24.394   3.451  50.366  1.00  0.00     0.131 A 
HETATM    9  C21 UNL     1      23.557   3.207  51.332  1.00  0.00    -0.022 A 
HETATM   10  C22 UNL     1      23.672   3.222  52.845  1.00  0.00     0.071 C 
HETATM   11  H9  UNL     1      20.443   2.825  49.354  1.00  0.00     0.064 HD
ENDROOT
BRANCH   8  12
HETATM   12  N3  UNL     1      25.643   4.035  50.769  1.00  0.00    -0.341 N 
HETATM   13  H11 UNL     1      26.429   3.755  51.380  1.00  0.00     0.167 HD
BRANCH  12  14
HETATM   14  C10 UNL     1      25.668   5.302  50.085  1.00  0.00     0.032 A 
HETATM   15  C11 UNL     1      24.898   6.359  50.346  1.00  0.00     0.025 A 
HETATM   16  C12 UNL     1      24.923   7.667  49.641  1.00  0.00     0.184 A 
HETATM   17  N4  UNL     1      25.925   7.673  48.581  1.00  0.00    -0.266 N 
HETATM   18  C19 UNL     1      26.775   6.559  48.265  1.00  0.00     0.119 A 
HETATM   19  C20 UNL     1      26.633   5.460  48.987  1.00  0.00     0.048 A 
BRANCH  17  20
HETATM   20  O2  UNL     1      26.087   8.785  47.832  1.00  0.00    -0.274 OA
BRANCH  20  21
HETATM   21  C13 UNL     1      27.411   8.823  47.406  1.00  0.00     0.241 C 
BRANCH  21  22
HETATM   22  C14 UNL     1      27.990  10.101  47.950  1.00  0.00    -0.015 A 
HETATM   23  C15 UNL     1      29.352  10.313  48.005  1.00  0.00     0.012 A 
HETATM   24  C16 UNL     1      29.769  11.529  48.526  1.00  0.00     0.020 A 
HETATM   25  C17 UNL     1      28.850  12.476  48.965  1.00  0.00     0.116 A 
HETATM   26  N5  UNL     1      27.516  12.241  48.899  1.00  0.00    -0.272 NA
HETATM   27  C18 UNL     1      27.095  11.076  48.400  1.00  0.00     0.125 A 
ENDBRANCH  21  22
ENDBRANCH  20  21
ENDBRANCH  17  20
ENDBRANCH  12  14
ENDBRANCH   8  12
BRANCH   1  28
HETATM   28  N1  UNL     1      24.468   1.018  51.915  1.00  0.00    -0.350 N 
HETATM   29  C3  UNL     1      25.630   0.570  52.564  1.00  0.00     0.217 C 
HETATM   30  O1  UNL     1      25.889   0.697  53.802  1.00  0.00    -0.274 OA
HETATM   31  H6  UNL     1      24.540   0.770  50.889  1.00  0.00     0.163 HD
BRANCH  29  32
HETATM   32  C2  UNL     1      26.794  -0.137  51.957  1.00  0.00     0.098 C 
HETATM   33  C1  UNL     1      26.906  -1.487  52.638  1.00  0.00     0.014 C 
ENDBRANCH  29  32
ENDBRANCH   1  28
TORSDOF 7
ENDMDL
MODEL 5
REMARK VINA RESULT:      -7.2      6.729     10.852
REMARK  7 active torsions:
REMARK  status: ('A' for Active; 'I' for Inactive)
REMARK    1  A    between atoms: C2_2  and  C3_3 
REMARK       I    between atoms: C3_3  and  N1_5 
REMARK    2  A    between atoms: N1_5  and  C4_6 
REMARK    3  A    between atoms: C9_13  and  N3_14 
REMARK    4  A    between atoms: N3_14  and  C10_15 
REMARK    5  A    between atoms: N4_18  and  O2_19 
REMARK    6  A    between atoms: O2_19  and  C13_20 
REMARK    7  A    between atoms: C13_20  and  C14_21 
ROOT
HETATM    1  C4  UNL     1      34.077   4.464  46.159  1.00  0.00     0.051 A 
HETATM    2  C5  UNL     1      34.791   3.966  45.080  1.00  0.00     0.035 A 
HETATM    3  C6  UNL     1      33.806   4.745  44.655  1.00  0.00     0.015 A 
HETATM    4  C7  UNL     1      32.664   5.617  44.732  1.00  0.00     0.062 A 
HETATM    5  P1  UNL     1      32.833   7.252  43.929  1.00  0.00    -0.077 P 
HETATM    6  C8  UNL     1      32.347   8.474  45.243  1.00  0.00     0.122 A 
HETATM    7  N2  UNL     1      32.034   8.226  46.470  1.00  0.00    -0.243 NA
HETATM    8  C9  UNL     1      32.033   6.882  46.921  1.00  0.00     0.131 A 
HETATM    9  C21 UNL     1      32.304   5.849  46.178  1.00  0.00    -0.022 A 
HETATM   10  C22 UNL     1      32.553   4.383  46.475  1.00  0.00     0.071 C 
HETATM   11  H9  UNL     1      31.894   7.388  42.828  1.00  0.00     0.064 HD
ENDROOT
BRANCH   8  12
HETATM   12  N3  UNL     1      31.714   6.586  48.290  1.00  0.00    -0.341 N 
HETATM   13  H11 UNL     1      32.249   6.330  49.137  1.00  0.00     0.167 HD
BRANCH  12  14
HETATM   14  C10 UNL     1      30.281   6.716  48.346  1.00  0.00     0.032 A 
HETATM   15  C11 UNL     1      29.592   7.849  48.489  1.00  0.00     0.025 A 
HETATM   16  C12 UNL     1      28.114   7.984  48.546  1.00  0.00     0.184 A 
HETATM   17  N4  UNL     1      27.463   6.685  48.425  1.00  0.00    -0.266 N 
HETATM   18  C19 UNL     1      28.163   5.440  48.268  1.00  0.00     0.119 A 
HETATM   19  C20 UNL     1      29.484   5.485  48.234  1.00  0.00     0.048 A 
BRANCH  17  20
HETATM   20  O2  UNL     1      26.115   6.616  48.457  1.00  0.00    -0.274 OA
BRANCH  20  21
HETATM   21  C13 UNL     1      25.735   6.285  49.754  1.00  0.00     0.241 C 
BRANCH  21  22
HETATM   22  C14 UNL     1      24.848   5.075  49.636  1.00  0.00    -0.015 A 
HETATM   23  C15 UNL     1      23.832   5.009  48.704  1.00  0.00     0.012 A 
HETATM   24  C16 UNL     1      23.080   3.844  48.689  1.00  0.00     0.020 A 
HETATM   25  C17 UNL     1      23.349   2.804  49.572  1.00  0.00     0.116 A 
HETATM   26  N5  UNL     1      24.354   2.895  50.477  1.00  0.00    -0.272 NA
HETATM   27  C18 UNL     1      25.089   4.010  50.508  1.00  0.00     0.125 A 
ENDBRANCH  21  22
ENDBRANCH  20  21
ENDBRANCH  17  20
ENDBRANCH  12  14
ENDBRANCH   8  12
BRANCH   1  28
HETATM   28  N1  UNL     1      34.669   5.719  46.770  1.00  0.00    -0.350 N 
HETATM   29  C3  UNL     1      35.154   5.362  48.038  1.00  0.00     0.217 C 
HETATM   30  O1  UNL     1      35.098   4.203  48.559  1.00  0.00    -0.274 OA
HETATM   31  H6  UNL     1      34.859   6.749  46.617  1.00  0.00     0.163 HD
BRANCH  29  32
HETATM   32  C2  UNL     1      35.827   6.243  49.036  1.00  0.00     0.098 C 
HETATM   33  C1  UNL     1      35.749   7.662  48.507  1.00  0.00     0.014 C 
ENDBRANCH  29  32
ENDBRANCH   1  28
TORSDOF 7
ENDMDL
MODEL 6
REMARK VINA RESULT:      -7.1      2.372      3.324
REMARK  7 active torsions:
REMARK  status: ('A' for Active; 'I' for Inactive)
REMARK    1  A    between atoms: C2_2  and  C3_3 
REMARK       I    between atoms: C3_3  and  N1_5 
REMARK    2  A    between atoms: N1_5  and  C4_6 
REMARK    3  A    between atoms: C9_13  and  N3_14 
REMARK    4  A    between atoms: N3_14  and  C10_15 
REMARK    5  A    between atoms: N4_18  and  O2_19 
REMARK    6  A    between atoms: O2_19  and  C13_20 
REMARK    7  A    between atoms: C13_20  and  C14_21 
ROOT
HETATM    1  C4  UNL     1      25.818   3.672  49.777  1.00  0.00     0.051 A 
HETATM    2  C5  UNL     1      26.523   4.738  49.242  1.00  0.00     0.035 A 
HETATM    3  C6  UNL     1      25.241   5.055  49.368  1.00  0.00     0.015 A 
HETATM    4  C7  UNL     1      23.849   4.888  49.693  1.00  0.00     0.062 A 
HETATM    5  P1  UNL     1      23.135   6.106  50.856  1.00  0.00    -0.077 P 
HETATM    6  C8  UNL     1      22.330   5.077  52.180  1.00  0.00     0.122 A 
HETATM    7  N2  UNL     1      22.341   3.792  52.291  1.00  0.00    -0.243 NA
HETATM    8  C9  UNL     1      23.021   3.022  51.313  1.00  0.00     0.131 A 
HETATM    9  C21 UNL     1      23.629   3.513  50.273  1.00  0.00    -0.022 A 
HETATM   10  C22 UNL     1      24.563   2.925  49.233  1.00  0.00     0.071 C 
HETATM   11  H9  UNL     1      22.095   6.889  50.211  1.00  0.00     0.064 HD
ENDROOT
BRANCH   8  12
HETATM   12  N3  UNL     1      23.068   1.592  51.433  1.00  0.00    -0.341 N 
HETATM   13  H11 UNL     1      23.813   0.877  51.490  1.00  0.00     0.167 HD
BRANCH  12  14
HETATM   14  C10 UNL     1      21.682   1.204  51.472  1.00  0.00     0.032 A 
HETATM   15  C11 UNL     1      21.044   0.642  52.500  1.00  0.00     0.025 A 
HETATM   16  C12 UNL     1      19.614   0.240  52.542  1.00  0.00     0.184 A 
HETATM   17  N4  UNL     1      18.948   0.540  51.279  1.00  0.00    -0.266 N 
HETATM   18  C19 UNL     1      19.594   1.145  50.147  1.00  0.00     0.119 A 
HETATM   19  C20 UNL     1      20.876   1.446  50.266  1.00  0.00     0.048 A 
BRANCH  17  20
HETATM   20  O2  UNL     1      17.639   0.241  51.136  1.00  0.00    -0.274 OA
BRANCH  20  21
HETATM   21  C13 UNL     1      17.054   1.243  50.368  1.00  0.00     0.241 C 
BRANCH  21  22
HETATM   22  C14 UNL     1      16.329   2.143  51.332  1.00  0.00    -0.015 A 
HETATM   23  C15 UNL     1      15.192   1.729  51.994  1.00  0.00     0.012 A 
HETATM   24  C16 UNL     1      14.610   2.645  52.858  1.00  0.00     0.020 A 
HETATM   25  C17 UNL     1      15.158   3.910  53.039  1.00  0.00     0.116 A 
HETATM   26  N5  UNL     1      16.277   4.291  52.375  1.00  0.00    -0.272 NA
HETATM   27  C18 UNL     1      16.852   3.423  51.539  1.00  0.00     0.125 A 
ENDBRANCH  21  22
ENDBRANCH  20  21
ENDBRANCH  17  20
ENDBRANCH  12  14
ENDBRANCH   8  12
BRANCH   1  28
HETATM   28  N1  UNL     1      25.846   3.606  51.292  1.00  0.00    -0.350 N 
HETATM   29  C3  UNL     1      26.612   2.480  51.634  1.00  0.00     0.217 C 
HETATM   30  O1  UNL     1      27.167   1.679  50.817  1.00  0.00    -0.274 OA
HETATM   31  H6  UNL     1      25.519   4.072  52.184  1.00  0.00     0.163 HD
BRANCH  29  32
HETATM   32  C2  UNL     1      26.937   1.983  53.002  1.00  0.00     0.098 C 
HETATM   33  C1  UNL     1      25.687   2.143  53.847  1.00  0.00     0.014 C 
ENDBRANCH  29  32
ENDBRANCH   1  28
TORSDOF 7
ENDMDL
MODEL 7
REMARK VINA RESULT:      -7.0      4.557      9.425
REMARK  7 active torsions:
REMARK  status: ('A' for Active; 'I' for Inactive)
REMARK    1  A    between atoms: C2_2  and  C3_3 
REMARK       I    between atoms: C3_3  and  N1_5 
REMARK    2  A    between atoms: N1_5  and  C4_6 
REMARK    3  A    between atoms: C9_13  and  N3_14 
REMARK    4  A    between atoms: N3_14  and  C10_15 
REMARK    5  A    between atoms: N4_18  and  O2_19 
REMARK    6  A    between atoms: O2_19  and  C13_20 
REMARK    7  A    between atoms: C13_20  and  C14_21 
ROOT
HETATM    1  C4  UNL     1      23.558   1.664  52.957  1.00  0.00     0.051 A 
HETATM    2  C5  UNL     1      22.545   0.837  53.414  1.00  0.00     0.035 A 
HETATM    3  C6  UNL     1      22.089   1.630  52.455  1.00  0.00     0.015 A 
HETATM    4  C7  UNL     1      22.112   2.654  51.443  1.00  0.00     0.062 A 
HETATM    5  P1  UNL     1      21.595   2.149  49.763  1.00  0.00    -0.077 P 
HETATM    6  C8  UNL     1      22.982   2.706  48.656  1.00  0.00     0.122 A 
HETATM    7  N2  UNL     1      24.094   3.257  49.007  1.00  0.00    -0.243 NA
HETATM    8  C9  UNL     1      24.337   3.501  50.383  1.00  0.00     0.131 A 
HETATM    9  C21 UNL     1      23.502   3.231  51.344  1.00  0.00    -0.022 A 
HETATM   10  C22 UNL     1      23.616   3.218  52.856  1.00  0.00     0.071 C 
HETATM   11  H9  UNL     1      20.393   2.857  49.357  1.00  0.00     0.064 HD
ENDROOT
BRANCH   8  12
HETATM   12  N3  UNL     1      25.580   4.089  50.798  1.00  0.00    -0.341 N 
HETATM   13  H11 UNL     1      26.365   3.808  51.410  1.00  0.00     0.167 HD
BRANCH  12  14
HETATM   14  C10 UNL     1      25.601   5.362  50.125  1.00  0.00     0.032 A 
HETATM   15  C11 UNL     1      24.856   6.427  50.421  1.00  0.00     0.025 A 
HETATM   16  C12 UNL     1      24.875   7.742  49.728  1.00  0.00     0.184 A 
HETATM   17  N4  UNL     1      25.842   7.744  48.636  1.00  0.00    -0.266 N 
HETATM   18  C19 UNL     1      26.666   6.621  48.282  1.00  0.00     0.119 A 
HETATM   19  C20 UNL     1      26.531   5.518  48.997  1.00  0.00     0.048 A 
BRANCH  17  20
HETATM   20  O2  UNL     1      25.995   8.860  47.893  1.00  0.00    -0.274 OA
BRANCH  20  21
HETATM   21  C13 UNL     1      24.731   9.287  47.497  1.00  0.00     0.241 C 
BRANCH  21  22
HETATM   22  C14 UNL     1      24.526   8.759  46.103  1.00  0.00    -0.015 A 
HETATM   23  C15 UNL     1      25.569   8.661  45.205  1.00  0.00     0.012 A 
HETATM   24  C16 UNL     1      25.260   8.159  43.950  1.00  0.00     0.020 A 
HETATM   25  C17 UNL     1      23.962   7.778  43.628  1.00  0.00     0.116 A 
HETATM   26  N5  UNL     1      22.956   7.885  44.530  1.00  0.00    -0.272 NA
HETATM   27  C18 UNL     1      23.234   8.366  45.745  1.00  0.00     0.125 A 
ENDBRANCH  21  22
ENDBRANCH  20  21
ENDBRANCH  17  20
ENDBRANCH  12  14
ENDBRANCH   8  12
BRANCH   1  28
HETATM   28  N1  UNL     1      24.433   1.040  51.886  1.00  0.00    -0.350 N 
HETATM   29  C3  UNL     1      25.567   0.529  52.537  1.00  0.00     0.217 C 
HETATM   30  O1  UNL     1      25.801   0.589  53.786  1.00  0.00    -0.274 OA
HETATM   31  H6  UNL     1      24.522   0.840  50.851  1.00  0.00     0.163 HD
BRANCH  29  32
HETATM   32  C2  UNL     1      26.726  -0.179  51.922  1.00  0.00     0.098 C 
HETATM   33  C1  UNL     1      26.877  -1.505  52.642  1.00  0.00     0.014 C 
ENDBRANCH  29  32
ENDBRANCH   1  28
TORSDOF 7
ENDMDL
MODEL 8
REMARK VINA RESULT:      -6.9      4.829      8.000
REMARK  7 active torsions:
REMARK  status: ('A' for Active; 'I' for Inactive)
REMARK    1  A    between atoms: C2_2  and  C3_3 
REMARK       I    between atoms: C3_3  and  N1_5 
REMARK    2  A    between atoms: N1_5  and  C4_6 
REMARK    3  A    between atoms: C9_13  and  N3_14 
REMARK    4  A    between atoms: N3_14  and  C10_15 
REMARK    5  A    between atoms: N4_18  and  O2_19 
REMARK    6  A    between atoms: O2_19  and  C13_20 
REMARK    7  A    between atoms: C13_20  and  C14_21 
ROOT
HETATM    1  C4  UNL     1      29.594   8.251  46.803  1.00  0.00     0.051 A 
HETATM    2  C5  UNL     1      30.140   8.568  45.570  1.00  0.00     0.035 A 
HETATM    3  C6  UNL     1      28.820   8.486  45.477  1.00  0.00     0.015 A 
HETATM    4  C7  UNL     1      27.460   8.281  45.903  1.00  0.00     0.062 A 
HETATM    5  P1  UNL     1      26.298   9.661  45.603  1.00  0.00    -0.077 P 
HETATM    6  C8  UNL     1      25.502   9.973  47.255  1.00  0.00     0.122 A 
HETATM    7  N2  UNL     1      25.767   9.395  48.377  1.00  0.00    -0.243 NA
HETATM    8  C9  UNL     1      26.766   8.388  48.412  1.00  0.00     0.131 A 
HETATM    9  C21 UNL     1      27.437   7.971  47.379  1.00  0.00    -0.022 A 
HETATM   10  C22 UNL     1      28.652   7.078  47.211  1.00  0.00     0.071 C 
HETATM   11  H9  UNL     1      25.252   9.266  44.675  1.00  0.00     0.064 HD
ENDROOT
BRANCH   8  12
HETATM   12  N3  UNL     1      27.096   7.750  49.656  1.00  0.00    -0.341 N 
HETATM   13  H11 UNL     1      27.868   7.817  50.341  1.00  0.00     0.167 HD
BRANCH  12  14
HETATM   14  C10 UNL     1      26.009   6.830  49.870  1.00  0.00     0.032 A 
HETATM   15  C11 UNL     1      25.853   5.639  49.292  1.00  0.00     0.025 A 
HETATM   16  C12 UNL     1      24.733   4.688  49.512  1.00  0.00     0.184 A 
HETATM   17  N4  UNL     1      23.774   5.220  50.474  1.00  0.00    -0.266 N 
HETATM   18  C19 UNL     1      23.902   6.496  51.122  1.00  0.00     0.119 A 
HETATM   19  C20 UNL     1      24.960   7.229  50.820  1.00  0.00     0.048 A 
BRANCH  17  20
HETATM   20  O2  UNL     1      22.687   4.488  50.796  1.00  0.00    -0.274 OA
BRANCH  20  21
HETATM   21  C13 UNL     1      22.666   4.341  52.180  1.00  0.00     0.241 C 
BRANCH  21  22
HETATM   22  C14 UNL     1      23.281   2.998  52.469  1.00  0.00    -0.015 A 
HETATM   23  C15 UNL     1      24.505   2.881  53.094  1.00  0.00     0.012 A 
HETATM   24  C16 UNL     1      24.971   1.593  53.308  1.00  0.00     0.020 A 
HETATM   25  C17 UNL     1      24.232   0.486  52.907  1.00  0.00     0.116 A 
HETATM   26  N5  UNL     1      23.031   0.630  52.294  1.00  0.00    -0.272 NA
HETATM   27  C18 UNL     1      22.565   1.863  52.080  1.00  0.00     0.125 A 
ENDBRANCH  21  22
ENDBRANCH  20  21
ENDBRANCH  17  20
ENDBRANCH  12  14
ENDBRANCH   8  12
BRANCH   1  28
HETATM   28  N1  UNL     1      29.354   9.448  47.703  1.00  0.00    -0.350 N 
HETATM   29  C3  UNL     1      30.444   9.516  48.586  1.00  0.00     0.217 C 
HETATM   30  O1  UNL     1      31.433   8.717  48.613  1.00  0.00    -0.274 OA
HETATM   31  H6  UNL     1      28.694  10.245  47.924  1.00  0.00     0.163 HD
BRANCH  29  32
HETATM   32  C2  UNL     1      30.677  10.516  49.666  1.00  0.00     0.098 C 
HETATM   33  C1  UNL     1      30.799  11.875  49.003  1.00  0.00     0.014 C 
ENDBRANCH  29  32
ENDBRANCH   1  28
TORSDOF 7
ENDMDL
MODEL 9
REMARK VINA RESULT:      -6.9      3.806      4.316
REMARK  7 active torsions:
REMARK  status: ('A' for Active; 'I' for Inactive)
REMARK    1  A    between atoms: C2_2  and  C3_3 
REMARK       I    between atoms: C3_3  and  N1_5 
REMARK    2  A    between atoms: N1_5  and  C4_6 
REMARK    3  A    between atoms: C9_13  and  N3_14 
REMARK    4  A    between atoms: N3_14  and  C10_15 
REMARK    5  A    between atoms: N4_18  and  O2_19 
REMARK    6  A    between atoms: O2_19  and  C13_20 
REMARK    7  A    between atoms: C13_20  and  C14_21 
ROOT
HETATM    1  C4  UNL     1      25.883   3.418  49.751  1.00  0.00     0.051 A 
HETATM    2  C5  UNL     1      27.077   3.926  49.266  1.00  0.00     0.035 A 
HETATM    3  C6  UNL     1      26.114   4.827  49.139  1.00  0.00     0.015 A 
HETATM    4  C7  UNL     1      24.793   5.393  49.226  1.00  0.00     0.062 A 
HETATM    5  P1  UNL     1      24.641   6.967  50.146  1.00  0.00    -0.077 P 
HETATM    6  C8  UNL     1      23.287   6.661  51.383  1.00  0.00     0.122 A 
HETATM    7  N2  UNL     1      22.651   5.559  51.594  1.00  0.00    -0.243 NA
HETATM    8  C9  UNL     1      22.972   4.418  50.814  1.00  0.00     0.131 A 
HETATM    9  C21 UNL     1      23.859   4.395  49.864  1.00  0.00    -0.022 A 
HETATM   10  C22 UNL     1      24.495   3.282  49.053  1.00  0.00     0.071 C 
HETATM   11  H9  UNL     1      24.205   8.039  49.268  1.00  0.00     0.064 HD
ENDROOT
BRANCH   8  12
HETATM   12  N3  UNL     1      22.294   3.174  51.052  1.00  0.00    -0.341 N 
HETATM   13  H11 UNL     1      22.578   2.212  51.303  1.00  0.00     0.167 HD
BRANCH  12  14
HETATM   14  C10 UNL     1      20.904   3.497  50.860  1.00  0.00     0.032 A 
HETATM   15  C11 UNL     1      20.374   4.128  49.812  1.00  0.00     0.025 A 
HETATM   16  C12 UNL     1      18.940   4.462  49.613  1.00  0.00     0.184 A 
HETATM   17  N4  UNL     1      18.133   4.004  50.738  1.00  0.00    -0.266 N 
HETATM   18  C19 UNL     1      18.660   3.320  51.887  1.00  0.00     0.119 A 
HETATM   19  C20 UNL     1      19.963   3.096  51.917  1.00  0.00     0.048 A 
BRANCH  17  20
HETATM   20  O2  UNL     1      16.801   4.224  50.728  1.00  0.00    -0.274 OA
BRANCH  20  21
HETATM   21  C13 UNL     1      16.181   3.114  51.296  1.00  0.00     0.241 C 
BRANCH  21  22
HETATM   22  C14 UNL     1      14.931   3.626  51.960  1.00  0.00    -0.015 A 
HETATM   23  C15 UNL     1      13.706   3.585  51.327  1.00  0.00     0.012 A 
HETATM   24  C16 UNL     1      12.625   4.085  52.037  1.00  0.00     0.020 A 
HETATM   25  C17 UNL     1      12.783   4.597  53.321  1.00  0.00     0.116 A 
HETATM   26  N5  UNL     1      13.999   4.624  53.919  1.00  0.00    -0.272 NA
HETATM   27  C18 UNL     1      15.053   4.147  53.251  1.00  0.00     0.125 A 
ENDBRANCH  21  22
ENDBRANCH  20  21
ENDBRANCH  17  20
ENDBRANCH  12  14
ENDBRANCH   8  12
BRANCH   1  28
HETATM   28  N1  UNL     1      25.699   3.582  51.247  1.00  0.00    -0.350 N 
HETATM   29  C3  UNL     1      26.166   2.400  51.844  1.00  0.00     0.217 C 
HETATM   30  O1  UNL     1      26.646   1.394  51.231  1.00  0.00    -0.274 OA
HETATM   31  H6  UNL     1      25.361   4.231  52.011  1.00  0.00     0.163 HD
BRANCH  29  32
HETATM   32  C2  UNL     1      26.200   2.067  53.297  1.00  0.00     0.098 C 
HETATM   33  C1  UNL     1      27.658   1.949  53.698  1.00  0.00     0.014 C 
ENDBRANCH  29  32
ENDBRANCH   1  28
TORSDOF 7
ENDMDL
