MODEL 1
REMARK VINA RESULT:      -8.6      0.000      0.000
REMARK  4 active torsions:
REMARK  status: ('A' for Active; 'I' for Inactive)
REMARK    1  A    between atoms: C4_5  and  N1_6 
REMARK    2  A    between atoms: N1_6  and  C5_7 
REMARK    3  A    between atoms: C9_13  and  O1_14 
REMARK    4  A    between atoms: O1_14  and  C10_15 
ROOT
HETATM    1  C5  UNL     1      24.903  -0.393  54.142  1.00  0.00     0.144 A 
HETATM    2  N2  UNL     1      25.107  -1.046  55.274  1.00  0.00    -0.223 NA
HETATM    3  C6  UNL     1      24.061  -1.586  55.966  1.00  0.00     0.236 A 
HETATM    4  N3  UNL     1      22.819  -1.448  55.485  1.00  0.00    -0.241 NA
HETATM    5  C7  UNL     1      22.544  -0.798  54.345  1.00  0.00     0.077 A 
HETATM    6  C8  UNL     1      21.263  -0.667  53.868  1.00  0.00     0.072 A 
HETATM    7  C9  UNL     1      20.987   0.002  52.696  1.00  0.00     0.108 A 
HETATM    8  C11 UNL     1      22.081   0.542  52.015  1.00  0.00     0.136 A 
HETATM    9  C12 UNL     1      23.371   0.400  52.511  1.00  0.00     0.121 A 
HETATM   10  C13 UNL     1      23.613  -0.269  53.677  1.00  0.00     0.075 A 
HETATM   11  O2  UNL     1      24.380   0.962  51.775  1.00  0.00    -0.345 OA
HETATM   12  C14 UNL     1      24.225   2.170  51.018  1.00  0.00     0.202 C 
HETATM   13  C15 UNL     1      22.837   2.291  50.459  1.00  0.00     0.202 C 
HETATM   14  O3  UNL     1      21.975   1.243  50.824  1.00  0.00    -0.344 OA
ENDROOT
BRANCH   1  15
HETATM   15  N1  UNL     1      26.026   0.131  53.495  1.00  0.00    -0.342 N 
HETATM   16  H4  UNL     1      26.481   0.916  53.031  1.00  0.00     0.167 HD
BRANCH  15  17
HETATM   17  C4  UNL     1      27.163  -0.748  53.336  1.00  0.00     0.039 A 
HETATM   18  C3  UNL     1      27.321  -2.109  52.704  1.00  0.00     0.089 A 
HETATM   19  C2  UNL     1      28.770  -2.345  52.927  1.00  0.00     0.023 A 
HETATM   20  C1  UNL     1      29.412  -1.374  53.556  1.00  0.00     0.136 A 
HETATM   21  F1  UNL     1      30.719  -1.323  53.887  1.00  0.00    -0.205 F 
HETATM   22  C16 UNL     1      28.362  -0.363  53.807  1.00  0.00     0.095 A 
HETATM   23 CL1  UNL     1      28.762   1.137  54.638  1.00  0.00    -0.079 Cl
ENDBRANCH  15  17
ENDBRANCH   1  15
BRANCH   7  24
HETATM   24  O1  UNL     1      19.748   0.194  52.127  1.00  0.00    -0.339 OA
BRANCH  24  25
HETATM   25  C10 UNL     1      18.565  -0.485  52.496  1.00  0.00     0.255 C 
HETATM   26  I1  UNL     1      16.984   0.039  51.168  1.00  0.00    -0.061 I 
ENDBRANCH  24  25
ENDBRANCH   7  24
TORSDOF 4
ENDMDL
MODEL 2
REMARK VINA RESULT:      -8.6      1.271      1.565
REMARK  4 active torsions:
REMARK  status: ('A' for Active; 'I' for Inactive)
REMARK    1  A    between atoms: C4_5  and  N1_6 
REMARK    2  A    between atoms: N1_6  and  C5_7 
REMARK    3  A    between atoms: C9_13  and  O1_14 
REMARK    4  A    between atoms: O1_14  and  C10_15 
ROOT
HETATM    1  C5  UNL     1      24.636  -0.329  53.858  1.00  0.00     0.144 A 
HETATM    2  N2  UNL     1      25.148  -0.900  54.936  1.00  0.00    -0.223 NA
HETATM    3  C6  UNL     1      24.339  -1.492  55.863  1.00  0.00     0.236 A 
HETATM    4  N3  UNL     1      23.014  -1.491  55.669  1.00  0.00    -0.241 NA
HETATM    5  C7  UNL     1      22.432  -0.930  54.598  1.00  0.00     0.077 A 
HETATM    6  C8  UNL     1      21.070  -0.939  54.418  1.00  0.00     0.072 A 
HETATM    7  C9  UNL     1      20.478  -0.362  53.316  1.00  0.00     0.108 A 
HETATM    8  C11 UNL     1      21.337   0.236  52.389  1.00  0.00     0.136 A 
HETATM    9  C12 UNL     1      22.711   0.235  52.587  1.00  0.00     0.121 A 
HETATM   10  C13 UNL     1      23.269  -0.345  53.691  1.00  0.00     0.075 A 
HETATM   11  O2  UNL     1      23.474   0.844  51.626  1.00  0.00    -0.345 OA
HETATM   12  C14 UNL     1      23.037   1.991  50.883  1.00  0.00     0.202 C 
HETATM   13  C15 UNL     1      21.556   1.959  50.646  1.00  0.00     0.202 C 
HETATM   14  O3  UNL     1      20.902   0.859  51.231  1.00  0.00    -0.344 OA
ENDROOT
BRANCH   1  15
HETATM   15  N1  UNL     1      25.532   0.256  52.959  1.00  0.00    -0.342 N 
HETATM   16  H4  UNL     1      25.694   0.744  52.078  1.00  0.00     0.167 HD
BRANCH  15  17
HETATM   17  C4  UNL     1      26.933   0.232  53.316  1.00  0.00     0.039 A 
HETATM   18  C3  UNL     1      27.844   1.256  53.947  1.00  0.00     0.089 A 
HETATM   19  C2  UNL     1      29.116   0.494  53.995  1.00  0.00     0.023 A 
HETATM   20  C1  UNL     1      29.059  -0.736  53.512  1.00  0.00     0.136 A 
HETATM   21  F1  UNL     1      30.055  -1.643  53.432  1.00  0.00    -0.205 F 
HETATM   22  C16 UNL     1      27.651  -0.880  53.083  1.00  0.00     0.095 A 
HETATM   23 CL1  UNL     1      27.098  -2.389  52.363  1.00  0.00    -0.079 Cl
ENDBRANCH  15  17
ENDBRANCH   1  15
BRANCH   7  24
HETATM   24  O1  UNL     1      19.132  -0.310  53.034  1.00  0.00    -0.339 OA
BRANCH  24  25
HETATM   25  C10 UNL     1      18.206  -1.351  53.275  1.00  0.00     0.255 C 
HETATM   26  I1  UNL     1      16.364  -0.925  52.294  1.00  0.00    -0.061 I 
ENDBRANCH  24  25
ENDBRANCH   7  24
TORSDOF 4
ENDMDL
MODEL 3
REMARK VINA RESULT:      -8.2      1.929      3.598
REMARK  4 active torsions:
REMARK  status: ('A' for Active; 'I' for Inactive)
REMARK    1  A    between atoms: C4_5  and  N1_6 
REMARK    2  A    between atoms: N1_6  and  C5_7 
REMARK    3  A    between atoms: C9_13  and  O1_14 
REMARK    4  A    between atoms: O1_14  and  C10_15 
ROOT
HETATM    1  C5  UNL     1      25.876   1.787  52.502  1.00  0.00     0.144 A 
HETATM    2  N2  UNL     1      26.775   2.513  51.860  1.00  0.00    -0.223 NA
HETATM    3  C6  UNL     1      26.466   3.120  50.676  1.00  0.00     0.236 A 
HETATM    4  N3  UNL     1      25.236   2.972  50.169  1.00  0.00    -0.241 NA
HETATM    5  C7  UNL     1      24.278   2.249  50.769  1.00  0.00     0.077 A 
HETATM    6  C8  UNL     1      23.022   2.110  50.232  1.00  0.00     0.072 A 
HETATM    7  C9  UNL     1      22.043   1.367  50.853  1.00  0.00     0.108 A 
HETATM    8  C11 UNL     1      22.395   0.760  52.062  1.00  0.00     0.136 A 
HETATM    9  C12 UNL     1      23.670   0.912  52.592  1.00  0.00     0.121 A 
HETATM   10  C13 UNL     1      24.620   1.655  51.951  1.00  0.00     0.075 A 
HETATM   11  O2  UNL     1      23.924   0.280  53.780  1.00  0.00    -0.345 OA
HETATM   12  C14 UNL     1      23.335  -0.974  54.148  1.00  0.00     0.202 C 
HETATM   13  C15 UNL     1      21.944  -1.108  53.599  1.00  0.00     0.202 C 
HETATM   14  O3  UNL     1      21.529  -0.020  52.811  1.00  0.00    -0.344 OA
ENDROOT
BRANCH   1  15
HETATM   15  N1  UNL     1      26.271   1.198  53.706  1.00  0.00    -0.342 N 
HETATM   16  H4  UNL     1      26.068   0.977  54.681  1.00  0.00     0.167 HD
BRANCH  15  17
HETATM   17  C4  UNL     1      27.569   0.559  53.731  1.00  0.00     0.039 A 
HETATM   18  C3  UNL     1      28.918   1.007  54.233  1.00  0.00     0.089 A 
HETATM   19  C2  UNL     1      29.737  -0.190  53.917  1.00  0.00     0.023 A 
HETATM   20  C1  UNL     1      29.084  -1.187  53.343  1.00  0.00     0.136 A 
HETATM   21  F1  UNL     1      29.573  -2.383  52.952  1.00  0.00    -0.205 F 
HETATM   22  C16 UNL     1      27.698  -0.684  53.234  1.00  0.00     0.095 A 
HETATM   23 CL1  UNL     1      26.445  -1.694  52.517  1.00  0.00    -0.079 Cl
ENDBRANCH  15  17
ENDBRANCH   1  15
BRANCH   7  24
HETATM   24  O1  UNL     1      20.757   1.158  50.409  1.00  0.00    -0.339 OA
BRANCH  24  25
HETATM   25  C10 UNL     1      19.608   1.827  50.891  1.00  0.00     0.255 C 
HETATM   26  I1  UNL     1      18.037   0.425  51.215  1.00  0.00    -0.061 I 
ENDBRANCH  24  25
ENDBRANCH   7  24
TORSDOF 4
ENDMDL
MODEL 4
REMARK VINA RESULT:      -7.6      4.938      7.667
REMARK  4 active torsions:
REMARK  status: ('A' for Active; 'I' for Inactive)
REMARK    1  A    between atoms: C4_5  and  N1_6 
REMARK    2  A    between atoms: N1_6  and  C5_7 
REMARK    3  A    between atoms: C9_13  and  O1_14 
REMARK    4  A    between atoms: O1_14  and  C10_15 
ROOT
HETATM    1  C5  UNL     1      23.595   1.597  51.306  1.00  0.00     0.144 A 
HETATM    2  N2  UNL     1      23.739   2.564  50.415  1.00  0.00    -0.223 NA
HETATM    3  C6  UNL     1      24.870   3.330  50.393  1.00  0.00     0.236 A 
HETATM    4  N3  UNL     1      25.838   3.090  51.287  1.00  0.00    -0.241 NA
HETATM    5  C7  UNL     1      25.754   2.126  52.216  1.00  0.00     0.077 A 
HETATM    6  C8  UNL     1      26.759   1.896  53.124  1.00  0.00     0.072 A 
HETATM    7  C9  UNL     1      26.667   0.904  54.075  1.00  0.00     0.108 A 
HETATM    8  C11 UNL     1      25.496   0.141  54.068  1.00  0.00     0.136 A 
HETATM    9  C12 UNL     1      24.491   0.387  53.142  1.00  0.00     0.121 A 
HETATM   10  C13 UNL     1      24.610   1.379  52.211  1.00  0.00     0.075 A 
HETATM   11  O2  UNL     1      23.380  -0.411  53.211  1.00  0.00    -0.345 OA
HETATM   12  C14 UNL     1      22.862  -0.936  54.442  1.00  0.00     0.202 C 
HETATM   13  C15 UNL     1      23.963  -1.230  55.418  1.00  0.00     0.202 C 
HETATM   14  O3  UNL     1      25.248  -0.892  54.957  1.00  0.00    -0.344 OA
ENDROOT
BRANCH   1  15
HETATM   15  N1  UNL     1      22.408   0.861  51.263  1.00  0.00    -0.342 N 
HETATM   16  H4  UNL     1      21.941  -0.043  51.184  1.00  0.00     0.167 HD
BRANCH  15  17
HETATM   17  C4  UNL     1      21.171   1.601  51.371  1.00  0.00     0.039 A 
HETATM   18  C3  UNL     1      20.414   2.160  52.550  1.00  0.00     0.089 A 
HETATM   19  C2  UNL     1      19.258   2.784  51.859  1.00  0.00     0.023 A 
HETATM   20  C1  UNL     1      19.253   2.664  50.542  1.00  0.00     0.136 A 
HETATM   21  F1  UNL     1      18.334   3.131  49.670  1.00  0.00    -0.205 F 
HETATM   22  C16 UNL     1      20.487   1.903  50.253  1.00  0.00     0.095 A 
HETATM   23 CL1  UNL     1      20.907   1.499  48.590  1.00  0.00    -0.079 Cl
ENDBRANCH  15  17
ENDBRANCH   1  15
BRANCH   7  24
HETATM   24  O1  UNL     1      27.606   0.586  55.030  1.00  0.00    -0.339 OA
BRANCH  24  25
HETATM   25  C10 UNL     1      29.006   0.585  54.832  1.00  0.00     0.255 C 
HETATM   26  I1  UNL     1      29.551  -1.011  53.530  1.00  0.00    -0.061 I 
ENDBRANCH  24  25
ENDBRANCH   7  24
TORSDOF 4
ENDMDL
MODEL 5
REMARK VINA RESULT:      -7.6      2.860      3.608
REMARK  4 active torsions:
REMARK  status: ('A' for Active; 'I' for Inactive)
REMARK    1  A    between atoms: C4_5  and  N1_6 
REMARK    2  A    between atoms: N1_6  and  C5_7 
REMARK    3  A    between atoms: C9_13  and  O1_14 
REMARK    4  A    between atoms: O1_14  and  C10_15 
ROOT
HETATM    1  C5  UNL     1      25.114   0.318  52.414  1.00  0.00     0.144 A 
HETATM    2  N2  UNL     1      24.730  -0.579  53.307  1.00  0.00    -0.223 NA
HETATM    3  C6  UNL     1      23.504  -0.492  53.901  1.00  0.00     0.236 A 
HETATM    4  N3  UNL     1      22.688   0.516  53.569  1.00  0.00    -0.241 NA
HETATM    5  C7  UNL     1      23.016   1.458  52.672  1.00  0.00     0.077 A 
HETATM    6  C8  UNL     1      22.164   2.485  52.345  1.00  0.00     0.072 A 
HETATM    7  C9  UNL     1      22.506   3.449  51.422  1.00  0.00     0.108 A 
HETATM    8  C11 UNL     1      23.769   3.328  50.836  1.00  0.00     0.136 A 
HETATM    9  C12 UNL     1      24.618   2.283  51.177  1.00  0.00     0.121 A 
HETATM   10  C13 UNL     1      24.250   1.342  52.096  1.00  0.00     0.075 A 
HETATM   11  O2  UNL     1      25.835   2.246  50.551  1.00  0.00    -0.345 OA
HETATM   12  C14 UNL     1      26.559   3.423  50.164  1.00  0.00     0.202 C 
HETATM   13  C15 UNL     1      25.629   4.531  49.763  1.00  0.00     0.202 C 
HETATM   14  O3  UNL     1      24.265   4.213  49.892  1.00  0.00    -0.344 OA
ENDROOT
BRANCH   1  15
HETATM   15  N1  UNL     1      26.384   0.159  51.854  1.00  0.00    -0.342 N 
HETATM   16  H4  UNL     1      26.962  -0.033  51.035  1.00  0.00     0.167 HD
BRANCH  15  17
HETATM   17  C4  UNL     1      27.518   0.308  52.739  1.00  0.00     0.039 A 
HETATM   18  C3  UNL     1      28.153   1.511  53.392  1.00  0.00     0.089 A 
HETATM   19  C2  UNL     1      29.251   0.861  54.149  1.00  0.00     0.023 A 
HETATM   20  C1  UNL     1      29.324  -0.454  54.025  1.00  0.00     0.136 A 
HETATM   21  F1  UNL     1      30.214  -1.293  54.595  1.00  0.00    -0.205 F 
HETATM   22  C16 UNL     1      28.204  -0.784  53.117  1.00  0.00     0.095 A 
HETATM   23 CL1  UNL     1      27.904  -2.458  52.658  1.00  0.00    -0.079 Cl
ENDBRANCH  15  17
ENDBRANCH   1  15
BRANCH   7  24
HETATM   24  O1  UNL     1      21.737   4.517  51.020  1.00  0.00    -0.339 OA
BRANCH  24  25
HETATM   25  C10 UNL     1      21.817   5.826  51.548  1.00  0.00     0.255 C 
HETATM   26  I1  UNL     1      21.716   7.252  49.968  1.00  0.00    -0.061 I 
ENDBRANCH  24  25
ENDBRANCH   7  24
TORSDOF 4
ENDMDL
MODEL 6
REMARK VINA RESULT:      -7.4      3.093      4.873
REMARK  4 active torsions:
REMARK  status: ('A' for Active; 'I' for Inactive)
REMARK    1  A    between atoms: C4_5  and  N1_6 
REMARK    2  A    between atoms: N1_6  and  C5_7 
REMARK    3  A    between atoms: C9_13  and  O1_14 
REMARK    4  A    between atoms: O1_14  and  C10_15 
ROOT
HETATM    1  C5  UNL     1      25.689   2.322  51.307  1.00  0.00     0.144 A 
HETATM    2  N2  UNL     1      26.743   2.668  50.587  1.00  0.00    -0.223 NA
HETATM    3  C6  UNL     1      26.668   3.692  49.687  1.00  0.00     0.236 A 
HETATM    4  N3  UNL     1      25.509   4.347  49.539  1.00  0.00    -0.241 NA
HETATM    5  C7  UNL     1      24.404   4.046  50.237  1.00  0.00     0.077 A 
HETATM    6  C8  UNL     1      23.225   4.731  50.070  1.00  0.00     0.072 A 
HETATM    7  C9  UNL     1      22.093   4.417  50.791  1.00  0.00     0.108 A 
HETATM    8  C11 UNL     1      22.208   3.364  51.702  1.00  0.00     0.136 A 
HETATM    9  C12 UNL     1      23.408   2.683  51.858  1.00  0.00     0.121 A 
HETATM   10  C13 UNL     1      24.513   3.017  51.129  1.00  0.00     0.075 A 
HETATM   11  O2  UNL     1      23.425   1.665  52.775  1.00  0.00    -0.345 OA
HETATM   12  C14 UNL     1      22.292   0.828  53.044  1.00  0.00     0.202 C 
HETATM   13  C15 UNL     1      21.005   1.587  52.907  1.00  0.00     0.202 C 
HETATM   14  O3  UNL     1      21.165   2.924  52.502  1.00  0.00    -0.344 OA
ENDROOT
BRANCH   1  15
HETATM   15  N1  UNL     1      25.848   1.264  52.205  1.00  0.00    -0.342 N 
HETATM   16  H4  UNL     1      25.466   0.430  52.652  1.00  0.00     0.167 HD
BRANCH  15  17
HETATM   17  C4  UNL     1      27.107   1.185  52.913  1.00  0.00     0.039 A 
HETATM   18  C3  UNL     1      28.000   2.233  53.529  1.00  0.00     0.089 A 
HETATM   19  C2  UNL     1      29.088   1.380  54.068  1.00  0.00     0.023 A 
HETATM   20  C1  UNL     1      28.947   0.081  53.858  1.00  0.00     0.136 A 
HETATM   21  F1  UNL     1      29.776  -0.915  54.235  1.00  0.00    -0.205 F 
HETATM   22  C16 UNL     1      27.672  -0.018  53.116  1.00  0.00     0.095 A 
HETATM   23 CL1  UNL     1      27.065  -1.593  52.612  1.00  0.00    -0.079 Cl
ENDBRANCH  15  17
ENDBRANCH   1  15
BRANCH   7  24
HETATM   24  O1  UNL     1      20.864   5.031  50.706  1.00  0.00    -0.339 OA
BRANCH  24  25
HETATM   25  C10 UNL     1      20.347   5.669  49.555  1.00  0.00     0.255 C 
HETATM   26  I1  UNL     1      20.690   7.768  49.675  1.00  0.00    -0.061 I 
ENDBRANCH  24  25
ENDBRANCH   7  24
TORSDOF 4
ENDMDL
MODEL 7
REMARK VINA RESULT:      -7.1      5.506      8.203
REMARK  4 active torsions:
REMARK  status: ('A' for Active; 'I' for Inactive)
REMARK    1  A    between atoms: C4_5  and  N1_6 
REMARK    2  A    between atoms: N1_6  and  C5_7 
REMARK    3  A    between atoms: C9_13  and  O1_14 
REMARK    4  A    between atoms: O1_14  and  C10_15 
ROOT
HETATM    1  C5  UNL     1      24.371   3.959  49.694  1.00  0.00     0.144 A 
HETATM    2  N2  UNL     1      25.202   4.755  49.042  1.00  0.00    -0.223 NA
HETATM    3  C6  UNL     1      26.554   4.627  49.194  1.00  0.00     0.236 A 
HETATM    4  N3  UNL     1      27.032   3.683  50.014  1.00  0.00    -0.241 NA
HETATM    5  C7  UNL     1      26.244   2.845  50.704  1.00  0.00     0.077 A 
HETATM    6  C8  UNL     1      26.755   1.883  51.541  1.00  0.00     0.072 A 
HETATM    7  C9  UNL     1      25.941   1.025  52.246  1.00  0.00     0.108 A 
HETATM    8  C11 UNL     1      24.564   1.185  52.067  1.00  0.00     0.136 A 
HETATM    9  C12 UNL     1      24.064   2.163  51.217  1.00  0.00     0.121 A 
HETATM   10  C13 UNL     1      24.898   2.999  50.530  1.00  0.00     0.075 A 
HETATM   11  O2  UNL     1      22.702   2.245  51.104  1.00  0.00    -0.345 OA
HETATM   12  C14 UNL     1      21.802   1.962  52.185  1.00  0.00     0.202 C 
HETATM   13  C15 UNL     1      22.340   0.878  53.074  1.00  0.00     0.202 C 
HETATM   14  O3  UNL     1      23.611   0.405  52.703  1.00  0.00    -0.344 OA
ENDROOT
BRANCH   1  15
HETATM   15  N1  UNL     1      23.003   4.155  49.486  1.00  0.00    -0.342 N 
HETATM   16  H4  UNL     1      22.108   3.796  49.154  1.00  0.00     0.167 HD
BRANCH  15  17
HETATM   17  C4  UNL     1      22.454   5.434  49.880  1.00  0.00     0.039 A 
HETATM   18  C3  UNL     1      22.055   6.005  51.217  1.00  0.00     0.089 A 
HETATM   19  C2  UNL     1      21.592   7.355  50.809  1.00  0.00     0.023 A 
HETATM   20  C1  UNL     1      21.666   7.611  49.513  1.00  0.00     0.136 A 
HETATM   21  F1  UNL     1      21.317   8.746  48.871  1.00  0.00    -0.205 F 
HETATM   22  C16 UNL     1      22.221   6.366  48.940  1.00  0.00     0.095 A 
HETATM   23 CL1  UNL     1      22.501   6.241  47.205  1.00  0.00    -0.079 Cl
ENDBRANCH  15  17
ENDBRANCH   1  15
BRANCH   7  24
HETATM   24  O1  UNL     1      26.340   0.029  53.109  1.00  0.00    -0.339 OA
BRANCH  24  25
HETATM   25  C10 UNL     1      27.157   0.214  54.248  1.00  0.00     0.255 C 
HETATM   26  I1  UNL     1      29.155  -0.378  53.809  1.00  0.00    -0.061 I 
ENDBRANCH  24  25
ENDBRANCH   7  24
TORSDOF 4
ENDMDL
MODEL 8
REMARK VINA RESULT:      -7.1      5.276      7.962
REMARK  4 active torsions:
REMARK  status: ('A' for Active; 'I' for Inactive)
REMARK    1  A    between atoms: C4_5  and  N1_6 
REMARK    2  A    between atoms: N1_6  and  C5_7 
REMARK    3  A    between atoms: C9_13  and  O1_14 
REMARK    4  A    between atoms: O1_14  and  C10_15 
ROOT
HETATM    1  C5  UNL     1      21.367   2.691  52.248  1.00  0.00     0.144 A 
HETATM    2  N2  UNL     1      21.369   3.826  51.569  1.00  0.00    -0.223 NA
HETATM    3  C6  UNL     1      22.536   4.355  51.097  1.00  0.00     0.236 A 
HETATM    4  N3  UNL     1      23.686   3.710  51.329  1.00  0.00    -0.241 NA
HETATM    5  C7  UNL     1      23.754   2.557  52.011  1.00  0.00     0.077 A 
HETATM    6  C8  UNL     1      24.944   1.911  52.239  1.00  0.00     0.072 A 
HETATM    7  C9  UNL     1      25.007   0.727  52.940  1.00  0.00     0.108 A 
HETATM    8  C11 UNL     1      23.793   0.215  53.408  1.00  0.00     0.136 A 
HETATM    9  C12 UNL     1      22.599   0.881  53.168  1.00  0.00     0.121 A 
HETATM   10  C13 UNL     1      22.568   2.055  52.470  1.00  0.00     0.075 A 
HETATM   11  O2  UNL     1      21.460   0.305  53.665  1.00  0.00    -0.345 OA
HETATM   12  C14 UNL     1      21.424  -0.441  54.890  1.00  0.00     0.202 C 
HETATM   13  C15 UNL     1      22.708  -1.183  55.117  1.00  0.00     0.202 C 
HETATM   14  O3  UNL     1      23.684  -0.963  54.129  1.00  0.00    -0.344 OA
ENDROOT
BRANCH   1  15
HETATM   15  N1  UNL     1      20.132   2.217  52.697  1.00  0.00    -0.342 N 
HETATM   16  H4  UNL     1      19.478   2.071  53.466  1.00  0.00     0.167 HD
BRANCH  15  17
HETATM   17  C4  UNL     1      19.257   1.622  51.711  1.00  0.00     0.039 A 
HETATM   18  C3  UNL     1      19.211   0.253  51.080  1.00  0.00     0.089 A 
HETATM   19  C2  UNL     1      18.040   0.408  50.181  1.00  0.00     0.023 A 
HETATM   20  C1  UNL     1      17.455   1.594  50.212  1.00  0.00     0.136 A 
HETATM   21  F1  UNL     1      16.381   2.008  49.507  1.00  0.00    -0.205 F 
HETATM   22  C16 UNL     1      18.252   2.354  51.199  1.00  0.00     0.095 A 
HETATM   23 CL1  UNL     1      17.832   4.023  51.576  1.00  0.00    -0.079 Cl
ENDBRANCH  15  17
ENDBRANCH   1  15
BRANCH   7  24
HETATM   24  O1  UNL     1      26.137  -0.004  53.228  1.00  0.00    -0.339 OA
BRANCH  24  25
HETATM   25  C10 UNL     1      26.975   0.195  54.349  1.00  0.00     0.255 C 
HETATM   26  I1  UNL     1      28.993  -0.250  53.833  1.00  0.00    -0.061 I 
ENDBRANCH  24  25
ENDBRANCH   7  24
TORSDOF 4
ENDMDL
MODEL 9
REMARK VINA RESULT:      -6.9      4.569      6.407
REMARK  4 active torsions:
REMARK  status: ('A' for Active; 'I' for Inactive)
REMARK    1  A    between atoms: C4_5  and  N1_6 
REMARK    2  A    between atoms: N1_6  and  C5_7 
REMARK    3  A    between atoms: C9_13  and  O1_14 
REMARK    4  A    between atoms: O1_14  and  C10_15 
ROOT
HETATM    1  C5  UNL     1      25.177   3.689  50.022  1.00  0.00     0.144 A 
HETATM    2  N2  UNL     1      26.436   3.444  50.343  1.00  0.00    -0.223 NA
HETATM    3  C6  UNL     1      26.749   2.473  51.250  1.00  0.00     0.236 A 
HETATM    4  N3  UNL     1      25.763   1.766  51.815  1.00  0.00    -0.241 NA
HETATM    5  C7  UNL     1      24.466   1.964  51.535  1.00  0.00     0.077 A 
HETATM    6  C8  UNL     1      23.469   1.228  52.126  1.00  0.00     0.072 A 
HETATM    7  C9  UNL     1      22.139   1.435  51.833  1.00  0.00     0.108 A 
HETATM    8  C11 UNL     1      21.857   2.437  50.901  1.00  0.00     0.136 A 
HETATM    9  C12 UNL     1      22.877   3.172  50.312  1.00  0.00     0.121 A 
HETATM   10  C13 UNL     1      24.187   2.943  50.623  1.00  0.00     0.075 A 
HETATM   11  O2  UNL     1      22.505   4.133  49.410  1.00  0.00    -0.345 OA
HETATM   12  C14 UNL     1      21.291   4.890  49.520  1.00  0.00     0.202 C 
HETATM   13  C15 UNL     1      20.188   4.071  50.124  1.00  0.00     0.202 C 
HETATM   14  O3  UNL     1      20.573   2.771  50.498  1.00  0.00    -0.344 OA
ENDROOT
BRANCH   1  15
HETATM   15  N1  UNL     1      24.940   4.699  49.086  1.00  0.00    -0.342 N 
HETATM   16  H4  UNL     1      24.396   5.054  48.300  1.00  0.00     0.167 HD
BRANCH  15  17
HETATM   17  C4  UNL     1      25.804   5.858  49.137  1.00  0.00     0.039 A 
HETATM   18  C3  UNL     1      27.076   6.216  48.410  1.00  0.00     0.089 A 
HETATM   19  C2  UNL     1      27.353   7.554  48.990  1.00  0.00     0.023 A 
HETATM   20  C1  UNL     1      26.475   7.977  49.885  1.00  0.00     0.136 A 
HETATM   21  F1  UNL     1      26.478   9.143  50.565  1.00  0.00    -0.205 F 
HETATM   22  C16 UNL     1      25.492   6.873  49.961  1.00  0.00     0.095 A 
HETATM   23 CL1  UNL     1      24.112   6.995  51.048  1.00  0.00    -0.079 Cl
ENDBRANCH  15  17
ENDBRANCH   1  15
BRANCH   7  24
HETATM   24  O1  UNL     1      21.062   0.762  52.362  1.00  0.00    -0.339 OA
BRANCH  24  25
HETATM   25  C10 UNL     1      20.806   0.584  53.742  1.00  0.00     0.255 C 
HETATM   26  I1  UNL     1      21.569  -1.298  54.383  1.00  0.00    -0.061 I 
ENDBRANCH  24  25
ENDBRANCH   7  24
TORSDOF 4
ENDMDL
