MODEL 1
REMARK VINA RESULT:      -7.6      0.000      0.000
REMARK  8 active torsions:
REMARK  status: ('A' for Active; 'I' for Inactive)
REMARK    1  A    between atoms: N1_2  and  N2_3 
REMARK    2  A    between atoms: N2_3  and  C2_4 
REMARK    3  A    between atoms: C5_7  and  C6_8 
REMARK    4  A    between atoms: C7_9  and  C8_10 
REMARK    5  A    between atoms: N4_18  and  C14_19 
REMARK    6  A    between atoms: C14_19  and  C15_20 
REMARK    7  A    between atoms: C15_20  and  C16_21 
REMARK    8  A    between atoms: C16_21  and  N5_22 
ROOT
HETATM    1  C6  UNL     1      24.571   0.502  53.366  1.00  0.00     0.071 A 
HETATM    2  C7  UNL     1      25.846  -0.039  53.536  1.00  0.00     0.074 A 
HETATM    3  N3  UNL     1      25.779  -1.087  54.382  1.00  0.00    -0.245 NA
HETATM    4  C13 UNL     1      24.497  -1.230  54.755  1.00  0.00     0.210 A 
HETATM    5  N4  UNL     1      23.789  -0.269  54.137  1.00  0.00    -0.339 N 
ENDROOT
BRANCH   1   6
HETATM    6  C5  UNL     1      24.297   1.642  52.508  1.00  0.00    -0.007 A 
HETATM    7  C4  UNL     1      24.122   1.691  51.161  1.00  0.00     0.016 A 
HETATM    8  C3  UNL     1      23.877   2.859  50.472  1.00  0.00     0.032 A 
HETATM    9  C2  UNL     1      23.796   4.066  51.138  1.00  0.00     0.050 A 
HETATM   10  C22 UNL     1      23.973   4.034  52.520  1.00  0.00     0.032 A 
HETATM   11  C21 UNL     1      24.218   2.856  53.197  1.00  0.00     0.016 A 
BRANCH   9  12
HETATM   12  N2  UNL     1      23.541   5.262  50.414  1.00  0.00    -0.280 N 
HETATM   13  H3  UNL     1      22.988   4.871  49.605  1.00  0.00     0.189 HD
BRANCH  12  14
HETATM   14  N1  UNL     1      23.894   6.588  50.654  1.00  0.00    -0.198 NA
HETATM   15  C1  UNL     1      25.111   6.936  50.356  1.00  0.00     0.173 C 
ENDBRANCH  12  14
ENDBRANCH   9  12
ENDBRANCH   1   6
BRANCH   2  16
HETATM   16  C8  UNL     1      27.158   0.343  52.967  1.00  0.00     0.088 A 
HETATM   17  C9  UNL     1      27.846   1.367  53.792  1.00  0.00    -0.009 A 
HETATM   18  C10 UNL     1      29.020   0.918  54.260  1.00  0.00     0.039 A 
HETATM   19  C11 UNL     1      29.195  -0.447  53.772  1.00  0.00     0.113 A 
HETATM   20  F1  UNL     1      30.300  -1.162  54.085  1.00  0.00    -0.206 F 
HETATM   21  C12 UNL     1      28.137  -0.777  53.038  1.00  0.00     0.030 A 
ENDBRANCH   2  16
BRANCH   5  22
HETATM   22  C14 UNL     1      22.384  -0.151  54.316  1.00  0.00     0.132 C 
BRANCH  22  23
HETATM   23  C15 UNL     1      21.595  -0.589  53.088  1.00  0.00     0.050 C 
BRANCH  23  24
HETATM   24  C16 UNL     1      20.196  -0.055  53.249  1.00  0.00     0.274 C 
BRANCH  24  25
HETATM   25  N5  UNL     1      19.839   0.883  52.208  1.00  0.00     0.092 N 
HETATM   26  C17 UNL     1      20.228   2.239  52.538  1.00  0.00     0.298 C 
HETATM   27  C18 UNL     1      20.250   3.102  51.307  1.00  0.00     0.198 C 
HETATM   28  O1  UNL     1      19.648   2.526  50.214  1.00  0.00    -0.388 OA
HETATM   29  C19 UNL     1      20.238   1.317  49.851  1.00  0.00     0.198 C 
HETATM   30  C20 UNL     1      20.641   0.504  51.041  1.00  0.00     0.298 C 
ENDBRANCH  24  25
ENDBRANCH  23  24
ENDBRANCH  22  23
ENDBRANCH   5  22
TORSDOF 8
ENDMDL
MODEL 2
REMARK VINA RESULT:      -7.5      1.021      1.332
REMARK  8 active torsions:
REMARK  status: ('A' for Active; 'I' for Inactive)
REMARK    1  A    between atoms: N1_2  and  N2_3 
REMARK    2  A    between atoms: N2_3  and  C2_4 
REMARK    3  A    between atoms: C5_7  and  C6_8 
REMARK    4  A    between atoms: C7_9  and  C8_10 
REMARK    5  A    between atoms: N4_18  and  C14_19 
REMARK    6  A    between atoms: C14_19  and  C15_20 
REMARK    7  A    between atoms: C15_20  and  C16_21 
REMARK    8  A    between atoms: C16_21  and  N5_22 
ROOT
HETATM    1  C6  UNL     1      24.390   0.391  53.468  1.00  0.00     0.071 A 
HETATM    2  C7  UNL     1      25.689  -0.095  53.624  1.00  0.00     0.074 A 
HETATM    3  N3  UNL     1      25.691  -1.077  54.549  1.00  0.00    -0.245 NA
HETATM    4  C13 UNL     1      24.430  -1.231  54.986  1.00  0.00     0.210 A 
HETATM    5  N4  UNL     1      23.666  -0.342  54.327  1.00  0.00    -0.339 N 
ENDROOT
BRANCH   1   6
HETATM    6  C5  UNL     1      24.043   1.453  52.539  1.00  0.00    -0.007 A 
HETATM    7  C4  UNL     1      23.630   1.373  51.246  1.00  0.00     0.016 A 
HETATM    8  C3  UNL     1      23.345   2.478  50.473  1.00  0.00     0.032 A 
HETATM    9  C2  UNL     1      23.468   3.752  50.994  1.00  0.00     0.050 A 
HETATM   10  C22 UNL     1      23.890   3.852  52.318  1.00  0.00     0.032 A 
HETATM   11  C21 UNL     1      24.174   2.736  53.080  1.00  0.00     0.016 A 
BRANCH   9  12
HETATM   12  N2  UNL     1      23.169   4.882  50.185  1.00  0.00    -0.280 N 
HETATM   13  H3  UNL     1      23.683   4.616  49.302  1.00  0.00     0.189 HD
BRANCH  12  14
HETATM   14  N1  UNL     1      22.422   6.031  50.432  1.00  0.00    -0.198 NA
HETATM   15  C1  UNL     1      21.148   5.872  50.635  1.00  0.00     0.173 C 
ENDBRANCH  12  14
ENDBRANCH   9  12
ENDBRANCH   1   6
BRANCH   2  16
HETATM   16  C8  UNL     1      26.963   0.283  52.974  1.00  0.00     0.088 A 
HETATM   17  C9  UNL     1      27.655   1.377  53.698  1.00  0.00    -0.009 A 
HETATM   18  C10 UNL     1      28.861   0.991  54.141  1.00  0.00     0.039 A 
HETATM   19  C11 UNL     1      29.055  -0.398  53.736  1.00  0.00     0.113 A 
HETATM   20  F1  UNL     1      30.192  -1.061  54.046  1.00  0.00    -0.206 F 
HETATM   21  C12 UNL     1      27.977  -0.804  53.073  1.00  0.00     0.030 A 
ENDBRANCH   2  16
BRANCH   5  22
HETATM   22  C14 UNL     1      22.265  -0.254  54.556  1.00  0.00     0.132 C 
BRANCH  22  23
HETATM   23  C15 UNL     1      21.451  -1.024  53.523  1.00  0.00     0.050 C 
BRANCH  23  24
HETATM   24  C16 UNL     1      20.112  -0.343  53.422  1.00  0.00     0.274 C 
BRANCH  24  25
HETATM   25  N5  UNL     1      19.799   0.064  52.070  1.00  0.00     0.092 N 
HETATM   26  C17 UNL     1      18.431  -0.247  51.709  1.00  0.00     0.298 C 
HETATM   27  C18 UNL     1      18.003   0.548  50.506  1.00  0.00     0.198 C 
HETATM   28  O1  UNL     1      19.041   1.166  49.851  1.00  0.00    -0.388 OA
HETATM   29  C19 UNL     1      19.743   2.048  50.670  1.00  0.00     0.198 C 
HETATM   30  C20 UNL     1      19.898   1.527  52.064  1.00  0.00     0.298 C 
ENDBRANCH  24  25
ENDBRANCH  23  24
ENDBRANCH  22  23
ENDBRANCH   5  22
TORSDOF 8
ENDMDL
MODEL 3
REMARK VINA RESULT:      -7.5      3.303      6.804
REMARK  8 active torsions:
REMARK  status: ('A' for Active; 'I' for Inactive)
REMARK    1  A    between atoms: N1_2  and  N2_3 
REMARK    2  A    between atoms: N2_3  and  C2_4 
REMARK    3  A    between atoms: C5_7  and  C6_8 
REMARK    4  A    between atoms: C7_9  and  C8_10 
REMARK    5  A    between atoms: N4_18  and  C14_19 
REMARK    6  A    between atoms: C14_19  and  C15_20 
REMARK    7  A    between atoms: C15_20  and  C16_21 
REMARK    8  A    between atoms: C16_21  and  N5_22 
ROOT
HETATM    1  C6  UNL     1      23.318   2.731  52.260  1.00  0.00     0.071 A 
HETATM    2  C7  UNL     1      22.184   1.921  52.316  1.00  0.00     0.074 A 
HETATM    3  N3  UNL     1      21.082   2.679  52.137  1.00  0.00    -0.245 NA
HETATM    4  C13 UNL     1      21.484   3.949  51.967  1.00  0.00     0.210 A 
HETATM    5  N4  UNL     1      22.826   3.960  52.044  1.00  0.00    -0.339 N 
ENDROOT
BRANCH   1   6
HETATM    6  C5  UNL     1      24.670   2.221  52.409  1.00  0.00    -0.007 A 
HETATM    7  C4  UNL     1      25.446   1.546  51.520  1.00  0.00     0.016 A 
HETATM    8  C3  UNL     1      26.721   1.108  51.806  1.00  0.00     0.032 A 
HETATM    9  C2  UNL     1      27.283   1.343  53.046  1.00  0.00     0.050 A 
HETATM   10  C22 UNL     1      26.502   2.033  53.970  1.00  0.00     0.032 A 
HETATM   11  C21 UNL     1      25.226   2.465  53.669  1.00  0.00     0.016 A 
BRANCH   9  12
HETATM   12  N2  UNL     1      28.600   0.886  53.327  1.00  0.00    -0.280 N 
HETATM   13  H3  UNL     1      29.156   1.560  52.735  1.00  0.00     0.189 HD
BRANCH  12  14
HETATM   14  N1  UNL     1      29.075  -0.143  54.136  1.00  0.00    -0.198 NA
HETATM   15  C1  UNL     1      29.746  -1.090  53.550  1.00  0.00     0.173 C 
ENDBRANCH  12  14
ENDBRANCH   9  12
ENDBRANCH   1   6
BRANCH   2  16
HETATM   16  C8  UNL     1      22.028   0.465  52.530  1.00  0.00     0.088 A 
HETATM   17  C9  UNL     1      22.211   0.087  53.953  1.00  0.00    -0.009 A 
HETATM   18  C10 UNL     1      21.106  -0.477  54.461  1.00  0.00     0.039 A 
HETATM   19  C11 UNL     1      20.103  -0.515  53.401  1.00  0.00     0.113 A 
HETATM   20  F1  UNL     1      18.875  -1.036  53.622  1.00  0.00    -0.206 F 
HETATM   21  C12 UNL     1      20.625   0.021  52.301  1.00  0.00     0.030 A 
ENDBRANCH   2  16
BRANCH   5  22
HETATM   22  C14 UNL     1      23.567   5.164  51.895  1.00  0.00     0.132 C 
BRANCH  22  23
HETATM   23  C15 UNL     1      23.465   5.748  50.491  1.00  0.00     0.050 C 
BRANCH  23  24
HETATM   24  C16 UNL     1      24.118   4.765  49.556  1.00  0.00     0.274 C 
BRANCH  24  25
HETATM   25  N5  UNL     1      25.281   5.318  48.897  1.00  0.00     0.092 N 
HETATM   26  C17 UNL     1      25.536   6.686  49.299  1.00  0.00     0.298 C 
HETATM   27  C18 UNL     1      26.945   7.088  48.959  1.00  0.00     0.198 C 
HETATM   28  O1  UNL     1      27.585   6.210  48.116  1.00  0.00    -0.388 OA
HETATM   29  C19 UNL     1      27.664   4.922  48.643  1.00  0.00     0.198 C 
HETATM   30  C20 UNL     1      26.421   4.534  49.380  1.00  0.00     0.298 C 
ENDBRANCH  24  25
ENDBRANCH  23  24
ENDBRANCH  22  23
ENDBRANCH   5  22
TORSDOF 8
ENDMDL
MODEL 4
REMARK VINA RESULT:      -7.4      2.429      5.897
REMARK  8 active torsions:
REMARK  status: ('A' for Active; 'I' for Inactive)
REMARK    1  A    between atoms: N1_2  and  N2_3 
REMARK    2  A    between atoms: N2_3  and  C2_4 
REMARK    3  A    between atoms: C5_7  and  C6_8 
REMARK    4  A    between atoms: C7_9  and  C8_10 
REMARK    5  A    between atoms: N4_18  and  C14_19 
REMARK    6  A    between atoms: C14_19  and  C15_20 
REMARK    7  A    between atoms: C15_20  and  C16_21 
REMARK    8  A    between atoms: C16_21  and  N5_22 
ROOT
HETATM    1  C6  UNL     1      24.084   1.584  51.806  1.00  0.00     0.071 A 
HETATM    2  C7  UNL     1      25.343   1.107  52.174  1.00  0.00     0.074 A 
HETATM    3  N3  UNL     1      26.294   1.921  51.673  1.00  0.00    -0.245 NA
HETATM    4  C13 UNL     1      25.677   2.904  50.996  1.00  0.00     0.210 A 
HETATM    5  N4  UNL     1      24.354   2.684  51.087  1.00  0.00    -0.339 N 
ENDROOT
BRANCH   1   6
HETATM    6  C5  UNL     1      22.843   0.936  52.193  1.00  0.00    -0.007 A 
HETATM    7  C4  UNL     1      21.811   0.506  51.419  1.00  0.00     0.016 A 
HETATM    8  C3  UNL     1      20.677  -0.088  51.931  1.00  0.00     0.032 A 
HETATM    9  C2  UNL     1      20.535  -0.277  53.292  1.00  0.00     0.050 A 
HETATM   10  C22 UNL     1      21.584   0.158  54.100  1.00  0.00     0.032 A 
HETATM   11  C21 UNL     1      22.713   0.752  53.573  1.00  0.00     0.016 A 
BRANCH   9  12
HETATM   12  N2  UNL     1      19.361  -0.892  53.805  1.00  0.00    -0.280 N 
HETATM   13  H3  UNL     1      19.702  -1.164  54.766  1.00  0.00     0.189 HD
BRANCH  12  14
HETATM   14  N1  UNL     1      18.102  -1.101  53.248  1.00  0.00    -0.198 NA
HETATM   15  C1  UNL     1      17.586  -2.287  53.388  1.00  0.00     0.173 C 
ENDBRANCH  12  14
ENDBRANCH   9  12
ENDBRANCH   1   6
BRANCH   2  16
HETATM   16  C8  UNL     1      25.751  -0.070  52.972  1.00  0.00     0.088 A 
HETATM   17  C9  UNL     1      26.837  -0.839  52.314  1.00  0.00    -0.009 A 
HETATM   18  C10 UNL     1      27.943  -0.879  53.072  1.00  0.00     0.039 A 
HETATM   19  C11 UNL     1      27.666  -0.134  54.296  1.00  0.00     0.113 A 
HETATM   20  F1  UNL     1      28.606  -0.003  55.259  1.00  0.00    -0.206 F 
HETATM   21  C12 UNL     1      26.420   0.328  54.241  1.00  0.00     0.030 A 
ENDBRANCH   2  16
BRANCH   5  22
HETATM   22  C14 UNL     1      23.413   3.559  50.479  1.00  0.00     0.132 C 
BRANCH  22  23
HETATM   23  C15 UNL     1      23.575   3.637  48.965  1.00  0.00     0.050 C 
BRANCH  23  24
HETATM   24  C16 UNL     1      23.499   5.093  48.589  1.00  0.00     0.274 C 
BRANCH  24  25
HETATM   25  N5  UNL     1      24.410   5.911  49.359  1.00  0.00     0.092 N 
HETATM   26  C17 UNL     1      25.715   6.007  48.738  1.00  0.00     0.298 C 
HETATM   27  C18 UNL     1      26.486   7.172  49.294  1.00  0.00     0.198 C 
HETATM   28  O1  UNL     1      25.934   7.712  50.431  1.00  0.00    -0.388 OA
HETATM   29  C19 UNL     1      24.632   8.167  50.230  1.00  0.00     0.198 C 
HETATM   30  C20 UNL     1      23.848   7.264  49.332  1.00  0.00     0.298 C 
ENDBRANCH  24  25
ENDBRANCH  23  24
ENDBRANCH  22  23
ENDBRANCH   5  22
TORSDOF 8
ENDMDL
MODEL 5
REMARK VINA RESULT:      -7.4      1.945      4.818
REMARK  8 active torsions:
REMARK  status: ('A' for Active; 'I' for Inactive)
REMARK    1  A    between atoms: N1_2  and  N2_3 
REMARK    2  A    between atoms: N2_3  and  C2_4 
REMARK    3  A    between atoms: C5_7  and  C6_8 
REMARK    4  A    between atoms: C7_9  and  C8_10 
REMARK    5  A    between atoms: N4_18  and  C14_19 
REMARK    6  A    between atoms: C14_19  and  C15_20 
REMARK    7  A    between atoms: C15_20  and  C16_21 
REMARK    8  A    between atoms: C16_21  and  N5_22 
ROOT
HETATM    1  C6  UNL     1      24.506   1.838  51.578  1.00  0.00     0.071 A 
HETATM    2  C7  UNL     1      25.691   1.252  52.024  1.00  0.00     0.074 A 
HETATM    3  N3  UNL     1      26.743   1.941  51.533  1.00  0.00    -0.245 NA
HETATM    4  C13 UNL     1      26.260   2.950  50.789  1.00  0.00     0.210 A 
HETATM    5  N4  UNL     1      24.919   2.871  50.828  1.00  0.00    -0.339 N 
ENDROOT
BRANCH   1   6
HETATM    6  C5  UNL     1      23.188   1.340  51.934  1.00  0.00    -0.007 A 
HETATM    7  C4  UNL     1      22.630   1.164  53.161  1.00  0.00     0.016 A 
HETATM    8  C3  UNL     1      21.359   0.666  53.349  1.00  0.00     0.032 A 
HETATM    9  C2  UNL     1      20.573   0.314  52.269  1.00  0.00     0.050 A 
HETATM   10  C22 UNL     1      21.130   0.489  51.004  1.00  0.00     0.032 A 
HETATM   11  C21 UNL     1      22.405   0.988  50.830  1.00  0.00     0.016 A 
BRANCH   9  12
HETATM   12  N2  UNL     1      19.263  -0.197  52.479  1.00  0.00    -0.280 N 
HETATM   13  H3  UNL     1      18.749   0.291  51.698  1.00  0.00     0.189 HD
BRANCH  12  14
HETATM   14  N1  UNL     1      18.752  -1.085  53.422  1.00  0.00    -0.198 NA
HETATM   15  C1  UNL     1      17.588  -1.605  53.170  1.00  0.00     0.173 C 
ENDBRANCH  12  14
ENDBRANCH   9  12
ENDBRANCH   1   6
BRANCH   2  16
HETATM   16  C8  UNL     1      25.941   0.077  52.887  1.00  0.00     0.088 A 
HETATM   17  C9  UNL     1      26.979  -0.820  52.320  1.00  0.00    -0.009 A 
HETATM   18  C10 UNL     1      28.035  -0.932  53.139  1.00  0.00     0.039 A 
HETATM   19  C11 UNL     1      27.769  -0.112  54.317  1.00  0.00     0.113 A 
HETATM   20  F1  UNL     1      28.666  -0.030  55.326  1.00  0.00    -0.206 F 
HETATM   21  C12 UNL     1      26.579   0.463  54.176  1.00  0.00     0.030 A 
ENDBRANCH   2  16
BRANCH   5  22
HETATM   22  C14 UNL     1      24.101   3.810  50.142  1.00  0.00     0.132 C 
BRANCH  22  23
HETATM   23  C15 UNL     1      24.021   5.154  50.857  1.00  0.00     0.050 C 
BRANCH  23  24
HETATM   24  C16 UNL     1      22.796   5.114  51.732  1.00  0.00     0.274 C 
BRANCH  24  25
HETATM   25  N5  UNL     1      21.630   4.626  51.029  1.00  0.00     0.092 N 
HETATM   26  C17 UNL     1      20.654   4.047  51.929  1.00  0.00     0.298 C 
HETATM   27  C18 UNL     1      19.309   3.949  51.264  1.00  0.00     0.198 C 
HETATM   28  O1  UNL     1      19.344   4.153  49.905  1.00  0.00    -0.388 OA
HETATM   29  C19 UNL     1      19.856   5.403  49.564  1.00  0.00     0.198 C 
HETATM   30  C20 UNL     1      20.993   5.810  50.446  1.00  0.00     0.298 C 
ENDBRANCH  24  25
ENDBRANCH  23  24
ENDBRANCH  22  23
ENDBRANCH   5  22
TORSDOF 8
ENDMDL
MODEL 6
REMARK VINA RESULT:      -7.4      0.723      1.429
REMARK  8 active torsions:
REMARK  status: ('A' for Active; 'I' for Inactive)
REMARK    1  A    between atoms: N1_2  and  N2_3 
REMARK    2  A    between atoms: N2_3  and  C2_4 
REMARK    3  A    between atoms: C5_7  and  C6_8 
REMARK    4  A    between atoms: C7_9  and  C8_10 
REMARK    5  A    between atoms: N4_18  and  C14_19 
REMARK    6  A    between atoms: C14_19  and  C15_20 
REMARK    7  A    between atoms: C15_20  and  C16_21 
REMARK    8  A    between atoms: C16_21  and  N5_22 
ROOT
HETATM    1  C6  UNL     1      24.549   0.702  53.307  1.00  0.00     0.071 A 
HETATM    2  C7  UNL     1      25.816   0.137  53.453  1.00  0.00     0.074 A 
HETATM    3  N3  UNL     1      25.716  -1.013  54.152  1.00  0.00    -0.245 NA
HETATM    4  C13 UNL     1      24.420  -1.197  54.453  1.00  0.00     0.210 A 
HETATM    5  N4  UNL     1      23.737  -0.160  53.939  1.00  0.00    -0.339 N 
ENDROOT
BRANCH   1   6
HETATM    6  C5  UNL     1      24.308   1.945  52.596  1.00  0.00    -0.007 A 
HETATM    7  C4  UNL     1      24.079   3.193  53.084  1.00  0.00     0.016 A 
HETATM    8  C3  UNL     1      23.853   4.291  52.281  1.00  0.00     0.032 A 
HETATM    9  C2  UNL     1      23.849   4.167  50.905  1.00  0.00     0.050 A 
HETATM   10  C22 UNL     1      24.082   2.894  50.388  1.00  0.00     0.032 A 
HETATM   11  C21 UNL     1      24.307   1.804  51.205  1.00  0.00     0.016 A 
BRANCH   9  12
HETATM   12  N2  UNL     1      23.616   5.308  50.090  1.00  0.00    -0.280 N 
HETATM   13  H3  UNL     1      24.120   5.011  49.212  1.00  0.00     0.189 HD
BRANCH  12  14
HETATM   14  N1  UNL     1      22.931   6.496  50.328  1.00  0.00    -0.198 NA
HETATM   15  C1  UNL     1      23.633   7.591  50.329  1.00  0.00     0.173 C 
ENDBRANCH  12  14
ENDBRANCH   9  12
ENDBRANCH   1   6
BRANCH   2  16
HETATM   16  C8  UNL     1      27.149   0.584  52.991  1.00  0.00     0.088 A 
HETATM   17  C9  UNL     1      27.799   1.496  53.964  1.00  0.00    -0.009 A 
HETATM   18  C10 UNL     1      28.955   0.990  54.420  1.00  0.00     0.039 A 
HETATM   19  C11 UNL     1      29.154  -0.304  53.775  1.00  0.00     0.113 A 
HETATM   20  F1  UNL     1      30.247  -1.055  54.042  1.00  0.00    -0.206 F 
HETATM   21  C12 UNL     1      28.128  -0.538  52.962  1.00  0.00     0.030 A 
ENDBRANCH   2  16
BRANCH   5  22
HETATM   22  C14 UNL     1      22.326  -0.059  54.078  1.00  0.00     0.132 C 
BRANCH  22  23
HETATM   23  C15 UNL     1      21.591  -0.221  52.753  1.00  0.00     0.050 C 
BRANCH  23  24
HETATM   24  C16 UNL     1      20.501   0.817  52.724  1.00  0.00     0.274 C 
BRANCH  24  25
HETATM   25  N5  UNL     1      20.749   1.851  51.743  1.00  0.00     0.092 N 
HETATM   26  C17 UNL     1      20.383   1.433  50.406  1.00  0.00     0.298 C 
HETATM   27  C18 UNL     1      20.236   2.622  49.497  1.00  0.00     0.198 C 
HETATM   28  O1  UNL     1      20.735   3.789  50.023  1.00  0.00    -0.388 OA
HETATM   29  C19 UNL     1      20.122   4.140  51.225  1.00  0.00     0.198 C 
HETATM   30  C20 UNL     1      19.842   2.950  52.087  1.00  0.00     0.298 C 
ENDBRANCH  24  25
ENDBRANCH  23  24
ENDBRANCH  22  23
ENDBRANCH   5  22
TORSDOF 8
ENDMDL
MODEL 7
REMARK VINA RESULT:      -7.3      2.390      5.641
REMARK  8 active torsions:
REMARK  status: ('A' for Active; 'I' for Inactive)
REMARK    1  A    between atoms: N1_2  and  N2_3 
REMARK    2  A    between atoms: N2_3  and  C2_4 
REMARK    3  A    between atoms: C5_7  and  C6_8 
REMARK    4  A    between atoms: C7_9  and  C8_10 
REMARK    5  A    between atoms: N4_18  and  C14_19 
REMARK    6  A    between atoms: C14_19  and  C15_20 
REMARK    7  A    between atoms: C15_20  and  C16_21 
REMARK    8  A    between atoms: C16_21  and  N5_22 
ROOT
HETATM    1  C6  UNL     1      23.910   1.396  52.014  1.00  0.00     0.071 A 
HETATM    2  C7  UNL     1      25.193   0.887  52.221  1.00  0.00     0.074 A 
HETATM    3  N3  UNL     1      26.090   1.655  51.569  1.00  0.00    -0.245 NA
HETATM    4  C13 UNL     1      25.414   2.640  50.954  1.00  0.00     0.210 A 
HETATM    5  N4  UNL     1      24.110   2.468  51.232  1.00  0.00    -0.339 N 
ENDROOT
BRANCH   1   6
HETATM    6  C5  UNL     1      22.715   0.802  52.588  1.00  0.00    -0.007 A 
HETATM    7  C4  UNL     1      22.454   0.448  53.874  1.00  0.00     0.016 A 
HETATM    8  C3  UNL     1      21.266  -0.124  54.276  1.00  0.00     0.032 A 
HETATM    9  C2  UNL     1      20.259  -0.369  53.363  1.00  0.00     0.050 A 
HETATM   10  C22 UNL     1      20.509  -0.012  52.040  1.00  0.00     0.032 A 
HETATM   11  C21 UNL     1      21.705   0.559  51.652  1.00  0.00     0.016 A 
BRANCH   9  12
HETATM   12  N2  UNL     1      19.038  -0.958  53.793  1.00  0.00    -0.280 N 
HETATM   13  H3  UNL     1      19.051  -0.682  54.811  1.00  0.00     0.189 HD
BRANCH  12  14
HETATM   14  N1  UNL     1      18.071  -1.694  53.113  1.00  0.00    -0.198 NA
HETATM   15  C1  UNL     1      17.726  -2.834  53.634  1.00  0.00     0.173 C 
ENDBRANCH  12  14
ENDBRANCH   9  12
ENDBRANCH   1   6
BRANCH   2  16
HETATM   16  C8  UNL     1      25.672  -0.283  52.990  1.00  0.00     0.088 A 
HETATM   17  C9  UNL     1      26.806  -0.965  52.317  1.00  0.00    -0.009 A 
HETATM   18  C10 UNL     1      27.910  -0.954  53.079  1.00  0.00     0.039 A 
HETATM   19  C11 UNL     1      27.583  -0.260  54.320  1.00  0.00     0.113 A 
HETATM   20  F1  UNL     1      28.511  -0.095  55.291  1.00  0.00    -0.206 F 
HETATM   21  C12 UNL     1      26.311   0.124  54.272  1.00  0.00     0.030 A 
ENDBRANCH   2  16
BRANCH   5  22
HETATM   22  C14 UNL     1      23.121   3.359  50.733  1.00  0.00     0.132 C 
BRANCH  22  23
HETATM   23  C15 UNL     1      22.614   4.329  51.793  1.00  0.00     0.050 C 
BRANCH  23  24
HETATM   24  C16 UNL     1      23.421   5.592  51.657  1.00  0.00     0.274 C 
BRANCH  24  25
HETATM   25  N5  UNL     1      22.932   6.449  50.598  1.00  0.00     0.092 N 
HETATM   26  C17 UNL     1      21.546   6.821  50.795  1.00  0.00     0.298 C 
HETATM   27  C18 UNL     1      21.192   8.021  49.960  1.00  0.00     0.198 C 
HETATM   28  O1  UNL     1      22.133   8.331  49.007  1.00  0.00    -0.388 OA
HETATM   29  C19 UNL     1      23.386   8.595  49.556  1.00  0.00     0.198 C 
HETATM   30  C20 UNL     1      23.705   7.690  50.704  1.00  0.00     0.298 C 
ENDBRANCH  24  25
ENDBRANCH  23  24
ENDBRANCH  22  23
ENDBRANCH   5  22
TORSDOF 8
ENDMDL
MODEL 8
REMARK VINA RESULT:      -7.2      2.580      5.202
REMARK  8 active torsions:
REMARK  status: ('A' for Active; 'I' for Inactive)
REMARK    1  A    between atoms: N1_2  and  N2_3 
REMARK    2  A    between atoms: N2_3  and  C2_4 
REMARK    3  A    between atoms: C5_7  and  C6_8 
REMARK    4  A    between atoms: C7_9  and  C8_10 
REMARK    5  A    between atoms: N4_18  and  C14_19 
REMARK    6  A    between atoms: C14_19  and  C15_20 
REMARK    7  A    between atoms: C15_20  and  C16_21 
REMARK    8  A    between atoms: C16_21  and  N5_22 
ROOT
HETATM    1  C6  UNL     1      24.008   1.568  51.803  1.00  0.00     0.071 A 
HETATM    2  C7  UNL     1      25.274   1.099  52.155  1.00  0.00     0.074 A 
HETATM    3  N3  UNL     1      26.214   1.923  51.648  1.00  0.00    -0.245 NA
HETATM    4  C13 UNL     1      25.582   2.906  50.985  1.00  0.00     0.210 A 
HETATM    5  N4  UNL     1      24.262   2.675  51.089  1.00  0.00    -0.339 N 
ENDROOT
BRANCH   1   6
HETATM    6  C5  UNL     1      22.776   0.909  52.199  1.00  0.00    -0.007 A 
HETATM    7  C4  UNL     1      21.753   0.449  51.432  1.00  0.00     0.016 A 
HETATM    8  C3  UNL     1      20.627  -0.153  51.952  1.00  0.00     0.032 A 
HETATM    9  C2  UNL     1      20.485  -0.320  53.316  1.00  0.00     0.050 A 
HETATM   10  C22 UNL     1      21.524   0.146  54.117  1.00  0.00     0.032 A 
HETATM   11  C21 UNL     1      22.646   0.748  53.582  1.00  0.00     0.016 A 
BRANCH   9  12
HETATM   12  N2  UNL     1      19.318  -0.943  53.837  1.00  0.00    -0.280 N 
HETATM   13  H3  UNL     1      19.672  -1.221  54.792  1.00  0.00     0.189 HD
BRANCH  12  14
HETATM   14  N1  UNL     1      18.054  -1.153  53.293  1.00  0.00    -0.198 NA
HETATM   15  C1  UNL     1      17.556  -2.349  53.405  1.00  0.00     0.173 C 
ENDBRANCH  12  14
ENDBRANCH   9  12
ENDBRANCH   1   6
BRANCH   2  16
HETATM   16  C8  UNL     1      25.700  -0.081  52.940  1.00  0.00     0.088 A 
HETATM   17  C9  UNL     1      26.815  -0.812  52.287  1.00  0.00    -0.009 A 
HETATM   18  C10 UNL     1      27.910  -0.836  53.061  1.00  0.00     0.039 A 
HETATM   19  C11 UNL     1      27.595  -0.118  54.293  1.00  0.00     0.113 A 
HETATM   20  F1  UNL     1      28.516   0.021  55.273  1.00  0.00    -0.206 F 
HETATM   21  C12 UNL     1      26.339   0.313  54.226  1.00  0.00     0.030 A 
ENDBRANCH   2  16
BRANCH   5  22
HETATM   22  C14 UNL     1      23.308   3.548  50.497  1.00  0.00     0.132 C 
BRANCH  22  23
HETATM   23  C15 UNL     1      23.416   3.594  48.977  1.00  0.00     0.050 C 
BRANCH  23  24
HETATM   24  C16 UNL     1      22.693   2.385  48.447  1.00  0.00     0.274 C 
BRANCH  24  25
HETATM   25  N5  UNL     1      21.802   2.708  47.355  1.00  0.00     0.092 N 
HETATM   26  C17 UNL     1      20.413   2.710  47.767  1.00  0.00     0.298 C 
HETATM   27  C18 UNL     1      19.563   3.451  46.773  1.00  0.00     0.198 C 
HETATM   28  O1  UNL     1      20.202   3.716  45.584  1.00  0.00    -0.388 OA
HETATM   29  C19 UNL     1      21.355   4.480  45.755  1.00  0.00     0.198 C 
HETATM   30  C20 UNL     1      22.116   4.090  46.982  1.00  0.00     0.298 C 
ENDBRANCH  24  25
ENDBRANCH  23  24
ENDBRANCH  22  23
ENDBRANCH   5  22
TORSDOF 8
ENDMDL
MODEL 9
REMARK VINA RESULT:      -6.7      2.510      3.439
REMARK  8 active torsions:
REMARK  status: ('A' for Active; 'I' for Inactive)
REMARK    1  A    between atoms: N1_2  and  N2_3 
REMARK    2  A    between atoms: N2_3  and  C2_4 
REMARK    3  A    between atoms: C5_7  and  C6_8 
REMARK    4  A    between atoms: C7_9  and  C8_10 
REMARK    5  A    between atoms: N4_18  and  C14_19 
REMARK    6  A    between atoms: C14_19  and  C15_20 
REMARK    7  A    between atoms: C15_20  and  C16_21 
REMARK    8  A    between atoms: C16_21  and  N5_22 
ROOT
HETATM    1  C6  UNL     1      24.565   2.377  51.025  1.00  0.00     0.071 A 
HETATM    2  C7  UNL     1      25.032   1.725  52.167  1.00  0.00     0.074 A 
HETATM    3  N3  UNL     1      24.099   0.850  52.596  1.00  0.00    -0.245 NA
HETATM    4  C13 UNL     1      23.052   0.924  51.759  1.00  0.00     0.210 A 
HETATM    5  N4  UNL     1      23.349   1.845  50.825  1.00  0.00    -0.339 N 
ENDROOT
BRANCH   1   6
HETATM    6  C5  UNL     1      25.334   3.380  50.310  1.00  0.00    -0.007 A 
HETATM    7  C4  UNL     1      26.466   3.241  49.570  1.00  0.00     0.016 A 
HETATM    8  C3  UNL     1      27.100   4.296  48.950  1.00  0.00     0.032 A 
HETATM    9  C2  UNL     1      26.599   5.579  49.056  1.00  0.00     0.050 A 
HETATM   10  C22 UNL     1      25.438   5.739  49.810  1.00  0.00     0.032 A 
HETATM   11  C21 UNL     1      24.814   4.673  50.426  1.00  0.00     0.016 A 
BRANCH   9  12
HETATM   12  N2  UNL     1      27.263   6.657  48.410  1.00  0.00    -0.280 N 
HETATM   13  H3  UNL     1      26.515   7.398  48.477  1.00  0.00     0.189 HD
BRANCH  12  14
HETATM   14  N1  UNL     1      28.529   6.760  47.839  1.00  0.00    -0.198 NA
HETATM   15  C1  UNL     1      29.338   7.636  48.356  1.00  0.00     0.173 C 
ENDBRANCH  12  14
ENDBRANCH   9  12
ENDBRANCH   1   6
BRANCH   2  16
HETATM   16  C8  UNL     1      26.301   1.849  52.917  1.00  0.00     0.088 A 
HETATM   17  C9  UNL     1      26.199   1.279  54.284  1.00  0.00    -0.009 A 
HETATM   18  C10 UNL     1      27.060   0.266  54.462  1.00  0.00     0.039 A 
HETATM   19  C11 UNL     1      27.801   0.093  53.217  1.00  0.00     0.113 A 
HETATM   20  F1  UNL     1      28.750  -0.864  53.098  1.00  0.00    -0.206 F 
HETATM   21  C12 UNL     1      27.371   0.991  52.336  1.00  0.00     0.030 A 
ENDBRANCH   2  16
BRANCH   5  22
HETATM   22  C14 UNL     1      22.442   2.156  49.775  1.00  0.00     0.132 C 
BRANCH  22  23
HETATM   23  C15 UNL     1      21.439   1.039  49.514  1.00  0.00     0.050 C 
BRANCH  23  24
HETATM   24  C16 UNL     1      20.090   1.688  49.354  1.00  0.00     0.274 C 
BRANCH  24  25
HETATM   25  N5  UNL     1      19.032   0.926  49.981  1.00  0.00     0.092 N 
HETATM   26  C17 UNL     1      19.460   0.320  51.225  1.00  0.00     0.298 C 
HETATM   27  C18 UNL     1      18.274  -0.085  52.056  1.00  0.00     0.198 C 
HETATM   28  O1  UNL     1      17.082  -0.061  51.372  1.00  0.00    -0.388 OA
HETATM   29  C19 UNL     1      16.784   1.200  50.859  1.00  0.00     0.198 C 
HETATM   30  C20 UNL     1      17.999   1.902  50.339  1.00  0.00     0.298 C 
ENDBRANCH  24  25
ENDBRANCH  23  24
ENDBRANCH  22  23
ENDBRANCH   5  22
TORSDOF 8
ENDMDL
