MODEL 1
REMARK VINA RESULT:      -8.4      0.000      0.000
REMARK  6 active torsions:
REMARK  status: ('A' for Active; 'I' for Inactive)
REMARK    1  A    between atoms: C4_6  and  C5_7 
REMARK    2  A    between atoms: C7_10  and  N3_11 
REMARK    3  A    between atoms: N3_11  and  C8_12 
REMARK    4  A    between atoms: C11_15  and  O1_16 
REMARK    5  A    between atoms: O1_16  and  C12_17 
REMARK    6  A    between atoms: C12_17  and  C13_18 
ROOT
HETATM    1  N1  UNL     1      21.469  -1.612  54.969  1.00  0.00    -0.192 NA
HETATM    2  C1  UNL     1      22.590  -1.298  54.781  1.00  0.00     0.099 C 
HETATM    3  C2  UNL     1      23.983  -0.914  54.574  1.00  0.00     0.064 A 
HETATM    4  C3  UNL     1      24.757  -1.008  55.643  1.00  0.00     0.108 A 
HETATM    5  N2  UNL     1      26.116  -0.634  55.441  1.00  0.00    -0.366 N 
HETATM    6  C4  UNL     1      26.555  -0.196  54.160  1.00  0.00     0.036 A 
HETATM    7  C6  UNL     1      25.718  -0.127  53.134  1.00  0.00     0.031 A 
HETATM    8  C7  UNL     1      24.265  -0.488  53.194  1.00  0.00     0.152 A 
HETATM    9  H2  UNL     1      26.728  -0.705  56.270  1.00  0.00     0.165 HD
ENDROOT
BRANCH   8  10
HETATM   10  N3  UNL     1      23.425   0.593  52.748  1.00  0.00    -0.377 N 
HETATM   11  H7  UNL     1      22.431   0.552  53.126  1.00  0.00     0.160 HD
BRANCH  10  12
HETATM   12  C8  UNL     1      23.637   1.732  51.891  1.00  0.00     0.030 A 
HETATM   13  C9  UNL     1      24.348   2.863  52.281  1.00  0.00     0.032 A 
HETATM   14  C10 UNL     1      24.441   3.854  51.337  1.00  0.00     0.041 A 
HETATM   15  C11 UNL     1      23.904   3.815  50.083  1.00  0.00     0.091 A 
HETATM   16  C19 UNL     1      23.207   2.695  49.718  1.00  0.00     0.069 A 
HETATM   17 CL2  UNL     1      22.530   2.679  48.098  1.00  0.00    -0.081 Cl
HETATM   18  C20 UNL     1      23.077   1.652  50.630  1.00  0.00     0.056 A 
BRANCH  15  19
HETATM   19  O1  UNL     1      24.088   4.900  49.251  1.00  0.00    -0.345 OA
BRANCH  19  20
HETATM   20  C12 UNL     1      24.758   6.082  49.694  1.00  0.00     0.214 C 
BRANCH  20  21
HETATM   21  C13 UNL     1      26.134   6.145  49.135  1.00  0.00    -0.034 A 
HETATM   22  C14 UNL     1      26.896   5.006  48.956  1.00  0.00     0.011 A 
HETATM   23  C15 UNL     1      28.180   5.035  48.438  1.00  0.00     0.024 A 
HETATM   24  C16 UNL     1      28.744   6.258  48.077  1.00  0.00     0.034 A 
HETATM   25 CL1  UNL     1      30.371   6.287  47.422  1.00  0.00    -0.084 Cl
HETATM   26  C17 UNL     1      27.992   7.399  48.253  1.00  0.00     0.024 A 
HETATM   27  C18 UNL     1      26.723   7.360  48.767  1.00  0.00     0.011 A 
ENDBRANCH  20  21
ENDBRANCH  19  20
ENDBRANCH  15  19
ENDBRANCH  10  12
ENDBRANCH   8  10
BRANCH   6  28
HETATM   28  C5  UNL     1      28.000   0.155  54.125  1.00  0.00     0.278 C 
HETATM   29  F1  UNL     1      28.575  -0.488  53.029  1.00  0.00    -0.249 F 
ENDBRANCH   6  28
TORSDOF 6
ENDMDL
MODEL 2
REMARK VINA RESULT:      -8.2      4.721      9.074
REMARK  6 active torsions:
REMARK  status: ('A' for Active; 'I' for Inactive)
REMARK    1  A    between atoms: C4_6  and  C5_7 
REMARK    2  A    between atoms: C7_10  and  N3_11 
REMARK    3  A    between atoms: N3_11  and  C8_12 
REMARK    4  A    between atoms: C11_15  and  O1_16 
REMARK    5  A    between atoms: O1_16  and  C12_17 
REMARK    6  A    between atoms: C12_17  and  C13_18 
ROOT
HETATM    1  N1  UNL     1      24.164   3.408  53.012  1.00  0.00    -0.192 NA
HETATM    2  C1  UNL     1      25.059   2.667  53.213  1.00  0.00     0.099 C 
HETATM    3  C2  UNL     1      26.182   1.767  53.453  1.00  0.00     0.064 A 
HETATM    4  C3  UNL     1      27.364   2.231  53.081  1.00  0.00     0.108 A 
HETATM    5  N2  UNL     1      28.460   1.353  53.315  1.00  0.00    -0.366 N 
HETATM    6  C4  UNL     1      28.242   0.078  53.907  1.00  0.00     0.036 A 
HETATM    7  C6  UNL     1      27.026  -0.320  54.252  1.00  0.00     0.031 A 
HETATM    8  C7  UNL     1      25.780   0.493  54.070  1.00  0.00     0.152 A 
HETATM    9  H2  UNL     1      29.386   1.708  53.028  1.00  0.00     0.165 HD
ENDROOT
BRANCH   8  10
HETATM   10  N3  UNL     1      24.782  -0.217  53.314  1.00  0.00    -0.377 N 
HETATM   11  H7  UNL     1      25.160  -0.695  52.441  1.00  0.00     0.160 HD
BRANCH  10  12
HETATM   12  C8  UNL     1      23.366  -0.426  53.480  1.00  0.00     0.030 A 
HETATM   13  C9  UNL     1      22.807  -1.033  54.602  1.00  0.00     0.032 A 
HETATM   14  C10 UNL     1      21.442  -1.157  54.584  1.00  0.00     0.041 A 
HETATM   15  C11 UNL     1      20.614  -0.743  53.580  1.00  0.00     0.091 A 
HETATM   16  C19 UNL     1      21.182  -0.150  52.486  1.00  0.00     0.069 A 
HETATM   17 CL2  UNL     1      20.089   0.370  51.213  1.00  0.00    -0.081 Cl
HETATM   18  C20 UNL     1      22.564   0.007  52.441  1.00  0.00     0.056 A 
BRANCH  15  19
HETATM   19  O1  UNL     1      19.257  -0.943  53.717  1.00  0.00    -0.345 OA
BRANCH  19  20
HETATM   20  C12 UNL     1      18.706  -2.244  53.934  1.00  0.00     0.214 C 
BRANCH  20  21
HETATM   21  C13 UNL     1      17.389  -2.375  53.259  1.00  0.00    -0.034 A 
HETATM   22  C14 UNL     1      16.685  -3.564  53.269  1.00  0.00     0.011 A 
HETATM   23  C15 UNL     1      15.456  -3.715  52.649  1.00  0.00     0.024 A 
HETATM   24  C16 UNL     1      14.890  -2.630  51.979  1.00  0.00     0.034 A 
HETATM   25 CL1  UNL     1      13.333  -2.829  51.195  1.00  0.00    -0.084 Cl
HETATM   26  C17 UNL     1      15.586  -1.441  51.964  1.00  0.00     0.024 A 
HETATM   27  C18 UNL     1      16.801  -1.302  52.580  1.00  0.00     0.011 A 
ENDBRANCH  20  21
ENDBRANCH  19  20
ENDBRANCH  15  19
ENDBRANCH  10  12
ENDBRANCH   8  10
BRANCH   6  28
HETATM   28  C5  UNL     1      29.492  -0.709  54.078  1.00  0.00     0.278 C 
HETATM   29  F1  UNL     1      30.089  -0.851  52.825  1.00  0.00    -0.249 F 
ENDBRANCH   6  28
TORSDOF 6
ENDMDL
MODEL 3
REMARK VINA RESULT:      -8.1      1.727      2.317
REMARK  6 active torsions:
REMARK  status: ('A' for Active; 'I' for Inactive)
REMARK    1  A    between atoms: C4_6  and  C5_7 
REMARK    2  A    between atoms: C7_10  and  N3_11 
REMARK    3  A    between atoms: N3_11  and  C8_12 
REMARK    4  A    between atoms: C11_15  and  O1_16 
REMARK    5  A    between atoms: O1_16  and  C12_17 
REMARK    6  A    between atoms: C12_17  and  C13_18 
ROOT
HETATM    1  N1  UNL     1      22.470  -0.689  53.281  1.00  0.00    -0.192 NA
HETATM    2  C1  UNL     1      23.623  -0.468  53.386  1.00  0.00     0.099 C 
HETATM    3  C2  UNL     1      25.050  -0.204  53.539  1.00  0.00     0.064 A 
HETATM    4  C3  UNL     1      25.571  -0.581  54.696  1.00  0.00     0.108 A 
HETATM    5  N2  UNL     1      26.963  -0.324  54.846  1.00  0.00    -0.366 N 
HETATM    6  C4  UNL     1      27.693   0.298  53.794  1.00  0.00     0.036 A 
HETATM    7  C6  UNL     1      27.101   0.650  52.662  1.00  0.00     0.031 A 
HETATM    8  C7  UNL     1      25.648   0.442  52.360  1.00  0.00     0.152 A 
HETATM    9  H2  UNL     1      27.377  -0.616  55.745  1.00  0.00     0.165 HD
ENDROOT
BRANCH   8  10
HETATM   10  N3  UNL     1      24.996   1.672  51.992  1.00  0.00    -0.377 N 
HETATM   11  H7  UNL     1      24.072   1.839  52.494  1.00  0.00     0.160 HD
BRANCH  10  12
HETATM   12  C8  UNL     1      25.321   2.739  51.080  1.00  0.00     0.030 A 
HETATM   13  C9  UNL     1      26.411   2.702  50.214  1.00  0.00     0.032 A 
HETATM   14  C10 UNL     1      26.573   3.811  49.425  1.00  0.00     0.041 A 
HETATM   15  C11 UNL     1      25.771   4.916  49.424  1.00  0.00     0.091 A 
HETATM   16  C19 UNL     1      24.706   4.935  50.283  1.00  0.00     0.069 A 
HETATM   17 CL2  UNL     1      23.695   6.370  50.257  1.00  0.00    -0.081 Cl
HETATM   18  C20 UNL     1      24.484   3.839  51.112  1.00  0.00     0.056 A 
BRANCH  15  19
HETATM   19  O1  UNL     1      26.072   5.952  48.565  1.00  0.00    -0.345 OA
BRANCH  19  20
HETATM   20  C12 UNL     1      26.935   7.023  48.952  1.00  0.00     0.214 C 
BRANCH  20  21
HETATM   21  C13 UNL     1      28.207   6.976  48.184  1.00  0.00    -0.034 A 
HETATM   22  C14 UNL     1      29.164   6.008  48.426  1.00  0.00     0.011 A 
HETATM   23  C15 UNL     1      30.356   5.941  47.725  1.00  0.00     0.024 A 
HETATM   24  C16 UNL     1      30.620   6.881  46.731  1.00  0.00     0.034 A 
HETATM   25 CL1  UNL     1      32.134   6.789  45.848  1.00  0.00    -0.084 Cl
HETATM   26  C17 UNL     1      29.671   7.849  46.483  1.00  0.00     0.024 A 
HETATM   27  C18 UNL     1      28.495   7.909  47.181  1.00  0.00     0.011 A 
ENDBRANCH  20  21
ENDBRANCH  19  20
ENDBRANCH  15  19
ENDBRANCH  10  12
ENDBRANCH   8  10
BRANCH   6  28
HETATM   28  C5  UNL     1      29.132   0.492  54.117  1.00  0.00     0.278 C 
HETATM   29  F1  UNL     1      29.690  -0.760  54.376  1.00  0.00    -0.249 F 
ENDBRANCH   6  28
TORSDOF 6
ENDMDL
MODEL 4
REMARK VINA RESULT:      -8.0      2.738      3.956
REMARK  6 active torsions:
REMARK  status: ('A' for Active; 'I' for Inactive)
REMARK    1  A    between atoms: C4_6  and  C5_7 
REMARK    2  A    between atoms: C7_10  and  N3_11 
REMARK    3  A    between atoms: N3_11  and  C8_12 
REMARK    4  A    between atoms: C11_15  and  O1_16 
REMARK    5  A    between atoms: O1_16  and  C12_17 
REMARK    6  A    between atoms: C12_17  and  C13_18 
ROOT
HETATM    1  N1  UNL     1      24.851  -0.789  54.804  1.00  0.00    -0.192 NA
HETATM    2  C1  UNL     1      23.706  -0.771  54.520  1.00  0.00     0.099 C 
HETATM    3  C2  UNL     1      22.288  -0.773  54.177  1.00  0.00     0.064 A 
HETATM    4  C3  UNL     1      21.630  -1.871  54.512  1.00  0.00     0.108 A 
HETATM    5  N2  UNL     1      20.246  -1.873  54.178  1.00  0.00    -0.366 N 
HETATM    6  C4  UNL     1      19.664  -0.747  53.530  1.00  0.00     0.036 A 
HETATM    7  C6  UNL     1      20.389   0.319  53.225  1.00  0.00     0.031 A 
HETATM    8  C7  UNL     1      21.853   0.466  53.514  1.00  0.00     0.152 A 
HETATM    9  H2  UNL     1      19.725  -2.726  54.435  1.00  0.00     0.165 HD
ENDROOT
BRANCH   8  10
HETATM   10  N3  UNL     1      22.606   0.773  52.326  1.00  0.00    -0.377 N 
HETATM   11  H7  UNL     1      22.691  -0.042  51.646  1.00  0.00     0.160 HD
BRANCH  10  12
HETATM   12  C8  UNL     1      23.279   1.954  51.848  1.00  0.00     0.030 A 
HETATM   13  C9  UNL     1      24.636   1.991  51.541  1.00  0.00     0.032 A 
HETATM   14  C10 UNL     1      25.108   3.204  51.109  1.00  0.00     0.041 A 
HETATM   15  C11 UNL     1      24.370   4.343  50.962  1.00  0.00     0.091 A 
HETATM   16  C19 UNL     1      23.038   4.286  51.270  1.00  0.00     0.069 A 
HETATM   17 CL2  UNL     1      22.118   5.769  51.070  1.00  0.00    -0.081 Cl
HETATM   18  C20 UNL     1      22.495   3.084  51.714  1.00  0.00     0.056 A 
BRANCH  15  19
HETATM   19  O1  UNL     1      24.999   5.485  50.515  1.00  0.00    -0.345 OA
BRANCH  19  20
HETATM   20  C12 UNL     1      25.060   5.815  49.126  1.00  0.00     0.214 C 
BRANCH  20  21
HETATM   21  C13 UNL     1      26.469   6.012  48.696  1.00  0.00    -0.034 A 
HETATM   22  C14 UNL     1      26.920   7.232  48.230  1.00  0.00     0.011 A 
HETATM   23  C15 UNL     1      28.227   7.444  47.822  1.00  0.00     0.024 A 
HETATM   24  C16 UNL     1      29.140   6.392  47.878  1.00  0.00     0.034 A 
HETATM   25 CL1  UNL     1      30.793   6.668  47.360  1.00  0.00    -0.084 Cl
HETATM   26  C17 UNL     1      28.698   5.172  48.341  1.00  0.00     0.024 A 
HETATM   27  C18 UNL     1      27.404   4.972  48.741  1.00  0.00     0.011 A 
ENDBRANCH  20  21
ENDBRANCH  19  20
ENDBRANCH  15  19
ENDBRANCH  10  12
ENDBRANCH   8  10
BRANCH   6  28
HETATM   28  C5  UNL     1      18.213  -0.917  53.255  1.00  0.00     0.278 C 
HETATM   29  F1  UNL     1      17.955  -2.281  53.115  1.00  0.00    -0.249 F 
ENDBRANCH   6  28
TORSDOF 6
ENDMDL
MODEL 5
REMARK VINA RESULT:      -8.0      2.413      3.741
REMARK  6 active torsions:
REMARK  status: ('A' for Active; 'I' for Inactive)
REMARK    1  A    between atoms: C4_6  and  C5_7 
REMARK    2  A    between atoms: C7_10  and  N3_11 
REMARK    3  A    between atoms: N3_11  and  C8_12 
REMARK    4  A    between atoms: C11_15  and  O1_16 
REMARK    5  A    between atoms: O1_16  and  C12_17 
REMARK    6  A    between atoms: C12_17  and  C13_18 
ROOT
HETATM    1  N1  UNL     1      28.127   2.439  53.844  1.00  0.00    -0.192 NA
HETATM    2  C1  UNL     1      27.117   1.832  53.812  1.00  0.00     0.099 C 
HETATM    3  C2  UNL     1      25.877   1.063  53.788  1.00  0.00     0.064 A 
HETATM    4  C3  UNL     1      25.892  -0.051  54.503  1.00  0.00     0.108 A 
HETATM    5  N2  UNL     1      24.682  -0.801  54.480  1.00  0.00    -0.366 N 
HETATM    6  C4  UNL     1      23.567  -0.340  53.725  1.00  0.00     0.036 A 
HETATM    7  C6  UNL     1      23.628   0.788  53.031  1.00  0.00     0.031 A 
HETATM    8  C7  UNL     1      24.829   1.682  52.961  1.00  0.00     0.152 A 
HETATM    9  H2  UNL     1      24.685  -1.672  55.035  1.00  0.00     0.165 HD
ENDROOT
BRANCH   8  10
HETATM   10  N3  UNL     1      25.242   1.920  51.602  1.00  0.00    -0.377 N 
HETATM   11  H7  UNL     1      25.627   1.057  51.110  1.00  0.00     0.160 HD
BRANCH  10  12
HETATM   12  C8  UNL     1      25.250   3.082  50.751  1.00  0.00     0.030 A 
HETATM   13  C9  UNL     1      24.125   3.869  50.518  1.00  0.00     0.032 A 
HETATM   14  C10 UNL     1      24.316   4.931  49.673  1.00  0.00     0.041 A 
HETATM   15  C11 UNL     1      25.490   5.266  49.061  1.00  0.00     0.091 A 
HETATM   16  C19 UNL     1      26.584   4.479  49.302  1.00  0.00     0.069 A 
HETATM   17 CL2  UNL     1      28.077   4.937  48.499  1.00  0.00    -0.081 Cl
HETATM   18  C20 UNL     1      26.458   3.385  50.152  1.00  0.00     0.056 A 
BRANCH  15  19
HETATM   19  O1  UNL     1      25.515   6.370  48.236  1.00  0.00    -0.345 OA
BRANCH  19  20
HETATM   20  C12 UNL     1      25.546   7.699  48.759  1.00  0.00     0.214 C 
BRANCH  20  21
HETATM   21  C13 UNL     1      26.903   8.287  48.616  1.00  0.00    -0.034 A 
HETATM   22  C14 UNL     1      27.560   8.306  47.400  1.00  0.00     0.011 A 
HETATM   23  C15 UNL     1      28.825   8.847  47.238  1.00  0.00     0.024 A 
HETATM   24  C16 UNL     1      29.478   9.400  48.338  1.00  0.00     0.034 A 
HETATM   25 CL1  UNL     1      31.080  10.084  48.125  1.00  0.00    -0.084 Cl
HETATM   26  C17 UNL     1      28.830   9.386  49.554  1.00  0.00     0.024 A 
HETATM   27  C18 UNL     1      27.580   8.848  49.705  1.00  0.00     0.011 A 
ENDBRANCH  20  21
ENDBRANCH  19  20
ENDBRANCH  15  19
ENDBRANCH  10  12
ENDBRANCH   8  10
BRANCH   6  28
HETATM   28  C5  UNL     1      22.389  -1.242  53.811  1.00  0.00     0.278 C 
HETATM   29  F1  UNL     1      22.346  -1.777  55.099  1.00  0.00    -0.249 F 
ENDBRANCH   6  28
TORSDOF 6
ENDMDL
MODEL 6
REMARK VINA RESULT:      -7.9      2.945      4.348
REMARK  6 active torsions:
REMARK  status: ('A' for Active; 'I' for Inactive)
REMARK    1  A    between atoms: C4_6  and  C5_7 
REMARK    2  A    between atoms: C7_10  and  N3_11 
REMARK    3  A    between atoms: N3_11  and  C8_12 
REMARK    4  A    between atoms: C11_15  and  O1_16 
REMARK    5  A    between atoms: O1_16  and  C12_17 
REMARK    6  A    between atoms: C12_17  and  C13_18 
ROOT
HETATM    1  N1  UNL     1      28.227   2.286  52.713  1.00  0.00    -0.192 NA
HETATM    2  C1  UNL     1      27.161   1.806  52.862  1.00  0.00     0.099 C 
HETATM    3  C2  UNL     1      25.852   1.193  53.058  1.00  0.00     0.064 A 
HETATM    4  C3  UNL     1      25.866   0.023  53.677  1.00  0.00     0.108 A 
HETATM    5  N2  UNL     1      24.589  -0.576  53.869  1.00  0.00    -0.366 N 
HETATM    6  C4  UNL     1      23.413   0.080  53.407  1.00  0.00     0.036 A 
HETATM    7  C6  UNL     1      23.479   1.253  52.793  1.00  0.00     0.031 A 
HETATM    8  C7  UNL     1      24.747   2.003  52.522  1.00  0.00     0.152 A 
HETATM    9  H2  UNL     1      24.591  -1.489  54.351  1.00  0.00     0.165 HD
ENDROOT
BRANCH   8  10
HETATM   10  N3  UNL     1      24.896   2.317  51.124  1.00  0.00    -0.377 N 
HETATM   11  H7  UNL     1      24.475   1.589  50.471  1.00  0.00     0.160 HD
BRANCH  10  12
HETATM   12  C8  UNL     1      25.499   3.411  50.407  1.00  0.00     0.030 A 
HETATM   13  C9  UNL     1      26.576   3.257  49.537  1.00  0.00     0.032 A 
HETATM   14  C10 UNL     1      27.025   4.411  48.949  1.00  0.00     0.041 A 
HETATM   15  C11 UNL     1      26.512   5.661  49.144  1.00  0.00     0.091 A 
HETATM   16  C19 UNL     1      25.454   5.792  50.003  1.00  0.00     0.069 A 
HETATM   17 CL2  UNL     1      24.819   7.413  50.232  1.00  0.00    -0.081 Cl
HETATM   18  C20 UNL     1      24.949   4.659  50.634  1.00  0.00     0.056 A 
BRANCH  15  19
HETATM   19  O1  UNL     1      27.081   6.723  48.473  1.00  0.00    -0.345 OA
BRANCH  19  20
HETATM   20  C12 UNL     1      28.485   6.781  48.211  1.00  0.00     0.214 C 
BRANCH  20  21
HETATM   21  C13 UNL     1      29.010   8.147  48.471  1.00  0.00    -0.034 A 
HETATM   22  C14 UNL     1      30.367   8.410  48.488  1.00  0.00     0.011 A 
HETATM   23  C15 UNL     1      30.884   9.672  48.727  1.00  0.00     0.024 A 
HETATM   24  C16 UNL     1      30.013  10.735  48.964  1.00  0.00     0.034 A 
HETATM   25 CL1  UNL     1      30.676  12.331  49.267  1.00  0.00    -0.084 Cl
HETATM   26  C17 UNL     1      28.659  10.481  48.949  1.00  0.00     0.024 A 
HETATM   27  C18 UNL     1      28.157   9.229  48.712  1.00  0.00     0.011 A 
ENDBRANCH  20  21
ENDBRANCH  19  20
ENDBRANCH  15  19
ENDBRANCH  10  12
ENDBRANCH   8  10
BRANCH   6  28
HETATM   28  C5  UNL     1      22.169  -0.683  53.688  1.00  0.00     0.278 C 
HETATM   29  F1  UNL     1      22.266  -1.212  54.976  1.00  0.00    -0.249 F 
ENDBRANCH   6  28
TORSDOF 6
ENDMDL
MODEL 7
REMARK VINA RESULT:      -7.9      5.204      9.187
REMARK  6 active torsions:
REMARK  status: ('A' for Active; 'I' for Inactive)
REMARK    1  A    between atoms: C4_6  and  C5_7 
REMARK    2  A    between atoms: C7_10  and  N3_11 
REMARK    3  A    between atoms: N3_11  and  C8_12 
REMARK    4  A    between atoms: C11_15  and  O1_16 
REMARK    5  A    between atoms: O1_16  and  C12_17 
REMARK    6  A    between atoms: C12_17  and  C13_18 
ROOT
HETATM    1  N1  UNL     1      31.932   4.634  48.499  1.00  0.00    -0.192 NA
HETATM    2  C1  UNL     1      31.551   5.749  48.548  1.00  0.00     0.099 C 
HETATM    3  C2  UNL     1      31.093   7.131  48.631  1.00  0.00     0.064 A 
HETATM    4  C3  UNL     1      31.507   7.798  49.697  1.00  0.00     0.108 A 
HETATM    5  N2  UNL     1      31.059   9.147  49.779  1.00  0.00    -0.366 N 
HETATM    6  C4  UNL     1      30.227   9.689  48.759  1.00  0.00     0.036 A 
HETATM    7  C6  UNL     1      29.852   8.957  47.720  1.00  0.00     0.031 A 
HETATM    8  C7  UNL     1      30.243   7.527  47.498  1.00  0.00     0.152 A 
HETATM    9  H2  UNL     1      31.378   9.675  50.607  1.00  0.00     0.165 HD
ENDROOT
BRANCH   8  10
HETATM   10  N3  UNL     1      29.094   6.678  47.321  1.00  0.00    -0.377 N 
HETATM   11  H7  UNL     1      29.055   6.195  46.374  1.00  0.00     0.160 HD
BRANCH  10  12
HETATM   12  C8  UNL     1      27.970   6.335  48.155  1.00  0.00     0.030 A 
HETATM   13  C9  UNL     1      27.043   7.267  48.613  1.00  0.00     0.032 A 
HETATM   14  C10 UNL     1      26.043   6.762  49.404  1.00  0.00     0.041 A 
HETATM   15  C11 UNL     1      25.894   5.454  49.767  1.00  0.00     0.091 A 
HETATM   16  C19 UNL     1      26.817   4.553  49.308  1.00  0.00     0.069 A 
HETATM   17 CL2  UNL     1      26.595   2.880  49.793  1.00  0.00    -0.081 Cl
HETATM   18  C20 UNL     1      27.856   5.001  48.499  1.00  0.00     0.056 A 
BRANCH  15  19
HETATM   19  O1  UNL     1      24.830   5.108  50.572  1.00  0.00    -0.345 OA
BRANCH  19  20
HETATM   20  C12 UNL     1      23.607   4.607  50.028  1.00  0.00     0.214 C 
BRANCH  20  21
HETATM   21  C13 UNL     1      23.225   3.330  50.687  1.00  0.00    -0.034 A 
HETATM   22  C14 UNL     1      23.595   3.048  51.988  1.00  0.00     0.011 A 
HETATM   23  C15 UNL     1      23.253   1.867  52.627  1.00  0.00     0.024 A 
HETATM   24  C16 UNL     1      22.504   0.911  51.942  1.00  0.00     0.034 A 
HETATM   25 CL1  UNL     1      22.075  -0.581  52.758  1.00  0.00    -0.084 Cl
HETATM   26  C17 UNL     1      22.130   1.185  50.645  1.00  0.00     0.024 A 
HETATM   27  C18 UNL     1      22.474   2.355  50.022  1.00  0.00     0.011 A 
ENDBRANCH  20  21
ENDBRANCH  19  20
ENDBRANCH  15  19
ENDBRANCH  10  12
ENDBRANCH   8  10
BRANCH   6  28
HETATM   28  C5  UNL     1      29.853  11.107  49.001  1.00  0.00     0.278 C 
HETATM   29  F1  UNL     1      30.949  11.752  49.576  1.00  0.00    -0.249 F 
ENDBRANCH   6  28
TORSDOF 6
ENDMDL
MODEL 8
REMARK VINA RESULT:      -7.9      1.795      2.180
REMARK  6 active torsions:
REMARK  status: ('A' for Active; 'I' for Inactive)
REMARK    1  A    between atoms: C4_6  and  C5_7 
REMARK    2  A    between atoms: C7_10  and  N3_11 
REMARK    3  A    between atoms: N3_11  and  C8_12 
REMARK    4  A    between atoms: C11_15  and  O1_16 
REMARK    5  A    between atoms: O1_16  and  C12_17 
REMARK    6  A    between atoms: C12_17  and  C13_18 
ROOT
HETATM    1  N1  UNL     1      21.972  -0.819  53.675  1.00  0.00    -0.192 NA
HETATM    2  C1  UNL     1      23.122  -0.584  53.781  1.00  0.00     0.099 C 
HETATM    3  C2  UNL     1      24.546  -0.306  53.935  1.00  0.00     0.064 A 
HETATM    4  C3  UNL     1      25.108  -0.825  55.015  1.00  0.00     0.108 A 
HETATM    5  N2  UNL     1      26.497  -0.554  55.165  1.00  0.00    -0.366 N 
HETATM    6  C4  UNL     1      27.184   0.226  54.193  1.00  0.00     0.036 A 
HETATM    7  C6  UNL     1      26.552   0.715  53.135  1.00  0.00     0.031 A 
HETATM    8  C7  UNL     1      25.096   0.513  52.843  1.00  0.00     0.152 A 
HETATM    9  H2  UNL     1      26.943  -0.956  56.005  1.00  0.00     0.165 HD
ENDROOT
BRANCH   8  10
HETATM   10  N3  UNL     1      24.406   1.764  52.665  1.00  0.00    -0.377 N 
HETATM   11  H7  UNL     1      23.755   2.017  53.468  1.00  0.00     0.160 HD
BRANCH  10  12
HETATM   12  C8  UNL     1      24.402   2.761  51.625  1.00  0.00     0.030 A 
HETATM   13  C9  UNL     1      23.281   3.518  51.293  1.00  0.00     0.032 A 
HETATM   14  C10 UNL     1      23.459   4.414  50.270  1.00  0.00     0.041 A 
HETATM   15  C11 UNL     1      24.616   4.614  49.574  1.00  0.00     0.091 A 
HETATM   16  C19 UNL     1      25.706   3.860  49.914  1.00  0.00     0.069 A 
HETATM   17 CL2  UNL     1      27.178   4.143  48.999  1.00  0.00    -0.081 Cl
HETATM   18  C20 UNL     1      25.594   2.932  50.945  1.00  0.00     0.056 A 
BRANCH  15  19
HETATM   19  O1  UNL     1      24.629   5.558  48.569  1.00  0.00    -0.345 OA
BRANCH  19  20
HETATM   20  C12 UNL     1      24.456   6.949  48.842  1.00  0.00     0.214 C 
BRANCH  20  21
HETATM   21  C13 UNL     1      25.774   7.626  48.971  1.00  0.00    -0.034 A 
HETATM   22  C14 UNL     1      26.063   8.450  50.042  1.00  0.00     0.011 A 
HETATM   23  C15 UNL     1      27.282   9.092  50.187  1.00  0.00     0.024 A 
HETATM   24  C16 UNL     1      28.270   8.911  49.220  1.00  0.00     0.034 A 
HETATM   25 CL1  UNL     1      29.811   9.728  49.411  1.00  0.00    -0.084 Cl
HETATM   26  C17 UNL     1      27.989   8.091  48.149  1.00  0.00     0.024 A 
HETATM   27  C18 UNL     1      26.781   7.460  48.014  1.00  0.00     0.011 A 
ENDBRANCH  20  21
ENDBRANCH  19  20
ENDBRANCH  15  19
ENDBRANCH  10  12
ENDBRANCH   8  10
BRANCH   6  28
HETATM   28  C5  UNL     1      28.626   0.412  54.504  1.00  0.00     0.278 C 
HETATM   29  F1  UNL     1      29.279  -0.798  54.267  1.00  0.00    -0.249 F 
ENDBRANCH   6  28
TORSDOF 6
ENDMDL
MODEL 9
REMARK VINA RESULT:      -7.8      2.391      3.751
REMARK  6 active torsions:
REMARK  status: ('A' for Active; 'I' for Inactive)
REMARK    1  A    between atoms: C4_6  and  C5_7 
REMARK    2  A    between atoms: C7_10  and  N3_11 
REMARK    3  A    between atoms: N3_11  and  C8_12 
REMARK    4  A    between atoms: C11_15  and  O1_16 
REMARK    5  A    between atoms: O1_16  and  C12_17 
REMARK    6  A    between atoms: C12_17  and  C13_18 
ROOT
HETATM    1  N1  UNL     1      28.626   2.321  53.165  1.00  0.00    -0.192 NA
HETATM    2  C1  UNL     1      27.586   1.781  53.296  1.00  0.00     0.099 C 
HETATM    3  C2  UNL     1      26.310   1.096  53.471  1.00  0.00     0.064 A 
HETATM    4  C3  UNL     1      26.365  -0.024  54.175  1.00  0.00     0.108 A 
HETATM    5  N2  UNL     1      25.121  -0.693  54.346  1.00  0.00    -0.366 N 
HETATM    6  C4  UNL     1      23.933  -0.153  53.778  1.00  0.00     0.036 A 
HETATM    7  C6  UNL     1      23.956   0.975  53.083  1.00  0.00     0.031 A 
HETATM    8  C7  UNL     1      25.187   1.789  52.820  1.00  0.00     0.152 A 
HETATM    9  H2  UNL     1      25.154  -1.567  54.894  1.00  0.00     0.165 HD
ENDROOT
BRANCH   8  10
HETATM   10  N3  UNL     1      25.393   2.012  51.413  1.00  0.00    -0.377 N 
HETATM   11  H7  UNL     1      25.376   1.123  50.827  1.00  0.00     0.160 HD
BRANCH  10  12
HETATM   12  C8  UNL     1      25.620   3.189  50.612  1.00  0.00     0.030 A 
HETATM   13  C9  UNL     1      26.637   3.287  49.666  1.00  0.00     0.032 A 
HETATM   14  C10 UNL     1      26.710   4.485  49.004  1.00  0.00     0.041 A 
HETATM   15  C11 UNL     1      25.886   5.557  49.197  1.00  0.00     0.091 A 
HETATM   16  C19 UNL     1      24.894   5.441  50.133  1.00  0.00     0.069 A 
HETATM   17 CL2  UNL     1      23.852   6.838  50.356  1.00  0.00    -0.081 Cl
HETATM   18  C20 UNL     1      24.764   4.250  50.840  1.00  0.00     0.056 A 
BRANCH  15  19
HETATM   19  O1  UNL     1      26.094   6.695  48.447  1.00  0.00    -0.345 OA
BRANCH  19  20
HETATM   20  C12 UNL     1      27.074   7.668  48.813  1.00  0.00     0.214 C 
BRANCH  20  21
HETATM   21  C13 UNL     1      28.219   7.641  47.866  1.00  0.00    -0.034 A 
HETATM   22  C14 UNL     1      29.362   6.911  48.133  1.00  0.00     0.011 A 
HETATM   23  C15 UNL     1      30.444   6.868  47.269  1.00  0.00     0.024 A 
HETATM   24  C16 UNL     1      30.396   7.586  46.075  1.00  0.00     0.034 A 
HETATM   25 CL1  UNL     1      31.770   7.526  44.987  1.00  0.00    -0.084 Cl
HETATM   26  C17 UNL     1      29.260   8.317  45.802  1.00  0.00     0.024 A 
HETATM   27  C18 UNL     1      28.195   8.354  46.662  1.00  0.00     0.011 A 
ENDBRANCH  20  21
ENDBRANCH  19  20
ENDBRANCH  15  19
ENDBRANCH  10  12
ENDBRANCH   8  10
BRANCH   6  28
HETATM   28  C5  UNL     1      22.726  -0.977  54.052  1.00  0.00     0.278 C 
HETATM   29  F1  UNL     1      22.908  -1.618  55.278  1.00  0.00    -0.249 F 
ENDBRANCH   6  28
TORSDOF 6
ENDMDL
