MODEL 1
REMARK VINA RESULT:      -8.9      0.000      0.000
REMARK  0 active torsions:
REMARK  status: ('A' for Active; 'I' for Inactive)
ROOT
HETATM    1  C1  UNL     1      21.041   4.952  49.614  1.00  0.00     0.012 C 
HETATM    2  C2  UNL     1      22.100   4.159  50.348  1.00  0.00     0.016 C 
HETATM    3  C3  UNL     1      23.186   3.868  49.327  1.00  0.00     0.035 C 
HETATM    4  C4  UNL     1      24.304   3.113  49.951  1.00  0.00    -0.009 C 
HETATM    5  C5  UNL     1      25.591   3.163  50.222  1.00  0.00     0.082 C 
HETATM    6  N1  UNL     1      26.781   2.616  50.762  1.00  0.00    -0.378 N 
HETATM    7  P1  UNL     1      26.905   2.032  52.430  1.00  0.00    -0.041 P 
HETATM    8  C6  UNL     1      26.702   0.437  52.465  1.00  0.00     0.049 C 
HETATM    9  C7  UNL     1      26.522  -0.204  53.765  1.00  0.00     0.036 C 
HETATM   10  C8  UNL     1      27.380  -0.190  54.796  1.00  0.00     0.029 C 
HETATM   11  C9  UNL     1      28.696   0.444  54.837  1.00  0.00    -0.001 C 
HETATM   12  C10 UNL     1      29.035   1.505  54.122  1.00  0.00    -0.021 C 
HETATM   13  C11 UNL     1      28.408   2.480  53.239  1.00  0.00     0.078 C 
HETATM   14  N2  UNL     1      25.410  -0.991  54.252  1.00  0.00    -0.327 N 
HETATM   15  C12 UNL     1      24.019  -0.743  54.120  1.00  0.00     0.223 C 
HETATM   16  O1  UNL     1      24.583   0.218  53.534  1.00  0.00    -0.273 OA
HETATM   17  C13 UNL     1      22.589  -0.383  53.922  1.00  0.00     0.133 C 
HETATM   18  C14 UNL     1      22.621   0.910  53.133  1.00  0.00     0.282 C 
HETATM   19  N3  UNL     1      21.334   1.443  52.831  1.00  0.00     0.093 N 
HETATM   20  C15 UNL     1      20.646   0.661  51.856  1.00  0.00     0.298 C 
HETATM   21  C16 UNL     1      21.348   0.626  50.528  1.00  0.00     0.198 C 
HETATM   22  O2  UNL     1      21.989   1.820  50.233  1.00  0.00    -0.382 OA
HETATM   23  C17 UNL     1      21.429   2.903  50.860  1.00  0.00     0.153 C 
HETATM   24  C18 UNL     1      21.482   2.805  52.365  1.00  0.00     0.304 C 
HETATM   25  H9  UNL     1      27.574   2.592  50.084  1.00  0.00     0.163 HD
HETATM   26  H10 UNL     1      25.809   2.637  53.107  1.00  0.00     0.079 HD
HETATM   27  H17 UNL     1      25.613  -1.869  54.780  1.00  0.00     0.169 HD
ENDROOT
TORSDOF 0
ENDMDL
MODEL 2
REMARK VINA RESULT:      -8.4      2.419      5.892
REMARK  0 active torsions:
REMARK  status: ('A' for Active; 'I' for Inactive)
ROOT
HETATM    1  C1  UNL     1      26.782   3.544  49.667  1.00  0.00     0.012 C 
HETATM    2  C2  UNL     1      25.562   2.879  50.267  1.00  0.00     0.016 C 
HETATM    3  C3  UNL     1      24.544   3.988  50.476  1.00  0.00     0.035 C 
HETATM    4  C4  UNL     1      23.281   3.441  51.036  1.00  0.00    -0.009 C 
HETATM    5  C5  UNL     1      21.994   3.302  50.802  1.00  0.00     0.082 C 
HETATM    6  N1  UNL     1      20.696   2.856  51.152  1.00  0.00    -0.378 N 
HETATM    7  P1  UNL     1      20.341   1.182  51.609  1.00  0.00    -0.041 P 
HETATM    8  C6  UNL     1      20.320   1.047  53.211  1.00  0.00     0.049 C 
HETATM    9  C7  UNL     1      20.290  -0.294  53.788  1.00  0.00     0.036 C 
HETATM   10  C8  UNL     1      19.351  -1.233  53.597  1.00  0.00     0.029 C 
HETATM   11  C9  UNL     1      18.136  -1.112  52.794  1.00  0.00    -0.001 C 
HETATM   12  C10 UNL     1      18.013  -0.314  51.744  1.00  0.00    -0.021 C 
HETATM   13  C11 UNL     1      18.846   0.549  50.918  1.00  0.00     0.078 C 
HETATM   14  N2  UNL     1      21.234  -0.928  54.683  1.00  0.00    -0.327 N 
HETATM   15  C12 UNL     1      22.652  -0.922  54.628  1.00  0.00     0.223 C 
HETATM   16  O1  UNL     1      22.282  -0.236  53.640  1.00  0.00    -0.273 OA
HETATM   17  C13 UNL     1      24.131  -0.849  54.472  1.00  0.00     0.133 C 
HETATM   18  C14 UNL     1      24.348   0.002  53.238  1.00  0.00     0.282 C 
HETATM   19  N3  UNL     1      25.718   0.201  52.899  1.00  0.00     0.093 N 
HETATM   20  C15 UNL     1      26.380   1.063  53.825  1.00  0.00     0.298 C 
HETATM   21  C16 UNL     1      25.804   2.451  53.850  1.00  0.00     0.198 C 
HETATM   22  O2  UNL     1      25.362   2.867  52.602  1.00  0.00    -0.382 OA
HETATM   23  C17 UNL     1      26.004   2.241  51.566  1.00  0.00     0.153 C 
HETATM   24  C18 UNL     1      25.801   0.747  51.561  1.00  0.00     0.304 C 
HETATM   25  H9  UNL     1      19.972   3.608  51.114  1.00  0.00     0.163 HD
HETATM   26  H10 UNL     1      21.443   0.430  51.112  1.00  0.00     0.079 HD
HETATM   27  H17 UNL     1      20.865  -1.476  55.491  1.00  0.00     0.169 HD
ENDROOT
TORSDOF 0
ENDMDL
MODEL 3
REMARK VINA RESULT:      -8.4      1.943      4.341
REMARK  0 active torsions:
REMARK  status: ('A' for Active; 'I' for Inactive)
ROOT
HETATM    1  C1  UNL     1      17.729  -0.315  51.376  1.00  0.00     0.012 C 
HETATM    2  C2  UNL     1      19.198  -0.027  51.596  1.00  0.00     0.016 C 
HETATM    3  C3  UNL     1      19.442  -0.216  53.084  1.00  0.00     0.035 C 
HETATM    4  C4  UNL     1      20.873   0.012  53.413  1.00  0.00    -0.009 C 
HETATM    5  C5  UNL     1      21.949  -0.563  53.908  1.00  0.00     0.082 C 
HETATM    6  N1  UNL     1      23.312  -0.555  54.290  1.00  0.00    -0.378 N 
HETATM    7  P1  UNL     1      24.618  -0.067  53.198  1.00  0.00    -0.041 P 
HETATM    8  C6  UNL     1      25.009   1.470  53.468  1.00  0.00     0.049 C 
HETATM    9  C7  UNL     1      25.888   2.134  52.511  1.00  0.00     0.036 C 
HETATM   10  C8  UNL     1      27.136   1.771  52.176  1.00  0.00     0.029 C 
HETATM   11  C9  UNL     1      27.902   0.650  52.716  1.00  0.00    -0.001 C 
HETATM   12  C10 UNL     1      27.361  -0.459  53.195  1.00  0.00    -0.021 C 
HETATM   13  C11 UNL     1      26.052  -1.092  53.286  1.00  0.00     0.078 C 
HETATM   14  N2  UNL     1      25.645   3.313  51.707  1.00  0.00    -0.327 N 
HETATM   15  C12 UNL     1      24.484   3.661  50.969  1.00  0.00     0.223 C 
HETATM   16  O1  UNL     1      24.217   2.550  51.497  1.00  0.00    -0.273 OA
HETATM   17  C13 UNL     1      23.219   3.924  50.230  1.00  0.00     0.133 C 
HETATM   18  C14 UNL     1      22.339   2.729  50.535  1.00  0.00     0.282 C 
HETATM   19  N3  UNL     1      21.057   2.775  49.915  1.00  0.00     0.093 N 
HETATM   20  C15 UNL     1      20.213   3.767  50.498  1.00  0.00     0.298 C 
HETATM   21  C16 UNL     1      19.909   3.502  51.947  1.00  0.00     0.198 C 
HETATM   22  O2  UNL     1      19.802   2.148  52.229  1.00  0.00    -0.382 OA
HETATM   23  C17 UNL     1      19.438   1.397  51.142  1.00  0.00     0.153 C 
HETATM   24  C18 UNL     1      20.435   1.471  50.013  1.00  0.00     0.304 C 
HETATM   25  H9  UNL     1      23.471  -0.864  55.275  1.00  0.00     0.163 HD
HETATM   26  H10 UNL     1      24.053  -0.161  51.895  1.00  0.00     0.079 HD
HETATM   27  H17 UNL     1      26.399   4.031  51.633  1.00  0.00     0.169 HD
ENDROOT
TORSDOF 0
ENDMDL
MODEL 4
REMARK VINA RESULT:      -7.6      2.057      4.470
REMARK  0 active torsions:
REMARK  status: ('A' for Active; 'I' for Inactive)
ROOT
HETATM    1  C1  UNL     1      18.663   3.882  48.761  1.00  0.00     0.012 C 
HETATM    2  C2  UNL     1      19.944   3.421  49.420  1.00  0.00     0.016 C 
HETATM    3  C3  UNL     1      19.668   3.419  50.914  1.00  0.00     0.035 C 
HETATM    4  C4  UNL     1      20.859   2.948  51.667  1.00  0.00    -0.009 C 
HETATM    5  C5  UNL     1      21.289   2.012  52.487  1.00  0.00     0.082 C 
HETATM    6  N1  UNL     1      22.293   1.400  53.275  1.00  0.00    -0.378 N 
HETATM    7  P1  UNL     1      23.879   0.942  52.632  1.00  0.00    -0.041 P 
HETATM    8  C6  UNL     1      24.956   2.086  52.972  1.00  0.00     0.049 C 
HETATM    9  C7  UNL     1      26.260   2.019  52.319  1.00  0.00     0.036 C 
HETATM   10  C8  UNL     1      27.150   1.017  52.399  1.00  0.00     0.029 C 
HETATM   11  C9  UNL     1      27.025  -0.212  53.180  1.00  0.00    -0.001 C 
HETATM   12  C10 UNL     1      25.871  -0.780  53.494  1.00  0.00    -0.021 C 
HETATM   13  C11 UNL     1      24.455  -0.630  53.189  1.00  0.00     0.078 C 
HETATM   14  N2  UNL     1      26.902   2.981  51.450  1.00  0.00    -0.327 N 
HETATM   15  C12 UNL     1      26.342   3.723  50.378  1.00  0.00     0.223 C 
HETATM   16  O1  UNL     1      25.395   3.024  50.825  1.00  0.00    -0.273 OA
HETATM   17  C13 UNL     1      25.651   4.446  49.276  1.00  0.00     0.133 C 
HETATM   18  C14 UNL     1      24.222   3.945  49.321  1.00  0.00     0.282 C 
HETATM   19  N3  UNL     1      23.372   4.517  48.331  1.00  0.00     0.093 N 
HETATM   20  C15 UNL     1      23.084   5.889  48.597  1.00  0.00     0.298 C 
HETATM   21  C16 UNL     1      22.336   6.094  49.885  1.00  0.00     0.198 C 
HETATM   22  O2  UNL     1      21.448   5.063  50.154  1.00  0.00    -0.382 OA
HETATM   23  C17 UNL     1      21.020   4.410  49.027  1.00  0.00     0.153 C 
HETATM   24  C18 UNL     1      22.143   3.753  48.264  1.00  0.00     0.304 C 
HETATM   25  H9  UNL     1      22.009   1.245  54.268  1.00  0.00     0.163 HD
HETATM   26  H10 UNL     1      23.699   0.902  51.221  1.00  0.00     0.079 HD
HETATM   27  H17 UNL     1      27.915   3.188  51.596  1.00  0.00     0.169 HD
ENDROOT
TORSDOF 0
ENDMDL
MODEL 5
REMARK VINA RESULT:      -7.6      1.688      2.235
REMARK  0 active torsions:
REMARK  status: ('A' for Active; 'I' for Inactive)
ROOT
HETATM    1  C1  UNL     1      21.165   6.985  49.534  1.00  0.00     0.012 C 
HETATM    2  C2  UNL     1      21.804   5.806  50.234  1.00  0.00     0.016 C 
HETATM    3  C3  UNL     1      23.096   5.527  49.486  1.00  0.00     0.035 C 
HETATM    4  C4  UNL     1      23.831   4.397  50.112  1.00  0.00    -0.009 C 
HETATM    5  C5  UNL     1      24.960   4.070  50.704  1.00  0.00     0.082 C 
HETATM    6  N1  UNL     1      25.821   3.140  51.335  1.00  0.00    -0.378 N 
HETATM    7  P1  UNL     1      25.325   2.148  52.717  1.00  0.00    -0.041 P 
HETATM    8  C6  UNL     1      24.876   0.690  52.208  1.00  0.00     0.049 C 
HETATM    9  C7  UNL     1      24.202  -0.192  53.157  1.00  0.00     0.036 C 
HETATM   10  C8  UNL     1      24.686  -0.638  54.326  1.00  0.00     0.029 C 
HETATM   11  C9  UNL     1      26.005  -0.366  54.895  1.00  0.00    -0.001 C 
HETATM   12  C10 UNL     1      26.710   0.727  54.650  1.00  0.00    -0.021 C 
HETATM   13  C11 UNL     1      26.550   2.010  53.980  1.00  0.00     0.078 C 
HETATM   14  N2  UNL     1      22.885  -0.786  53.079  1.00  0.00    -0.327 N 
HETATM   15  C12 UNL     1      21.662  -0.189  52.679  1.00  0.00     0.223 C 
HETATM   16  O1  UNL     1      22.522   0.725  52.580  1.00  0.00    -0.273 OA
HETATM   17  C13 UNL     1      20.439   0.539  52.242  1.00  0.00     0.133 C 
HETATM   18  C14 UNL     1      20.917   1.941  51.924  1.00  0.00     0.282 C 
HETATM   19  N3  UNL     1      19.888   2.822  51.482  1.00  0.00     0.093 N 
HETATM   20  C15 UNL     1      19.426   2.494  50.173  1.00  0.00     0.298 C 
HETATM   21  C16 UNL     1      20.495   2.623  49.123  1.00  0.00     0.198 C 
HETATM   22  O2  UNL     1      21.373   3.665  49.383  1.00  0.00    -0.382 OA
HETATM   23  C17 UNL     1      20.821   4.659  50.147  1.00  0.00     0.153 C 
HETATM   24  C18 UNL     1      20.385   4.182  51.510  1.00  0.00     0.304 C 
HETATM   25  H9  UNL     1      26.773   3.095  50.908  1.00  0.00     0.163 HD
HETATM   26  H10 UNL     1      24.180   2.810  53.243  1.00  0.00     0.079 HD
HETATM   27  H17 UNL     1      22.774  -1.790  53.345  1.00  0.00     0.169 HD
ENDROOT
TORSDOF 0
ENDMDL
MODEL 6
REMARK VINA RESULT:      -7.4      1.559      6.081
REMARK  0 active torsions:
REMARK  status: ('A' for Active; 'I' for Inactive)
ROOT
HETATM    1  C1  UNL     1      29.470  -0.932  53.431  1.00  0.00     0.012 C 
HETATM    2  C2  UNL     1      28.214  -0.229  52.965  1.00  0.00     0.016 C 
HETATM    3  C3  UNL     1      28.527   1.257  53.007  1.00  0.00     0.035 C 
HETATM    4  C4  UNL     1      27.364   2.051  52.534  1.00  0.00    -0.009 C 
HETATM    5  C5  UNL     1      26.971   2.905  51.613  1.00  0.00     0.082 C 
HETATM    6  N1  UNL     1      25.998   3.733  51.004  1.00  0.00    -0.378 N 
HETATM    7  P1  UNL     1      24.405   3.142  50.502  1.00  0.00    -0.041 P 
HETATM    8  C6  UNL     1      23.316   3.479  51.637  1.00  0.00     0.049 C 
HETATM    9  C7  UNL     1      21.997   2.862  51.530  1.00  0.00     0.036 C 
HETATM   10  C8  UNL     1      21.128   2.989  50.516  1.00  0.00     0.029 C 
HETATM   11  C9  UNL     1      21.294   3.798  49.309  1.00  0.00    -0.001 C 
HETATM   12  C10 UNL     1      22.465   4.098  48.769  1.00  0.00    -0.021 C 
HETATM   13  C11 UNL     1      23.871   3.753  48.935  1.00  0.00     0.078 C 
HETATM   14  N2  UNL     1      21.317   1.985  52.458  1.00  0.00    -0.327 N 
HETATM   15  C12 UNL     1      21.838   0.880  53.181  1.00  0.00     0.223 C 
HETATM   16  O1  UNL     1      22.807   1.321  52.511  1.00  0.00    -0.273 OA
HETATM   17  C13 UNL     1      22.488  -0.257  53.888  1.00  0.00     0.133 C 
HETATM   18  C14 UNL     1      23.927  -0.234  53.413  1.00  0.00     0.282 C 
HETATM   19  N3  UNL     1      24.742  -1.260  53.973  1.00  0.00     0.093 N 
HETATM   20  C15 UNL     1      25.011  -1.036  55.357  1.00  0.00     0.298 C 
HETATM   21  C16 UNL     1      25.787   0.227  55.608  1.00  0.00     0.198 C 
HETATM   22  O2  UNL     1      26.700   0.500  54.599  1.00  0.00    -0.382 OA
HETATM   23  C17 UNL     1      27.112  -0.620  53.925  1.00  0.00     0.153 C 
HETATM   24  C18 UNL     1      25.982  -1.338  53.230  1.00  0.00     0.304 C 
HETATM   25  H9  UNL     1      26.309   4.722  50.880  1.00  0.00     0.163 HD
HETATM   26  H10 UNL     1      24.550   1.728  50.430  1.00  0.00     0.079 HD
HETATM   27  H17 UNL     1      20.305   2.151  52.651  1.00  0.00     0.169 HD
ENDROOT
TORSDOF 0
ENDMDL
MODEL 7
REMARK VINA RESULT:      -7.4      3.195      6.160
REMARK  0 active torsions:
REMARK  status: ('A' for Active; 'I' for Inactive)
ROOT
HETATM    1  C1  UNL     1      21.158  -0.179  51.570  1.00  0.00     0.012 C 
HETATM    2  C2  UNL     1      21.973   0.989  51.059  1.00  0.00     0.016 C 
HETATM    3  C3  UNL     1      22.993   1.292  52.144  1.00  0.00     0.035 C 
HETATM    4  C4  UNL     1      23.878   2.413  51.732  1.00  0.00    -0.009 C 
HETATM    5  C5  UNL     1      25.130   2.735  51.486  1.00  0.00     0.082 C 
HETATM    6  N1  UNL     1      26.137   3.657  51.112  1.00  0.00    -0.378 N 
HETATM    7  P1  UNL     1      26.064   4.615  49.624  1.00  0.00    -0.041 P 
HETATM    8  C6  UNL     1      25.487   6.081  49.947  1.00  0.00     0.049 C 
HETATM    9  C7  UNL     1      25.117   6.938  48.825  1.00  0.00     0.036 C 
HETATM   10  C8  UNL     1      25.919   7.362  47.836  1.00  0.00     0.029 C 
HETATM   11  C9  UNL     1      27.346   7.087  47.681  1.00  0.00    -0.001 C 
HETATM   12  C10 UNL     1      27.950   6.004  48.144  1.00  0.00    -0.021 C 
HETATM   13  C11 UNL     1      27.602   4.734  48.767  1.00  0.00     0.078 C 
HETATM   14  N2  UNL     1      23.834   7.526  48.504  1.00  0.00    -0.327 N 
HETATM   15  C12 UNL     1      22.547   6.929  48.546  1.00  0.00     0.223 C 
HETATM   16  O1  UNL     1      23.342   6.024  48.909  1.00  0.00    -0.273 OA
HETATM   17  C13 UNL     1      21.250   6.203  48.625  1.00  0.00     0.133 C 
HETATM   18  C14 UNL     1      21.615   4.811  49.099  1.00  0.00     0.282 C 
HETATM   19  N3  UNL     1      20.502   3.933  49.243  1.00  0.00     0.093 N 
HETATM   20  C15 UNL     1      19.680   4.287  50.354  1.00  0.00     0.298 C 
HETATM   21  C16 UNL     1      20.398   4.187  51.671  1.00  0.00     0.198 C 
HETATM   22  O2  UNL     1      21.314   3.145  51.701  1.00  0.00    -0.382 OA
HETATM   23  C17 UNL     1      21.007   2.131  50.831  1.00  0.00     0.153 C 
HETATM   24  C18 UNL     1      20.985   2.576  49.390  1.00  0.00     0.304 C 
HETATM   25  H9  UNL     1      26.924   3.716  51.795  1.00  0.00     0.163 HD
HETATM   26  H10 UNL     1      25.121   3.935  48.802  1.00  0.00     0.079 HD
HETATM   27  H17 UNL     1      23.805   8.523  48.195  1.00  0.00     0.169 HD
ENDROOT
TORSDOF 0
ENDMDL
MODEL 8
REMARK VINA RESULT:      -7.3      2.027      6.495
REMARK  0 active torsions:
REMARK  status: ('A' for Active; 'I' for Inactive)
ROOT
HETATM    1  C1  UNL     1      23.252  -1.630  55.687  1.00  0.00     0.012 C 
HETATM    2  C2  UNL     1      23.299  -0.607  54.573  1.00  0.00     0.016 C 
HETATM    3  C3  UNL     1      22.419  -1.157  53.464  1.00  0.00     0.035 C 
HETATM    4  C4  UNL     1      22.364  -0.210  52.320  1.00  0.00    -0.009 C 
HETATM    5  C5  UNL     1      21.550   0.532  51.600  1.00  0.00     0.082 C 
HETATM    6  N1  UNL     1      21.282   1.442  50.549  1.00  0.00    -0.378 N 
HETATM    7  P1  UNL     1      22.131   2.987  50.370  1.00  0.00    -0.041 P 
HETATM    8  C6  UNL     1      23.330   2.829  49.309  1.00  0.00     0.049 C 
HETATM    9  C7  UNL     1      24.302   3.913  49.204  1.00  0.00     0.036 C 
HETATM   10  C8  UNL     1      24.051   5.192  48.882  1.00  0.00     0.029 C 
HETATM   11  C9  UNL     1      22.756   5.775  48.536  1.00  0.00    -0.001 C 
HETATM   12  C10 UNL     1      21.593   5.319  48.974  1.00  0.00    -0.021 C 
HETATM   13  C11 UNL     1      21.086   4.336  49.922  1.00  0.00     0.078 C 
HETATM   14  N2  UNL     1      25.733   3.885  49.413  1.00  0.00    -0.327 N 
HETATM   15  C12 UNL     1      26.468   3.252  50.450  1.00  0.00     0.223 C 
HETATM   16  O1  UNL     1      25.261   2.995  50.697  1.00  0.00    -0.273 OA
HETATM   17  C13 UNL     1      27.135   2.552  51.581  1.00  0.00     0.133 C 
HETATM   18  C14 UNL     1      26.002   1.929  52.371  1.00  0.00     0.282 C 
HETATM   19  N3  UNL     1      26.423   1.200  53.520  1.00  0.00     0.093 N 
HETATM   20  C15 UNL     1      27.083  -0.017  53.171  1.00  0.00     0.298 C 
HETATM   21  C16 UNL     1      26.193  -0.978  52.434  1.00  0.00     0.198 C 
HETATM   22  O2  UNL     1      24.875  -0.921  52.866  1.00  0.00    -0.382 OA
HETATM   23  C17 UNL     1      24.749  -0.478  54.157  1.00  0.00     0.153 C 
HETATM   24  C18 UNL     1      25.273   0.922  54.354  1.00  0.00     0.304 C 
HETATM   25  H9  UNL     1      20.537   1.117  49.894  1.00  0.00     0.163 HD
HETATM   26  H10 UNL     1      22.699   3.238  51.651  1.00  0.00     0.079 HD
HETATM   27  H17 UNL     1      26.347   4.387  48.734  1.00  0.00     0.169 HD
ENDROOT
TORSDOF 0
ENDMDL
MODEL 9
REMARK VINA RESULT:      -7.2      7.457     10.635
REMARK  0 active torsions:
REMARK  status: ('A' for Active; 'I' for Inactive)
ROOT
HETATM    1  C1  UNL     1      32.912  11.339  47.033  1.00  0.00     0.012 C 
HETATM    2  C2  UNL     1      31.611  10.620  47.317  1.00  0.00     0.016 C 
HETATM    3  C3  UNL     1      30.959  11.374  48.464  1.00  0.00     0.035 C 
HETATM    4  C4  UNL     1      29.647  10.769  48.810  1.00  0.00    -0.009 C 
HETATM    5  C5  UNL     1      28.356  11.014  48.881  1.00  0.00     0.082 C 
HETATM    6  N1  UNL     1      27.020  10.634  49.157  1.00  0.00    -0.378 N 
HETATM    7  P1  UNL     1      26.258   9.201  48.446  1.00  0.00    -0.041 P 
HETATM    8  C6  UNL     1      26.336   7.972  49.480  1.00  0.00     0.049 C 
HETATM    9  C7  UNL     1      25.988   6.641  48.993  1.00  0.00     0.036 C 
HETATM   10  C8  UNL     1      24.814   6.256  48.469  1.00  0.00     0.029 C 
HETATM   11  C9  UNL     1      23.615   7.075  48.298  1.00  0.00    -0.001 C 
HETATM   12  C10 UNL     1      23.628   8.388  48.131  1.00  0.00    -0.021 C 
HETATM   13  C11 UNL     1      24.593   9.458  47.920  1.00  0.00     0.078 C 
HETATM   14  N2  UNL     1      26.793   5.439  48.952  1.00  0.00    -0.327 N 
HETATM   15  C12 UNL     1      28.148   5.290  48.558  1.00  0.00     0.223 C 
HETATM   16  O1  UNL     1      27.898   6.516  48.421  1.00  0.00    -0.273 OA
HETATM   17  C13 UNL     1      29.571   5.251  48.122  1.00  0.00     0.133 C 
HETATM   18  C14 UNL     1      29.908   6.686  47.775  1.00  0.00     0.282 C 
HETATM   19  N3  UNL     1      31.246   6.878  47.323  1.00  0.00     0.093 N 
HETATM   20  C15 UNL     1      32.196   6.726  48.378  1.00  0.00     0.298 C 
HETATM   21  C16 UNL     1      32.028   7.744  49.471  1.00  0.00     0.198 C 
HETATM   22  O2  UNL     1      31.614   8.978  48.991  1.00  0.00    -0.382 OA
HETATM   23  C17 UNL     1      31.970   9.196  47.685  1.00  0.00     0.153 C 
HETATM   24  C18 UNL     1      31.363   8.196  46.733  1.00  0.00     0.304 C 
HETATM   25  H9  UNL     1      26.531  11.277  49.818  1.00  0.00     0.163 HD
HETATM   26  H10 UNL     1      27.064   8.886  47.316  1.00  0.00     0.079 HD
HETATM   27  H17 UNL     1      26.358   4.536  49.244  1.00  0.00     0.169 HD
ENDROOT
TORSDOF 0
ENDMDL
