MODEL 1
REMARK VINA RESULT:      -8.0      0.000      0.000
REMARK  6 active torsions:
REMARK  status: ('A' for Active; 'I' for Inactive)
REMARK    1  A    between atoms: C2_2  and  C3_4 
REMARK    2  A    between atoms: C3_4  and  N1_5 
REMARK    3  A    between atoms: N1_5  and  C4_6 
REMARK       I    between atoms: N3_13  and  C10_14 
REMARK    4  A    between atoms: C10_14  and  C11_16 
REMARK    5  A    between atoms: C11_16  and  O2_17 
REMARK    6  A    between atoms: O2_17  and  C12_18 
ROOT
HETATM    1  C4  UNL     1      26.675   2.042  52.768  1.00  0.00     0.705 C 
HETATM    2  N2  UNL     1      27.957   2.140  52.834  1.00  0.00    -0.103 NA
HETATM    3  C5  UNL     1      29.048   1.580  53.507  1.00  0.00     0.203 C 
HETATM    4  C6  UNL     1      28.877   0.195  54.027  1.00  0.00    -0.058 C 
HETATM    5  C7  UNL     1      29.768  -0.802  53.800  1.00  0.00     0.040 C 
HETATM    6  C8  UNL     1      27.649  -0.110  54.801  1.00  0.00     0.023 C 
HETATM    7  C9  UNL     1      26.358   0.258  54.636  1.00  0.00     0.119 C 
HETATM    8  N3  UNL     1      25.970   1.088  53.558  1.00  0.00    -0.122 N 
HETATM    9  C10 UNL     1      24.643   0.922  53.089  1.00  0.00     0.266 C 
HETATM   10  O1  UNL     1      23.831   1.389  52.300  1.00  0.00    -0.270 OA
ENDROOT
BRANCH   1  11
HETATM   11  N1  UNL     1      25.990   2.914  51.841  1.00  0.00    -0.220 N 
HETATM   12  H5  UNL     1      25.261   3.498  52.346  1.00  0.00     0.178 HD
BRANCH  11  13
HETATM   13  C3  UNL     1      26.477   2.779  50.474  1.00  0.00     0.180 C 
BRANCH  13  14
HETATM   14  C2  UNL     1      26.293   4.048  49.694  1.00  0.00    -0.016 A 
HETATM   15  C1  UNL     1      27.276   4.521  48.962  1.00  0.00     0.121 A 
HETATM   16 BR1  UNL     1      25.351   5.552  49.019  1.00  0.00    -0.130 Br
ENDBRANCH  13  14
ENDBRANCH  11  13
ENDBRANCH   1  11
BRANCH   9  17
HETATM   17  C11 UNL     1      23.517  -0.036  53.394  1.00  0.00     0.279 C 
BRANCH  17  18
HETATM   18  O2  UNL     1      22.419   0.080  52.694  1.00  0.00    -0.342 OA
BRANCH  18  19
HETATM   19  C12 UNL     1      21.148  -0.067  52.585  1.00  0.00     0.069 A 
HETATM   20  C13 UNL     1      20.494   0.416  51.440  1.00  0.00     0.037 A 
HETATM   21  C14 UNL     1      19.087   0.223  51.347  1.00  0.00     0.003 A 
HETATM   22  C15 UNL     1      18.172  -0.422  52.283  1.00  0.00     0.000 A 
HETATM   23  C16 UNL     1      19.075  -0.799  53.311  1.00  0.00     0.003 A 
HETATM   24  C17 UNL     1      20.400  -0.705  53.572  1.00  0.00     0.037 A 
ENDBRANCH  18  19
ENDBRANCH  17  18
ENDBRANCH   9  17
TORSDOF 6
ENDMDL
MODEL 2
REMARK VINA RESULT:      -8.0      2.754      6.869
REMARK  6 active torsions:
REMARK  status: ('A' for Active; 'I' for Inactive)
REMARK    1  A    between atoms: C2_2  and  C3_4 
REMARK    2  A    between atoms: C3_4  and  N1_5 
REMARK    3  A    between atoms: N1_5  and  C4_6 
REMARK       I    between atoms: N3_13  and  C10_14 
REMARK    4  A    between atoms: C10_14  and  C11_16 
REMARK    5  A    between atoms: C11_16  and  O2_17 
REMARK    6  A    between atoms: O2_17  and  C12_18 
ROOT
HETATM    1  C4  UNL     1      24.520  -0.214  53.720  1.00  0.00     0.705 C 
HETATM    2  N2  UNL     1      23.904  -1.010  54.523  1.00  0.00    -0.103 NA
HETATM    3  C5  UNL     1      22.631  -1.227  55.059  1.00  0.00     0.203 C 
HETATM    4  C6  UNL     1      21.473  -0.732  54.262  1.00  0.00    -0.058 C 
HETATM    5  C7  UNL     1      20.396  -1.497  53.958  1.00  0.00     0.040 C 
HETATM    6  C8  UNL     1      21.528   0.657  53.746  1.00  0.00     0.023 C 
HETATM    7  C9  UNL     1      22.533   1.387  53.210  1.00  0.00     0.119 C 
HETATM    8  N3  UNL     1      23.828   0.838  53.053  1.00  0.00    -0.122 N 
HETATM    9  C10 UNL     1      24.602   1.360  51.987  1.00  0.00     0.266 C 
HETATM   10  O1  UNL     1      25.717   1.306  51.485  1.00  0.00    -0.270 OA
ENDROOT
BRANCH   1  11
HETATM   11  N1  UNL     1      25.929  -0.453  53.500  1.00  0.00    -0.220 N 
HETATM   12  H5  UNL     1      26.087  -0.924  52.562  1.00  0.00     0.178 HD
BRANCH  11  13
HETATM   13  C3  UNL     1      26.760   0.020  54.600  1.00  0.00     0.180 C 
BRANCH  13  14
HETATM   14  C2  UNL     1      28.220  -0.064  54.266  1.00  0.00    -0.016 A 
HETATM   15  C1  UNL     1      29.021   0.938  54.547  1.00  0.00     0.121 A 
HETATM   16 BR1  UNL     1      29.814  -0.879  53.629  1.00  0.00    -0.130 Br
ENDBRANCH  13  14
ENDBRANCH  11  13
ENDBRANCH   1  11
BRANCH   9  17
HETATM   17  C11 UNL     1      24.343   2.325  50.855  1.00  0.00     0.279 C 
BRANCH  17  18
HETATM   18  O2  UNL     1      25.110   3.381  50.775  1.00  0.00    -0.342 OA
BRANCH  18  19
HETATM   19  C12 UNL     1      25.719   4.262  50.067  1.00  0.00     0.069 A 
HETATM   20  C13 UNL     1      26.907   3.913  49.403  1.00  0.00     0.037 A 
HETATM   21  C14 UNL     1      27.547   4.912  48.617  1.00  0.00     0.003 A 
HETATM   22  C15 UNL     1      27.158   6.298  48.376  1.00  0.00     0.000 A 
HETATM   23  C16 UNL     1      25.966   6.371  49.144  1.00  0.00     0.003 A 
HETATM   24  C17 UNL     1      25.225   5.558  49.933  1.00  0.00     0.037 A 
ENDBRANCH  18  19
ENDBRANCH  17  18
ENDBRANCH   9  17
TORSDOF 6
ENDMDL
MODEL 3
REMARK VINA RESULT:      -7.5      2.942      7.861
REMARK  6 active torsions:
REMARK  status: ('A' for Active; 'I' for Inactive)
REMARK    1  A    between atoms: C2_2  and  C3_4 
REMARK    2  A    between atoms: C3_4  and  N1_5 
REMARK    3  A    between atoms: N1_5  and  C4_6 
REMARK       I    between atoms: N3_13  and  C10_14 
REMARK    4  A    between atoms: C10_14  and  C11_16 
REMARK    5  A    between atoms: C11_16  and  O2_17 
REMARK    6  A    between atoms: O2_17  and  C12_18 
ROOT
HETATM    1  C4  UNL     1      24.697   2.065  52.609  1.00  0.00     0.705 C 
HETATM    2  N2  UNL     1      23.638   1.536  53.116  1.00  0.00    -0.103 NA
HETATM    3  C5  UNL     1      22.286   1.337  52.822  1.00  0.00     0.203 C 
HETATM    4  C6  UNL     1      21.908   1.317  51.380  1.00  0.00    -0.058 C 
HETATM    5  C7  UNL     1      21.157   0.337  50.820  1.00  0.00     0.040 C 
HETATM    6  C8  UNL     1      22.415   2.409  50.514  1.00  0.00     0.023 C 
HETATM    7  C9  UNL     1      23.612   3.036  50.452  1.00  0.00     0.119 C 
HETATM    8  N3  UNL     1      24.669   2.676  51.322  1.00  0.00    -0.122 N 
HETATM    9  C10 UNL     1      25.981   2.882  50.829  1.00  0.00     0.266 C 
HETATM   10  O1  UNL     1      27.159   2.820  51.158  1.00  0.00    -0.270 OA
ENDROOT
BRANCH   1  11
HETATM   11  N1  UNL     1      25.915   1.984  53.383  1.00  0.00    -0.220 N 
HETATM   12  H5  UNL     1      26.444   2.904  53.346  1.00  0.00     0.178 HD
BRANCH  11  13
HETATM   13  C3  UNL     1      26.095   0.685  54.018  1.00  0.00     0.180 C 
BRANCH  13  14
HETATM   14  C2  UNL     1      27.440   0.098  53.707  1.00  0.00    -0.016 A 
HETATM   15  C1  UNL     1      27.531  -1.012  53.010  1.00  0.00     0.121 A 
HETATM   16 BR1  UNL     1      29.337   0.014  53.687  1.00  0.00    -0.130 Br
ENDBRANCH  13  14
ENDBRANCH  11  13
ENDBRANCH   1  11
BRANCH   9  17
HETATM   17  C11 UNL     1      26.567   3.308  49.504  1.00  0.00     0.279 C 
BRANCH  17  18
HETATM   18  O2  UNL     1      26.897   4.566  49.367  1.00  0.00    -0.342 OA
BRANCH  18  19
HETATM   19  C12 UNL     1      27.422   5.509  48.673  1.00  0.00     0.069 A 
HETATM   20  C13 UNL     1      26.619   6.580  48.245  1.00  0.00     0.037 A 
HETATM   21  C14 UNL     1      27.239   7.614  47.489  1.00  0.00     0.003 A 
HETATM   22  C15 UNL     1      28.630   7.754  47.066  1.00  0.00     0.000 A 
HETATM   23  C16 UNL     1      29.189   6.571  47.617  1.00  0.00     0.003 A 
HETATM   24  C17 UNL     1      28.775   5.503  48.340  1.00  0.00     0.037 A 
ENDBRANCH  18  19
ENDBRANCH  17  18
ENDBRANCH   9  17
TORSDOF 6
ENDMDL
MODEL 4
REMARK VINA RESULT:      -7.5      3.084      6.940
REMARK  6 active torsions:
REMARK  status: ('A' for Active; 'I' for Inactive)
REMARK    1  A    between atoms: C2_2  and  C3_4 
REMARK    2  A    between atoms: C3_4  and  N1_5 
REMARK    3  A    between atoms: N1_5  and  C4_6 
REMARK       I    between atoms: N3_13  and  C10_14 
REMARK    4  A    between atoms: C10_14  and  C11_16 
REMARK    5  A    between atoms: C11_16  and  O2_17 
REMARK    6  A    between atoms: O2_17  and  C12_18 
ROOT
HETATM    1  C4  UNL     1      22.242   1.259  51.127  1.00  0.00     0.705 C 
HETATM    2  N2  UNL     1      22.303   2.128  50.179  1.00  0.00    -0.103 NA
HETATM    3  C5  UNL     1      23.052   3.241  49.784  1.00  0.00     0.203 C 
HETATM    4  C6  UNL     1      24.453   3.320  50.283  1.00  0.00    -0.058 C 
HETATM    5  C7  UNL     1      25.519   3.553  49.479  1.00  0.00     0.040 C 
HETATM    6  C8  UNL     1      24.688   3.094  51.730  1.00  0.00     0.023 C 
HETATM    7  C9  UNL     1      24.157   2.213  52.609  1.00  0.00     0.119 C 
HETATM    8  N3  UNL     1      23.182   1.273  52.198  1.00  0.00    -0.122 N 
HETATM    9  C10 UNL     1      23.142   0.057  52.925  1.00  0.00     0.266 C 
HETATM   10  O1  UNL     1      22.507  -0.984  53.034  1.00  0.00    -0.270 OA
ENDROOT
BRANCH   1  11
HETATM   11  N1  UNL     1      21.207   0.254  51.040  1.00  0.00    -0.220 N 
HETATM   12  H5  UNL     1      21.569  -0.687  51.373  1.00  0.00     0.178 HD
BRANCH  11  13
HETATM   13  C3  UNL     1      19.946   0.785  50.539  1.00  0.00     0.180 C 
BRANCH  13  14
HETATM   14  C2  UNL     1      18.769   0.170  51.237  1.00  0.00    -0.016 A 
HETATM   15  C1  UNL     1      18.901  -0.314  52.452  1.00  0.00     0.121 A 
HETATM   16 BR1  UNL     1      16.958  -0.363  51.453  1.00  0.00    -0.130 Br
ENDBRANCH  13  14
ENDBRANCH  11  13
ENDBRANCH   1  11
BRANCH   9  17
HETATM   17  C11 UNL     1      23.988  -0.563  54.010  1.00  0.00     0.279 C 
BRANCH  17  18
HETATM   18  O2  UNL     1      25.207  -0.917  53.697  1.00  0.00    -0.342 OA
BRANCH  18  19
HETATM   19  C12 UNL     1      26.475  -0.731  53.776  1.00  0.00     0.069 A 
HETATM   20  C13 UNL     1      26.982   0.168  54.729  1.00  0.00     0.037 A 
HETATM   21  C14 UNL     1      28.394   0.338  54.797  1.00  0.00     0.003 A 
HETATM   22  C15 UNL     1      29.447  -0.294  54.009  1.00  0.00     0.000 A 
HETATM   23  C16 UNL     1      28.671  -1.122  53.155  1.00  0.00     0.003 A 
HETATM   24  C17 UNL     1      27.365  -1.409  52.946  1.00  0.00     0.037 A 
ENDBRANCH  18  19
ENDBRANCH  17  18
ENDBRANCH   9  17
TORSDOF 6
ENDMDL
MODEL 5
REMARK VINA RESULT:      -7.3      2.852      6.777
REMARK  6 active torsions:
REMARK  status: ('A' for Active; 'I' for Inactive)
REMARK    1  A    between atoms: C2_2  and  C3_4 
REMARK    2  A    between atoms: C3_4  and  N1_5 
REMARK    3  A    between atoms: N1_5  and  C4_6 
REMARK       I    between atoms: N3_13  and  C10_14 
REMARK    4  A    between atoms: C10_14  and  C11_16 
REMARK    5  A    between atoms: C11_16  and  O2_17 
REMARK    6  A    between atoms: O2_17  and  C12_18 
ROOT
HETATM    1  C4  UNL     1      23.814   0.652  53.087  1.00  0.00     0.705 C 
HETATM    2  N2  UNL     1      24.417  -0.362  53.603  1.00  0.00    -0.103 NA
HETATM    3  C5  UNL     1      25.677  -0.970  53.626  1.00  0.00     0.203 C 
HETATM    4  C6  UNL     1      26.851  -0.093  53.356  1.00  0.00    -0.058 C 
HETATM    5  C7  UNL     1      27.948  -0.051  54.151  1.00  0.00     0.040 C 
HETATM    6  C8  UNL     1      26.791   0.804  52.177  1.00  0.00     0.023 C 
HETATM    7  C9  UNL     1      25.792   1.553  51.656  1.00  0.00     0.119 C 
HETATM    8  N3  UNL     1      24.511   1.577  52.257  1.00  0.00    -0.122 N 
HETATM    9  C10 UNL     1      23.762   2.768  52.083  1.00  0.00     0.266 C 
HETATM   10  O1  UNL     1      22.664   3.260  52.306  1.00  0.00    -0.270 OA
ENDROOT
BRANCH   1  11
HETATM   11  N1  UNL     1      22.417   0.829  53.412  1.00  0.00    -0.220 N 
HETATM   12  H5  UNL     1      22.168   1.860  53.447  1.00  0.00     0.178 HD
BRANCH  11  13
HETATM   13  C3  UNL     1      21.715  -0.436  53.592  1.00  0.00     0.180 C 
BRANCH  13  14
HETATM   14  C2  UNL     1      20.276  -0.334  53.180  1.00  0.00    -0.016 A 
HETATM   15  C1  UNL     1      19.848   0.726  52.532  1.00  0.00     0.121 A 
HETATM   16 BR1  UNL     1      18.479  -0.917  52.980  1.00  0.00    -0.130 Br
ENDBRANCH  13  14
ENDBRANCH  11  13
ENDBRANCH   1  11
BRANCH   9  17
HETATM   17  C11 UNL     1      24.042   4.124  51.481  1.00  0.00     0.279 C 
BRANCH  17  18
HETATM   18  O2  UNL     1      24.916   4.184  50.511  1.00  0.00    -0.342 OA
BRANCH  18  19
HETATM   19  C12 UNL     1      25.793   4.842  49.842  1.00  0.00     0.069 A 
HETATM   20  C13 UNL     1      26.881   4.159  49.274  1.00  0.00     0.037 A 
HETATM   21  C14 UNL     1      27.826   4.919  48.528  1.00  0.00     0.003 A 
HETATM   22  C15 UNL     1      27.853   6.351  48.243  1.00  0.00     0.000 A 
HETATM   23  C16 UNL     1      26.677   6.772  48.918  1.00  0.00     0.003 A 
HETATM   24  C17 UNL     1      25.687   6.219  49.657  1.00  0.00     0.037 A 
ENDBRANCH  18  19
ENDBRANCH  17  18
ENDBRANCH   9  17
TORSDOF 6
ENDMDL
MODEL 6
REMARK VINA RESULT:      -7.2      2.660      6.569
REMARK  6 active torsions:
REMARK  status: ('A' for Active; 'I' for Inactive)
REMARK    1  A    between atoms: C2_2  and  C3_4 
REMARK    2  A    between atoms: C3_4  and  N1_5 
REMARK    3  A    between atoms: N1_5  and  C4_6 
REMARK       I    between atoms: N3_13  and  C10_14 
REMARK    4  A    between atoms: C10_14  and  C11_16 
REMARK    5  A    between atoms: C11_16  and  O2_17 
REMARK    6  A    between atoms: O2_17  and  C12_18 
ROOT
HETATM    1  C4  UNL     1      22.282   1.965  52.197  1.00  0.00     0.705 C 
HETATM    2  N2  UNL     1      21.179   1.314  52.064  1.00  0.00    -0.103 NA
HETATM    3  C5  UNL     1      20.648   0.038  52.278  1.00  0.00     0.203 C 
HETATM    4  C6  UNL     1      21.306  -0.796  53.323  1.00  0.00    -0.058 C 
HETATM    5  C7  UNL     1      20.625  -1.425  54.313  1.00  0.00     0.040 C 
HETATM    6  C8  UNL     1      22.784  -0.908  53.294  1.00  0.00     0.023 C 
HETATM    7  C9  UNL     1      23.758  -0.003  53.045  1.00  0.00     0.119 C 
HETATM    8  N3  UNL     1      23.441   1.344  52.745  1.00  0.00    -0.122 N 
HETATM    9  C10 UNL     1      24.412   2.310  53.107  1.00  0.00     0.266 C 
HETATM   10  O1  UNL     1      24.666   3.504  53.023  1.00  0.00    -0.270 OA
ENDROOT
BRANCH   1  11
HETATM   11  N1  UNL     1      22.283   3.355  51.799  1.00  0.00    -0.220 N 
HETATM   12  H5  UNL     1      23.002   3.903  52.356  1.00  0.00     0.178 HD
BRANCH  11  13
HETATM   13  C3  UNL     1      21.322   3.640  50.741  1.00  0.00     0.180 C 
BRANCH  13  14
HETATM   14  C2  UNL     1      21.873   3.304  49.387  1.00  0.00    -0.016 A 
HETATM   15  C1  UNL     1      22.313   4.258  48.598  1.00  0.00     0.121 A 
HETATM   16 BR1  UNL     1      22.418   2.169  47.964  1.00  0.00    -0.130 Br
ENDBRANCH  13  14
ENDBRANCH  11  13
ENDBRANCH   1  11
BRANCH   9  17
HETATM   17  C11 UNL     1      25.716   2.276  53.867  1.00  0.00     0.279 C 
BRANCH  17  18
HETATM   18  O2  UNL     1      26.724   1.659  53.308  1.00  0.00    -0.342 OA
BRANCH  18  19
HETATM   19  C12 UNL     1      27.651   0.772  53.355  1.00  0.00     0.069 A 
HETATM   20  C13 UNL     1      27.334  -0.571  53.097  1.00  0.00     0.037 A 
HETATM   21  C14 UNL     1      28.390  -1.525  53.146  1.00  0.00     0.003 A 
HETATM   22  C15 UNL     1      29.808  -1.330  53.430  1.00  0.00     0.000 A 
HETATM   23  C16 UNL     1      29.839   0.073  53.647  1.00  0.00     0.003 A 
HETATM   24  C17 UNL     1      28.971   1.112  53.647  1.00  0.00     0.037 A 
ENDBRANCH  18  19
ENDBRANCH  17  18
ENDBRANCH   9  17
TORSDOF 6
ENDMDL
MODEL 7
REMARK VINA RESULT:      -7.1      1.958      2.844
REMARK  6 active torsions:
REMARK  status: ('A' for Active; 'I' for Inactive)
REMARK    1  A    between atoms: C2_2  and  C3_4 
REMARK    2  A    between atoms: C3_4  and  N1_5 
REMARK    3  A    between atoms: N1_5  and  C4_6 
REMARK       I    between atoms: N3_13  and  C10_14 
REMARK    4  A    between atoms: C10_14  and  C11_16 
REMARK    5  A    between atoms: C11_16  and  O2_17 
REMARK    6  A    between atoms: O2_17  and  C12_18 
ROOT
HETATM    1  C4  UNL     1      26.028   2.856  50.990  1.00  0.00     0.705 C 
HETATM    2  N2  UNL     1      27.136   2.500  51.541  1.00  0.00    -0.103 NA
HETATM    3  C5  UNL     1      27.655   2.152  52.792  1.00  0.00     0.203 C 
HETATM    4  C6  UNL     1      26.693   1.600  53.788  1.00  0.00    -0.058 C 
HETATM    5  C7  UNL     1      26.911   0.454  54.479  1.00  0.00     0.040 C 
HETATM    6  C8  UNL     1      25.419   2.329  54.000  1.00  0.00     0.023 C 
HETATM    7  C9  UNL     1      24.570   2.942  53.144  1.00  0.00     0.119 C 
HETATM    8  N3  UNL     1      24.829   2.962  51.752  1.00  0.00    -0.122 N 
HETATM    9  C10 UNL     1      23.694   3.031  50.907  1.00  0.00     0.266 C 
HETATM   10  O1  UNL     1      23.369   3.141  49.732  1.00  0.00    -0.270 OA
ENDROOT
BRANCH   1  11
HETATM   11  N1  UNL     1      26.046   3.108  49.567  1.00  0.00    -0.220 N 
HETATM   12  H5  UNL     1      25.534   2.339  49.043  1.00  0.00     0.178 HD
BRANCH  11  13
HETATM   13  C3  UNL     1      26.740   4.343  49.221  1.00  0.00     0.180 C 
BRANCH  13  14
HETATM   14  C2  UNL     1      25.786   5.490  49.070  1.00  0.00    -0.016 A 
HETATM   15  C1  UNL     1      25.724   6.424  49.992  1.00  0.00     0.121 A 
HETATM   16 BR1  UNL     1      24.469   6.554  48.209  1.00  0.00    -0.130 Br
ENDBRANCH  13  14
ENDBRANCH  11  13
ENDBRANCH   1  11
BRANCH   9  17
HETATM   17  C11 UNL     1      22.200   2.978  51.123  1.00  0.00     0.279 C 
BRANCH  17  18
HETATM   18  O2  UNL     1      21.754   2.189  52.064  1.00  0.00    -0.342 OA
BRANCH  18  19
HETATM   19  C12 UNL     1      21.845   1.102  52.741  1.00  0.00     0.069 A 
HETATM   20  C13 UNL     1      21.107   0.965  53.928  1.00  0.00     0.037 A 
HETATM   21  C14 UNL     1      21.223  -0.260  54.645  1.00  0.00     0.003 A 
HETATM   22  C15 UNL     1      22.013  -1.448  54.336  1.00  0.00     0.000 A 
HETATM   23  C16 UNL     1      22.635  -1.041  53.127  1.00  0.00     0.003 A 
HETATM   24  C17 UNL     1      22.652   0.046  52.320  1.00  0.00     0.037 A 
ENDBRANCH  18  19
ENDBRANCH  17  18
ENDBRANCH   9  17
TORSDOF 6
ENDMDL
MODEL 8
REMARK VINA RESULT:      -7.0      2.572      3.094
REMARK  6 active torsions:
REMARK  status: ('A' for Active; 'I' for Inactive)
REMARK    1  A    between atoms: C2_2  and  C3_4 
REMARK    2  A    between atoms: C3_4  and  N1_5 
REMARK    3  A    between atoms: N1_5  and  C4_6 
REMARK       I    between atoms: N3_13  and  C10_14 
REMARK    4  A    between atoms: C10_14  and  C11_16 
REMARK    5  A    between atoms: C11_16  and  O2_17 
REMARK    6  A    between atoms: O2_17  and  C12_18 
ROOT
HETATM    1  C4  UNL     1      24.200   1.563  52.280  1.00  0.00     0.705 C 
HETATM    2  N2  UNL     1      25.421   1.368  51.920  1.00  0.00    -0.103 NA
HETATM    3  C5  UNL     1      26.501   0.519  52.184  1.00  0.00     0.203 C 
HETATM    4  C6  UNL     1      26.176  -0.838  52.706  1.00  0.00    -0.058 C 
HETATM    5  C7  UNL     1      26.681  -1.980  52.179  1.00  0.00     0.040 C 
HETATM    6  C8  UNL     1      25.221  -0.937  53.837  1.00  0.00     0.023 C 
HETATM    7  C9  UNL     1      24.072  -0.279  54.115  1.00  0.00     0.119 C 
HETATM    8  N3  UNL     1      23.574   0.716  53.240  1.00  0.00    -0.122 N 
HETATM    9  C10 UNL     1      22.168   0.894  53.234  1.00  0.00     0.266 C 
HETATM   10  O1  UNL     1      21.285   1.602  52.767  1.00  0.00    -0.270 OA
ENDROOT
BRANCH   1  11
HETATM   11  N1  UNL     1      23.487   2.649  51.648  1.00  0.00    -0.220 N 
HETATM   12  H5  UNL     1      22.926   3.196  52.365  1.00  0.00     0.178 HD
BRANCH  11  13
HETATM   13  C3  UNL     1      23.729   2.725  50.213  1.00  0.00     0.180 C 
BRANCH  13  14
HETATM   14  C2  UNL     1      22.578   2.168  49.428  1.00  0.00    -0.016 A 
HETATM   15  C1  UNL     1      22.596   2.202  48.115  1.00  0.00     0.121 A 
HETATM   16 BR1  UNL     1      20.910   1.297  49.169  1.00  0.00    -0.130 Br
ENDBRANCH  13  14
ENDBRANCH  11  13
ENDBRANCH   1  11
BRANCH   9  17
HETATM   17  C11 UNL     1      21.001   0.183  53.876  1.00  0.00     0.279 C 
BRANCH  17  18
HETATM   18  O2  UNL     1      20.158  -0.428  53.085  1.00  0.00    -0.342 OA
BRANCH  18  19
HETATM   19  C12 UNL     1      18.950  -0.695  52.740  1.00  0.00     0.069 A 
HETATM   20  C13 UNL     1      18.377  -0.015  51.653  1.00  0.00     0.037 A 
HETATM   21  C14 UNL     1      17.041  -0.348  51.291  1.00  0.00     0.003 A 
HETATM   22  C15 UNL     1      16.130  -1.321  51.886  1.00  0.00     0.000 A 
HETATM   23  C16 UNL     1      16.945  -1.839  52.926  1.00  0.00     0.003 A 
HETATM   24  C17 UNL     1      18.195  -1.654  53.412  1.00  0.00     0.037 A 
ENDBRANCH  18  19
ENDBRANCH  17  18
ENDBRANCH   9  17
TORSDOF 6
ENDMDL
MODEL 9
REMARK VINA RESULT:      -6.9      3.166      5.469
REMARK  6 active torsions:
REMARK  status: ('A' for Active; 'I' for Inactive)
REMARK    1  A    between atoms: C2_2  and  C3_4 
REMARK    2  A    between atoms: C3_4  and  N1_5 
REMARK    3  A    between atoms: N1_5  and  C4_6 
REMARK       I    between atoms: N3_13  and  C10_14 
REMARK    4  A    between atoms: C10_14  and  C11_16 
REMARK    5  A    between atoms: C11_16  and  O2_17 
REMARK    6  A    between atoms: O2_17  and  C12_18 
ROOT
HETATM    1  C4  UNL     1      23.811   0.676  53.028  1.00  0.00     0.705 C 
HETATM    2  N2  UNL     1      24.452  -0.342  53.489  1.00  0.00    -0.103 NA
HETATM    3  C5  UNL     1      25.716  -0.937  53.430  1.00  0.00     0.203 C 
HETATM    4  C6  UNL     1      26.865  -0.044  53.111  1.00  0.00    -0.058 C 
HETATM    5  C7  UNL     1      28.005  -0.006  53.844  1.00  0.00     0.040 C 
HETATM    6  C8  UNL     1      26.730   0.874  51.954  1.00  0.00     0.023 C 
HETATM    7  C9  UNL     1      25.697   1.623  51.505  1.00  0.00     0.119 C 
HETATM    8  N3  UNL     1      24.452   1.623  52.178  1.00  0.00    -0.122 N 
HETATM    9  C10 UNL     1      23.684   2.809  52.069  1.00  0.00     0.266 C 
HETATM   10  O1  UNL     1      22.595   3.286  52.363  1.00  0.00    -0.270 OA
ENDROOT
BRANCH   1  11
HETATM   11  N1  UNL     1      22.433   0.831  53.434  1.00  0.00    -0.220 N 
HETATM   12  H5  UNL     1      22.311   1.713  54.013  1.00  0.00     0.178 HD
BRANCH  11  13
HETATM   13  C3  UNL     1      21.574  -0.238  52.940  1.00  0.00     0.180 C 
BRANCH  13  14
HETATM   14  C2  UNL     1      20.606   0.262  51.909  1.00  0.00    -0.016 A 
HETATM   15  C1  UNL     1      19.317   0.057  52.060  1.00  0.00     0.121 A 
HETATM   16 BR1  UNL     1      20.060   1.163  50.329  1.00  0.00    -0.130 Br
ENDBRANCH  13  14
ENDBRANCH  11  13
ENDBRANCH   1  11
BRANCH   9  17
HETATM   17  C11 UNL     1      23.916   4.178  51.478  1.00  0.00     0.279 C 
BRANCH  17  18
HETATM   18  O2  UNL     1      23.875   4.289  50.177  1.00  0.00    -0.342 OA
BRANCH  18  19
HETATM   19  C12 UNL     1      23.284   4.062  49.059  1.00  0.00     0.069 A 
HETATM   20  C13 UNL     1      23.037   2.737  48.666  1.00  0.00     0.037 A 
HETATM   21  C14 UNL     1      22.369   2.525  47.427  1.00  0.00     0.003 A 
HETATM   22  C15 UNL     1      21.876   3.497  46.457  1.00  0.00     0.000 A 
HETATM   23  C16 UNL     1      22.250   4.710  47.091  1.00  0.00     0.003 A 
HETATM   24  C17 UNL     1      22.872   5.102  48.228  1.00  0.00     0.037 A 
ENDBRANCH  18  19
ENDBRANCH  17  18
ENDBRANCH   9  17
TORSDOF 6
ENDMDL
