MODEL 1
REMARK VINA RESULT:      -9.8      0.000      0.000
REMARK  2 active torsions:
REMARK  status: ('A' for Active; 'I' for Inactive)
REMARK    1  A    between atoms: C6_7  and  N2_8 
REMARK    2  A    between atoms: N2_8  and  C7_9 
ROOT
HETATM    1  C1  UNL     1      24.916   5.760  50.434  1.00  0.00     0.309 C 
HETATM    2  N1  UNL     1      24.300   4.617  49.755  1.00  0.00     0.085 N 
HETATM    3  C2  UNL     1      25.159   3.515  49.670  1.00  0.00     0.275 C 
HETATM    4  C3  UNL     1      25.452   2.851  50.974  1.00  0.00     0.058 C 
HETATM    5  C4  UNL     1      24.413   2.043  51.614  1.00  0.00    -0.013 C 
HETATM    6  C5  UNL     1      23.315   1.368  52.092  1.00  0.00    -0.001 A 
HETATM    7  C6  UNL     1      23.289   0.466  53.101  1.00  0.00     0.063 A 
HETATM    8  C13 UNL     1      22.191  -0.345  53.185  1.00  0.00     0.089 A 
HETATM    9  C14 UNL     1      22.197  -1.259  54.269  1.00  0.00     0.103 C 
HETATM   10  N3  UNL     1      22.180  -2.008  55.155  1.00  0.00    -0.191 NA
HETATM   11  C15 UNL     1      21.206  -0.146  52.209  1.00  0.00     0.137 A 
HETATM   12  N4  UNL     1      21.372   0.811  51.252  1.00  0.00    -0.282 NA
HETATM   13  C16 UNL     1      22.457   1.644  51.142  1.00  0.00     0.111 A 
HETATM   14  C17 UNL     1      21.679   2.189  50.272  1.00  0.00     0.059 A 
HETATM   15  C18 UNL     1      22.258   3.334  50.919  1.00  0.00     0.321 A 
HETATM   16  N5  UNL     1      22.140   4.594  50.613  1.00  0.00    -0.378 NA
HETATM   17  C19 UNL     1      21.372   5.056  49.497  1.00  0.00     0.210 C 
HETATM   18  O1  UNL     1      20.186   4.702  49.332  1.00  0.00    -0.275 OA
HETATM   19  C20 UNL     1      22.440   5.882  48.891  1.00  0.00     0.132 C 
HETATM   20  C21 UNL     1      23.634   5.037  48.545  1.00  0.00     0.281 C 
ENDROOT
BRANCH   7  21
HETATM   21  N2  UNL     1      24.413   0.501  53.968  1.00  0.00    -0.354 N 
HETATM   22  H9  UNL     1      24.103   0.959  54.833  1.00  0.00     0.166 HD
BRANCH  21  23
HETATM   23  C7  UNL     1      25.709   0.019  53.704  1.00  0.00     0.034 A 
HETATM   24  C8  UNL     1      25.925  -1.117  53.001  1.00  0.00     0.032 A 
HETATM   25  C9  UNL     1      27.226  -1.516  52.769  1.00  0.00     0.046 A 
HETATM   26  C10 UNL     1      28.301  -0.774  53.244  1.00  0.00     0.138 A 
HETATM   27  F1  UNL     1      29.546  -1.192  53.000  1.00  0.00    -0.204 F 
HETATM   28  C11 UNL     1      28.034   0.393  53.967  1.00  0.00     0.074 A 
HETATM   29 CL1  UNL     1      29.442   1.276  54.527  1.00  0.00    -0.081 Cl
HETATM   30  C12 UNL     1      26.734   0.791  54.197  1.00  0.00     0.056 A 
ENDBRANCH  21  23
ENDBRANCH   7  21
TORSDOF 2
ENDMDL
MODEL 2
REMARK VINA RESULT:      -9.5      3.929      7.211
REMARK  2 active torsions:
REMARK  status: ('A' for Active; 'I' for Inactive)
REMARK    1  A    between atoms: C6_7  and  N2_8 
REMARK    2  A    between atoms: N2_8  and  C7_9 
ROOT
HETATM    1  C1  UNL     1      25.950  -0.464  55.360  1.00  0.00     0.309 C 
HETATM    2  N1  UNL     1      26.225  -0.200  53.945  1.00  0.00     0.085 N 
HETATM    3  C2  UNL     1      25.254  -0.745  53.097  1.00  0.00     0.275 C 
HETATM    4  C3  UNL     1      23.917  -0.086  53.176  1.00  0.00     0.058 C 
HETATM    5  C4  UNL     1      23.739   1.244  52.591  1.00  0.00    -0.013 C 
HETATM    6  C5  UNL     1      23.765   2.501  52.038  1.00  0.00    -0.001 A 
HETATM    7  C6  UNL     1      22.699   3.272  51.717  1.00  0.00     0.063 A 
HETATM    8  C13 UNL     1      22.919   4.316  50.862  1.00  0.00     0.089 A 
HETATM    9  C14 UNL     1      21.779   5.109  50.572  1.00  0.00     0.103 C 
HETATM   10  N3  UNL     1      20.861   5.775  50.330  1.00  0.00    -0.191 NA
HETATM   11  C15 UNL     1      24.236   4.473  50.411  1.00  0.00     0.137 A 
HETATM   12  N4  UNL     1      25.210   3.614  50.827  1.00  0.00    -0.282 NA
HETATM   13  C16 UNL     1      25.025   2.561  51.687  1.00  0.00     0.111 A 
HETATM   14  C17 UNL     1      26.312   2.562  51.622  1.00  0.00     0.059 A 
HETATM   15  C18 UNL     1      26.080   2.308  53.017  1.00  0.00     0.321 A 
HETATM   16  N5  UNL     1      26.940   2.012  53.949  1.00  0.00    -0.378 NA
HETATM   17  C19 UNL     1      28.343   1.871  53.699  1.00  0.00     0.210 C 
HETATM   18  O1  UNL     1      28.991   2.760  53.109  1.00  0.00    -0.275 OA
HETATM   19  C20 UNL     1      28.489   0.536  54.320  1.00  0.00     0.132 C 
HETATM   20  C21 UNL     1      27.609  -0.470  53.632  1.00  0.00     0.281 C 
ENDROOT
BRANCH   7  21
HETATM   21  N2  UNL     1      21.480   2.903  52.346  1.00  0.00    -0.354 N 
HETATM   22  H9  UNL     1      21.452   3.398  53.245  1.00  0.00     0.166 HD
BRANCH  21  23
HETATM   23  C7  UNL     1      20.499   2.023  51.851  1.00  0.00     0.034 A 
HETATM   24  C8  UNL     1      20.009   2.125  50.594  1.00  0.00     0.032 A 
HETATM   25  C9  UNL     1      19.059   1.214  50.177  1.00  0.00     0.046 A 
HETATM   26  C10 UNL     1      18.606   0.209  51.024  1.00  0.00     0.138 A 
HETATM   27  F1  UNL     1      17.687  -0.654  50.585  1.00  0.00    -0.204 F 
HETATM   28  C11 UNL     1      19.138   0.141  52.316  1.00  0.00     0.074 A 
HETATM   29 CL1  UNL     1      18.521  -1.158  53.321  1.00  0.00    -0.081 Cl
HETATM   30  C12 UNL     1      20.087   1.051  52.731  1.00  0.00     0.056 A 
ENDBRANCH  21  23
ENDBRANCH   7  21
TORSDOF 2
ENDMDL
MODEL 3
REMARK VINA RESULT:      -9.5      4.001      6.346
REMARK  2 active torsions:
REMARK  status: ('A' for Active; 'I' for Inactive)
REMARK    1  A    between atoms: C6_7  and  N2_8 
REMARK    2  A    between atoms: N2_8  and  C7_9 
ROOT
HETATM    1  C1  UNL     1      26.792   2.483  51.544  1.00  0.00     0.309 C 
HETATM    2  N1  UNL     1      26.414   1.931  52.848  1.00  0.00     0.085 N 
HETATM    3  C2  UNL     1      25.537   2.765  53.550  1.00  0.00     0.275 C 
HETATM    4  C3  UNL     1      24.169   2.868  52.962  1.00  0.00     0.058 C 
HETATM    5  C4  UNL     1      23.251   1.734  53.082  1.00  0.00    -0.013 C 
HETATM    6  C5  UNL     1      22.545   0.567  53.244  1.00  0.00    -0.001 A 
HETATM    7  C6  UNL     1      21.216   0.386  53.061  1.00  0.00     0.063 A 
HETATM    8  C13 UNL     1      20.656  -0.734  53.610  1.00  0.00     0.089 A 
HETATM    9  C14 UNL     1      19.266  -0.893  53.374  1.00  0.00     0.103 C 
HETATM   10  N3  UNL     1      18.133  -1.045  53.184  1.00  0.00    -0.191 NA
HETATM   11  C15 UNL     1      21.531  -1.578  54.306  1.00  0.00     0.137 A 
HETATM   12  N4  UNL     1      22.855  -1.264  54.404  1.00  0.00    -0.282 NA
HETATM   13  C16 UNL     1      23.449  -0.153  53.861  1.00  0.00     0.111 A 
HETATM   14  C17 UNL     1      24.500  -0.797  54.236  1.00  0.00     0.059 A 
HETATM   15  C18 UNL     1      24.904  -0.278  52.959  1.00  0.00     0.321 A 
HETATM   16  N5  UNL     1      26.074  -0.322  52.390  1.00  0.00    -0.378 NA
HETATM   17  C19 UNL     1      27.217  -0.926  53.005  1.00  0.00     0.210 C 
HETATM   18  O1  UNL     1      27.174  -2.089  53.458  1.00  0.00    -0.275 OA
HETATM   19  C20 UNL     1      28.124   0.233  52.845  1.00  0.00     0.132 C 
HETATM   20  C21 UNL     1      27.574   1.439  53.553  1.00  0.00     0.281 C 
ENDROOT
BRANCH   7  21
HETATM   21  N2  UNL     1      20.575   1.388  52.285  1.00  0.00    -0.354 N 
HETATM   22  H9  UNL     1      19.872   1.826  52.892  1.00  0.00     0.166 HD
BRANCH  21  23
HETATM   23  C7  UNL     1      20.832   1.720  50.941  1.00  0.00     0.034 A 
HETATM   24  C8  UNL     1      21.168   0.786  50.021  1.00  0.00     0.032 A 
HETATM   25  C9  UNL     1      21.390   1.188  48.719  1.00  0.00     0.046 A 
HETATM   26  C10 UNL     1      21.275   2.523  48.349  1.00  0.00     0.138 A 
HETATM   27  F1  UNL     1      21.497   2.874  47.081  1.00  0.00    -0.204 F 
HETATM   28  C11 UNL     1      20.928   3.456  49.332  1.00  0.00     0.074 A 
HETATM   29 CL1  UNL     1      20.797   5.118  48.786  1.00  0.00    -0.081 Cl
HETATM   30  C12 UNL     1      20.706   3.053  50.632  1.00  0.00     0.056 A 
ENDBRANCH  21  23
ENDBRANCH   7  21
TORSDOF 2
ENDMDL
MODEL 4
REMARK VINA RESULT:      -9.2      4.088      5.884
REMARK  2 active torsions:
REMARK  status: ('A' for Active; 'I' for Inactive)
REMARK    1  A    between atoms: C6_7  and  N2_8 
REMARK    2  A    between atoms: N2_8  and  C7_9 
ROOT
HETATM    1  C1  UNL     1      23.034   5.812  49.440  1.00  0.00     0.309 C 
HETATM    2  N1  UNL     1      23.952   5.405  50.507  1.00  0.00     0.085 N 
HETATM    3  C2  UNL     1      23.421   5.619  51.784  1.00  0.00     0.275 C 
HETATM    4  C3  UNL     1      22.278   4.727  52.141  1.00  0.00     0.058 C 
HETATM    5  C4  UNL     1      22.536   3.318  52.440  1.00  0.00    -0.013 C 
HETATM    6  C5  UNL     1      22.951   2.024  52.641  1.00  0.00    -0.001 A 
HETATM    7  C6  UNL     1      22.243   1.019  53.208  1.00  0.00     0.063 A 
HETATM    8  C13 UNL     1      22.943  -0.074  53.638  1.00  0.00     0.089 A 
HETATM    9  C14 UNL     1      22.157  -1.110  54.205  1.00  0.00     0.103 C 
HETATM   10  N3  UNL     1      21.531  -1.972  54.664  1.00  0.00    -0.191 NA
HETATM   11  C15 UNL     1      24.329  -0.031  53.438  1.00  0.00     0.137 A 
HETATM   12  N4  UNL     1      24.903   1.054  52.845  1.00  0.00    -0.282 NA
HETATM   13  C16 UNL     1      24.231   2.164  52.399  1.00  0.00     0.111 A 
HETATM   14  C17 UNL     1      25.396   2.407  51.907  1.00  0.00     0.059 A 
HETATM   15  C18 UNL     1      24.527   2.810  50.836  1.00  0.00     0.321 A 
HETATM   16  N5  UNL     1      24.828   3.402  49.716  1.00  0.00    -0.378 NA
HETATM   17  C19 UNL     1      26.164   3.779  49.368  1.00  0.00     0.210 C 
HETATM   18  O1  UNL     1      27.104   2.959  49.416  1.00  0.00    -0.275 OA
HETATM   19  C20 UNL     1      25.861   5.193  49.052  1.00  0.00     0.132 C 
HETATM   20  C21 UNL     1      25.286   5.894  50.250  1.00  0.00     0.281 C 
ENDROOT
BRANCH   7  21
HETATM   21  N2  UNL     1      20.838   1.228  53.257  1.00  0.00    -0.354 N 
HETATM   22  H9  UNL     1      20.646   1.730  54.132  1.00  0.00     0.166 HD
BRANCH  21  23
HETATM   23  C7  UNL     1      19.883   0.820  52.307  1.00  0.00     0.034 A 
HETATM   24  C8  UNL     1      19.920   1.244  51.022  1.00  0.00     0.032 A 
HETATM   25  C9  UNL     1      18.956   0.787  50.146  1.00  0.00     0.046 A 
HETATM   26  C10 UNL     1      17.962  -0.091  50.564  1.00  0.00     0.138 A 
HETATM   27  F1  UNL     1      17.047  -0.511  49.687  1.00  0.00    -0.204 F 
HETATM   28  C11 UNL     1      17.960  -0.503  51.900  1.00  0.00     0.074 A 
HETATM   29 CL1  UNL     1      16.679  -1.614  52.348  1.00  0.00    -0.081 Cl
HETATM   30  C12 UNL     1      18.924  -0.046  52.775  1.00  0.00     0.056 A 
ENDBRANCH  21  23
ENDBRANCH   7  21
TORSDOF 2
ENDMDL
MODEL 5
REMARK VINA RESULT:      -9.0      3.353      5.804
REMARK  2 active torsions:
REMARK  status: ('A' for Active; 'I' for Inactive)
REMARK    1  A    between atoms: C6_7  and  N2_8 
REMARK    2  A    between atoms: N2_8  and  C7_9 
ROOT
HETATM    1  C1  UNL     1      18.400   2.327  51.264  1.00  0.00     0.309 C 
HETATM    2  N1  UNL     1      19.285   1.185  51.021  1.00  0.00     0.085 N 
HETATM    3  C2  UNL     1      20.236   1.444  50.027  1.00  0.00     0.275 C 
HETATM    4  C3  UNL     1      21.280   2.440  50.407  1.00  0.00     0.058 C 
HETATM    5  C4  UNL     1      22.322   2.056  51.360  1.00  0.00    -0.013 C 
HETATM    6  C5  UNL     1      23.188   1.545  52.297  1.00  0.00    -0.001 A 
HETATM    7  C6  UNL     1      24.377   2.067  52.678  1.00  0.00     0.063 A 
HETATM    8  C13 UNL     1      25.238   1.239  53.344  1.00  0.00     0.089 A 
HETATM    9  C14 UNL     1      26.462   1.835  53.743  1.00  0.00     0.103 C 
HETATM   10  N3  UNL     1      27.464   2.307  54.086  1.00  0.00    -0.191 NA
HETATM   11  C15 UNL     1      24.786  -0.069  53.560  1.00  0.00     0.137 A 
HETATM   12  N4  UNL     1      23.554  -0.452  53.118  1.00  0.00    -0.282 NA
HETATM   13  C16 UNL     1      22.665   0.354  52.452  1.00  0.00     0.111 A 
HETATM   14  C17 UNL     1      21.910  -0.668  52.667  1.00  0.00     0.059 A 
HETATM   15  C18 UNL     1      21.015   0.427  52.920  1.00  0.00     0.321 A 
HETATM   16  N5  UNL     1      19.735   0.400  53.162  1.00  0.00    -0.378 NA
HETATM   17  C19 UNL     1      18.976  -0.813  53.200  1.00  0.00     0.210 C 
HETATM   18  O1  UNL     1      19.330  -1.781  53.904  1.00  0.00    -0.275 OA
HETATM   19  C20 UNL     1      17.926  -0.381  52.250  1.00  0.00     0.132 C 
HETATM   20  C21 UNL     1      18.526  -0.039  50.915  1.00  0.00     0.281 C 
ENDROOT
BRANCH   7  21
HETATM   21  N2  UNL     1      24.563   3.438  52.355  1.00  0.00    -0.354 N 
HETATM   22  H9  UNL     1      24.108   3.979  53.099  1.00  0.00     0.166 HD
BRANCH  21  23
HETATM   23  C7  UNL     1      25.226   3.966  51.231  1.00  0.00     0.034 A 
HETATM   24  C8  UNL     1      26.226   3.300  50.608  1.00  0.00     0.032 A 
HETATM   25  C9  UNL     1      26.818   3.878  49.502  1.00  0.00     0.046 A 
HETATM   26  C10 UNL     1      26.403   5.117  49.030  1.00  0.00     0.138 A 
HETATM   27  F1  UNL     1      26.998   5.644  47.957  1.00  0.00    -0.204 F 
HETATM   28  C11 UNL     1      25.366   5.771  49.704  1.00  0.00     0.074 A 
HETATM   29 CL1  UNL     1      24.896   7.327  49.044  1.00  0.00    -0.081 Cl
HETATM   30  C12 UNL     1      24.776   5.193  50.809  1.00  0.00     0.056 A 
ENDBRANCH  21  23
ENDBRANCH   7  21
TORSDOF 2
ENDMDL
MODEL 6
REMARK VINA RESULT:      -9.0      2.353      3.129
REMARK  2 active torsions:
REMARK  status: ('A' for Active; 'I' for Inactive)
REMARK    1  A    between atoms: C6_7  and  N2_8 
REMARK    2  A    between atoms: N2_8  and  C7_9 
ROOT
HETATM    1  C1  UNL     1      21.245   4.017  48.470  1.00  0.00     0.309 C 
HETATM    2  N1  UNL     1      20.281   3.003  48.905  1.00  0.00     0.085 N 
HETATM    3  C2  UNL     1      20.665   1.706  48.548  1.00  0.00     0.275 C 
HETATM    4  C3  UNL     1      21.858   1.186  49.279  1.00  0.00     0.058 C 
HETATM    5  C4  UNL     1      21.725   0.803  50.685  1.00  0.00    -0.013 C 
HETATM    6  C5  UNL     1      21.432   0.539  52.002  1.00  0.00    -0.001 A 
HETATM    7  C6  UNL     1      22.188  -0.161  52.880  1.00  0.00     0.063 A 
HETATM    8  C13 UNL     1      21.571  -0.612  54.014  1.00  0.00     0.089 A 
HETATM    9  C14 UNL     1      22.406  -1.322  54.915  1.00  0.00     0.103 C 
HETATM   10  N3  UNL     1      23.075  -1.896  55.668  1.00  0.00    -0.191 NA
HETATM   11  C15 UNL     1      20.213  -0.293  54.141  1.00  0.00     0.137 A 
HETATM   12  N4  UNL     1      19.584   0.428  53.169  1.00  0.00    -0.282 NA
HETATM   13  C16 UNL     1      20.173   0.900  52.023  1.00  0.00     0.111 A 
HETATM   14  C17 UNL     1      19.039   1.505  51.946  1.00  0.00     0.059 A 
HETATM   15  C18 UNL     1      19.956   2.526  51.520  1.00  0.00     0.321 A 
HETATM   16  N5  UNL     1      19.699   3.710  51.042  1.00  0.00    -0.378 NA
HETATM   17  C19 UNL     1      18.368   4.197  50.842  1.00  0.00     0.210 C 
HETATM   18  O1  UNL     1      17.520   4.167  51.758  1.00  0.00    -0.275 OA
HETATM   19  C20 UNL     1      18.548   4.595  49.427  1.00  0.00     0.132 C 
HETATM   20  C21 UNL     1      18.931   3.409  48.587  1.00  0.00     0.281 C 
ENDROOT
BRANCH   7  21
HETATM   21  N2  UNL     1      23.551  -0.312  52.512  1.00  0.00    -0.354 N 
HETATM   22  H9  UNL     1      23.606  -1.154  51.926  1.00  0.00     0.166 HD
BRANCH  21  23
HETATM   23  C7  UNL     1      24.630   0.513  52.881  1.00  0.00     0.034 A 
HETATM   24  C8  UNL     1      24.464   1.823  53.179  1.00  0.00     0.032 A 
HETATM   25  C9  UNL     1      25.570   2.564  53.548  1.00  0.00     0.046 A 
HETATM   26  C10 UNL     1      26.832   1.987  53.614  1.00  0.00     0.138 A 
HETATM   27  F1  UNL     1      27.878   2.734  53.974  1.00  0.00    -0.204 F 
HETATM   28  C11 UNL     1      26.960   0.630  53.296  1.00  0.00     0.074 A 
HETATM   29 CL1  UNL     1      28.583  -0.025  53.408  1.00  0.00    -0.081 Cl
HETATM   30  C12 UNL     1      25.855  -0.109  52.928  1.00  0.00     0.056 A 
ENDBRANCH  21  23
ENDBRANCH   7  21
TORSDOF 2
ENDMDL
MODEL 7
REMARK VINA RESULT:      -8.7      3.410      6.887
REMARK  2 active torsions:
REMARK  status: ('A' for Active; 'I' for Inactive)
REMARK    1  A    between atoms: C6_7  and  N2_8 
REMARK    2  A    between atoms: N2_8  and  C7_9 
ROOT
HETATM    1  C1  UNL     1      27.461  -0.437  52.737  1.00  0.00     0.309 C 
HETATM    2  N1  UNL     1      26.670   0.610  53.390  1.00  0.00     0.085 N 
HETATM    3  C2  UNL     1      27.283   1.867  53.324  1.00  0.00     0.275 C 
HETATM    4  C3  UNL     1      27.332   2.464  51.957  1.00  0.00     0.058 C 
HETATM    5  C4  UNL     1      26.103   2.987  51.360  1.00  0.00    -0.013 C 
HETATM    6  C5  UNL     1      24.856   3.381  50.937  1.00  0.00    -0.001 A 
HETATM    7  C6  UNL     1      24.567   4.171  49.877  1.00  0.00     0.063 A 
HETATM    8  C13 UNL     1      23.320   4.731  49.836  1.00  0.00     0.089 A 
HETATM    9  C14 UNL     1      23.055   5.533  48.697  1.00  0.00     0.103 C 
HETATM   10  N3  UNL     1      22.815   6.185  47.768  1.00  0.00    -0.191 NA
HETATM   11  C15 UNL     1      22.473   4.419  50.908  1.00  0.00     0.137 A 
HETATM   12  N4  UNL     1      22.907   3.599  51.908  1.00  0.00    -0.282 NA
HETATM   13  C16 UNL     1      24.147   3.018  51.977  1.00  0.00     0.111 A 
HETATM   14  C17 UNL     1      23.567   2.401  52.947  1.00  0.00     0.059 A 
HETATM   15  C18 UNL     1      24.324   1.347  52.329  1.00  0.00     0.321 A 
HETATM   16  N5  UNL     1      24.496   0.120  52.729  1.00  0.00    -0.378 NA
HETATM   17  C19 UNL     1      23.927  -0.393  53.938  1.00  0.00     0.210 C 
HETATM   18  O1  UNL     1      22.708  -0.275  54.184  1.00  0.00    -0.275 OA
HETATM   19  C20 UNL     1      25.186  -0.930  54.500  1.00  0.00     0.132 C 
HETATM   20  C21 UNL     1      26.197   0.166  54.681  1.00  0.00     0.281 C 
ENDROOT
BRANCH   7  21
HETATM   21  N2  UNL     1      25.607   4.292  48.916  1.00  0.00    -0.354 N 
HETATM   22  H9  UNL     1      25.539   3.470  48.305  1.00  0.00     0.166 HD
BRANCH  21  23
HETATM   23  C7  UNL     1      26.559   5.324  48.817  1.00  0.00     0.034 A 
HETATM   24  C8  UNL     1      26.242   6.620  49.045  1.00  0.00     0.032 A 
HETATM   25  C9  UNL     1      27.236   7.573  48.943  1.00  0.00     0.046 A 
HETATM   26  C10 UNL     1      28.539   7.221  48.613  1.00  0.00     0.138 A 
HETATM   27  F1  UNL     1      29.473   8.170  48.524  1.00  0.00    -0.204 F 
HETATM   28  C11 UNL     1      28.823   5.870  48.384  1.00  0.00     0.074 A 
HETATM   29 CL1  UNL     1      30.490   5.505  47.979  1.00  0.00    -0.081 Cl
HETATM   30  C12 UNL     1      27.830   4.919  48.487  1.00  0.00     0.056 A 
ENDBRANCH  21  23
ENDBRANCH   7  21
TORSDOF 2
ENDMDL
MODEL 8
REMARK VINA RESULT:      -8.6      3.735      5.635
REMARK  2 active torsions:
REMARK  status: ('A' for Active; 'I' for Inactive)
REMARK    1  A    between atoms: C6_7  and  N2_8 
REMARK    2  A    between atoms: N2_8  and  C7_9 
ROOT
HETATM    1  C1  UNL     1      30.392   7.745  49.193  1.00  0.00     0.309 C 
HETATM    2  N1  UNL     1      29.230   7.720  48.301  1.00  0.00     0.085 N 
HETATM    3  C2  UNL     1      29.200   6.580  47.490  1.00  0.00     0.275 C 
HETATM    4  C3  UNL     1      28.932   5.304  48.216  1.00  0.00     0.058 C 
HETATM    5  C4  UNL     1      27.583   5.035  48.716  1.00  0.00    -0.013 C 
HETATM    6  C5  UNL     1      26.282   4.968  49.154  1.00  0.00    -0.001 A 
HETATM    7  C6  UNL     1      25.634   3.876  49.621  1.00  0.00     0.063 A 
HETATM    8  C13 UNL     1      24.269   3.931  49.666  1.00  0.00     0.089 A 
HETATM    9  C14 UNL     1      23.634   2.772  50.182  1.00  0.00     0.103 C 
HETATM   10  N3  UNL     1      23.097   1.838  50.610  1.00  0.00    -0.191 NA
HETATM   11  C15 UNL     1      23.689   5.126  49.220  1.00  0.00     0.137 A 
HETATM   12  N4  UNL     1      24.476   6.148  48.778  1.00  0.00    -0.282 NA
HETATM   13  C16 UNL     1      25.847   6.127  48.725  1.00  0.00     0.111 A 
HETATM   14  C17 UNL     1      25.640   7.371  48.460  1.00  0.00     0.059 A 
HETATM   15  C18 UNL     1      26.777   7.434  49.337  1.00  0.00     0.321 A 
HETATM   16  N5  UNL     1      27.501   8.466  49.665  1.00  0.00    -0.378 NA
HETATM   17  C19 UNL     1      27.263   9.780  49.150  1.00  0.00     0.210 C 
HETATM   18  O1  UNL     1      26.133  10.307  49.210  1.00  0.00    -0.275 OA
HETATM   19  C20 UNL     1      28.645  10.027  48.679  1.00  0.00     0.132 C 
HETATM   20  C21 UNL     1      29.049   9.000  47.659  1.00  0.00     0.281 C 
ENDROOT
BRANCH   7  21
HETATM   21  N2  UNL     1      26.476   2.810  50.036  1.00  0.00    -0.354 N 
HETATM   22  H9  UNL     1      27.081   2.585  49.237  1.00  0.00     0.166 HD
BRANCH  21  23
HETATM   23  C7  UNL     1      26.483   2.167  51.288  1.00  0.00     0.034 A 
HETATM   24  C8  UNL     1      26.317   2.847  52.446  1.00  0.00     0.032 A 
HETATM   25  C9  UNL     1      26.321   2.144  53.634  1.00  0.00     0.046 A 
HETATM   26  C10 UNL     1      26.491   0.765  53.653  1.00  0.00     0.138 A 
HETATM   27  F1  UNL     1      26.489   0.118  54.821  1.00  0.00    -0.204 F 
HETATM   28  C11 UNL     1      26.661   0.101  52.433  1.00  0.00     0.074 A 
HETATM   29 CL1  UNL     1      26.864  -1.638  52.539  1.00  0.00    -0.081 Cl
HETATM   30  C12 UNL     1      26.657   0.805  51.247  1.00  0.00     0.056 A 
ENDBRANCH  21  23
ENDBRANCH   7  21
TORSDOF 2
ENDMDL
MODEL 9
REMARK VINA RESULT:      -8.5      4.252      7.004
REMARK  2 active torsions:
REMARK  status: ('A' for Active; 'I' for Inactive)
REMARK    1  A    between atoms: C6_7  and  N2_8 
REMARK    2  A    between atoms: N2_8  and  C7_9 
ROOT
HETATM    1  C1  UNL     1      26.677   1.086  51.588  1.00  0.00     0.309 C 
HETATM    2  N1  UNL     1      25.686   1.489  52.588  1.00  0.00     0.085 N 
HETATM    3  C2  UNL     1      24.959   2.621  52.201  1.00  0.00     0.275 C 
HETATM    4  C3  UNL     1      24.024   2.400  51.059  1.00  0.00     0.058 C 
HETATM    5  C4  UNL     1      22.795   1.636  51.278  1.00  0.00    -0.013 C 
HETATM    6  C5  UNL     1      21.722   0.862  51.649  1.00  0.00    -0.001 A 
HETATM    7  C6  UNL     1      20.576   0.671  50.955  1.00  0.00     0.063 A 
HETATM    8  C13 UNL     1      19.506   0.168  51.641  1.00  0.00     0.089 A 
HETATM    9  C14 UNL     1      18.334  -0.036  50.869  1.00  0.00     0.103 C 
HETATM   10  N3  UNL     1      17.369  -0.218  50.252  1.00  0.00    -0.191 NA
HETATM   11  C15 UNL     1      19.720  -0.097  53.001  1.00  0.00     0.137 A 
HETATM   12  N4  UNL     1      20.938   0.145  53.563  1.00  0.00    -0.282 NA
HETATM   13  C16 UNL     1      22.033   0.643  52.903  1.00  0.00     0.111 A 
HETATM   14  C17 UNL     1      22.584   0.324  54.022  1.00  0.00     0.059 A 
HETATM   15  C18 UNL     1      23.576  -0.089  53.069  1.00  0.00     0.321 A 
HETATM   16  N5  UNL     1      24.781  -0.536  53.283  1.00  0.00    -0.378 NA
HETATM   17  C19 UNL     1      25.338  -0.677  54.593  1.00  0.00     0.210 C 
HETATM   18  O1  UNL     1      24.736  -1.299  55.493  1.00  0.00    -0.275 OA
HETATM   19  C20 UNL     1      26.581   0.081  54.328  1.00  0.00     0.132 C 
HETATM   20  C21 UNL     1      26.264   1.490  53.912  1.00  0.00     0.281 C 
ENDROOT
BRANCH   7  21
HETATM   21  N2  UNL     1      20.648   0.997  49.574  1.00  0.00    -0.354 N 
HETATM   22  H9  UNL     1      20.809   0.117  49.072  1.00  0.00     0.166 HD
BRANCH  21  23
HETATM   23  C7  UNL     1      20.537   2.275  48.994  1.00  0.00     0.034 A 
HETATM   24  C8  UNL     1      19.827   3.270  49.576  1.00  0.00     0.032 A 
HETATM   25  C9  UNL     1      19.778   4.501  48.952  1.00  0.00     0.046 A 
HETATM   26  C10 UNL     1      20.439   4.725  47.750  1.00  0.00     0.138 A 
HETATM   27  F1  UNL     1      20.368   5.929  47.177  1.00  0.00    -0.204 F 
HETATM   28  C11 UNL     1      21.160   3.669  47.183  1.00  0.00     0.074 A 
HETATM   29 CL1  UNL     1      21.970   4.032  45.670  1.00  0.00    -0.081 Cl
HETATM   30  C12 UNL     1      21.209   2.440  47.807  1.00  0.00     0.056 A 
ENDBRANCH  21  23
ENDBRANCH   7  21
TORSDOF 2
ENDMDL
