MODEL 1
REMARK VINA RESULT:      -8.2      0.000      0.000
REMARK  3 active torsions:
REMARK  status: ('A' for Active; 'I' for Inactive)
REMARK    1  A    between atoms: O1_1  and  C1_2 
REMARK    2  A    between atoms: C3_5  and  N1_6 
REMARK    3  A    between atoms: C10_13  and  C11_14 
ROOT
HETATM    1  N1  UNL     1      25.715   1.095  51.910  1.00  0.00    -0.242 N 
HETATM    2  C4  UNL     1      26.577   0.056  52.237  1.00  0.00     0.181 C 
HETATM    3  C5  UNL     1      27.970   0.425  52.519  1.00  0.00    -0.005 C 
HETATM    4  C6  UNL     1      28.314   0.367  53.796  1.00  0.00    -0.003 C 
HETATM    5  C7  UNL     1      27.501   0.038  54.960  1.00  0.00    -0.004 C 
HETATM    6  C8  UNL     1      26.217  -0.214  55.225  1.00  0.00    -0.021 C 
HETATM    7  C9  UNL     1      24.813  -0.376  54.940  1.00  0.00     0.089 C 
HETATM    8  C10 UNL     1      24.318   0.050  53.596  1.00  0.00     0.068 C 
HETATM    9  N2  UNL     1      24.598   0.578  52.486  1.00  0.00    -0.174 NA
ENDROOT
BRANCH   1  10
HETATM   10  C3  UNL     1      25.874   2.253  51.179  1.00  0.00     0.192 A 
HETATM   11  S1  UNL     1      24.314   3.293  51.009  1.00  0.00    -0.058 SA
HETATM   12  C2  UNL     1      25.122   4.621  49.991  1.00  0.00     0.111 A 
HETATM   13  C1  UNL     1      26.460   4.028  49.958  1.00  0.00     0.171 A 
HETATM   14  N3  UNL     1      26.862   2.900  50.511  1.00  0.00    -0.198 NA
BRANCH  13  15
HETATM   15  O1  UNL     1      27.573   4.599  49.301  1.00  0.00    -0.344 OA
HETATM   16  H1  UNL     1      27.669   4.471  48.298  1.00  0.00     0.219 HD
ENDBRANCH  13  15
ENDBRANCH   1  10
BRANCH   8  17
HETATM   17  C11 UNL     1      22.861  -0.247  53.514  1.00  0.00    -0.009 A 
HETATM   18  C12 UNL     1      21.946   0.390  52.664  1.00  0.00     0.015 A 
HETATM   19  C13 UNL     1      20.598   0.182  52.537  1.00  0.00     0.024 A 
HETATM   20  C14 UNL     1      20.063  -0.784  53.354  1.00  0.00     0.034 A 
HETATM   21 CL1  UNL     1      18.359  -1.119  53.262  1.00  0.00    -0.084 Cl
HETATM   22  C15 UNL     1      20.832  -1.491  54.236  1.00  0.00     0.024 A 
HETATM   23  C16 UNL     1      22.158  -1.194  54.271  1.00  0.00     0.015 A 
ENDBRANCH   8  17
TORSDOF 3
ENDMDL
MODEL 2
REMARK VINA RESULT:      -8.1      2.616      4.287
REMARK  3 active torsions:
REMARK  status: ('A' for Active; 'I' for Inactive)
REMARK    1  A    between atoms: O1_1  and  C1_2 
REMARK    2  A    between atoms: C3_5  and  N1_6 
REMARK    3  A    between atoms: C10_13  and  C11_14 
ROOT
HETATM    1  N1  UNL     1      25.549   0.851  52.531  1.00  0.00    -0.242 N 
HETATM    2  C4  UNL     1      25.577   2.232  52.386  1.00  0.00     0.181 C 
HETATM    3  C5  UNL     1      26.736   2.794  51.679  1.00  0.00    -0.005 C 
HETATM    4  C6  UNL     1      26.482   3.231  50.455  1.00  0.00    -0.003 C 
HETATM    5  C7  UNL     1      25.238   3.193  49.697  1.00  0.00    -0.004 C 
HETATM    6  C8  UNL     1      24.012   2.684  49.842  1.00  0.00    -0.021 C 
HETATM    7  C9  UNL     1      22.949   1.951  50.484  1.00  0.00     0.089 C 
HETATM    8  C10 UNL     1      23.294   1.121  51.678  1.00  0.00     0.068 C 
HETATM    9  N2  UNL     1      24.202   0.697  52.444  1.00  0.00    -0.174 NA
ENDROOT
BRANCH   1  10
HETATM   10  C3  UNL     1      26.530  -0.089  52.765  1.00  0.00     0.192 A 
HETATM   11  S1  UNL     1      28.042   0.565  53.678  1.00  0.00    -0.058 SA
HETATM   12  C2  UNL     1      28.935  -1.064  53.688  1.00  0.00     0.111 A 
HETATM   13  C1  UNL     1      27.908  -1.833  52.982  1.00  0.00     0.171 A 
HETATM   14  N3  UNL     1      26.747  -1.408  52.524  1.00  0.00    -0.198 NA
BRANCH  13  15
HETATM   15  O1  UNL     1      28.009  -3.207  52.670  1.00  0.00    -0.344 OA
HETATM   16  H1  UNL     1      27.517  -3.879  53.251  1.00  0.00     0.219 HD
ENDBRANCH  13  15
ENDBRANCH   1  10
BRANCH   8  17
HETATM   17  C11 UNL     1      22.045   0.495  52.194  1.00  0.00    -0.009 A 
HETATM   18  C12 UNL     1      20.773   0.623  51.620  1.00  0.00     0.015 A 
HETATM   19  C13 UNL     1      19.582   0.090  52.037  1.00  0.00     0.024 A 
HETATM   20  C14 UNL     1      19.636  -0.679  53.174  1.00  0.00     0.034 A 
HETATM   21 CL1  UNL     1      18.173  -1.398  53.779  1.00  0.00    -0.084 Cl
HETATM   22  C15 UNL     1      20.808  -0.896  53.844  1.00  0.00     0.024 A 
HETATM   23  C16 UNL     1      21.925  -0.313  53.333  1.00  0.00     0.015 A 
ENDBRANCH   8  17
TORSDOF 3
ENDMDL
MODEL 3
REMARK VINA RESULT:      -8.1      3.527      5.736
REMARK  3 active torsions:
REMARK  status: ('A' for Active; 'I' for Inactive)
REMARK    1  A    between atoms: O1_1  and  C1_2 
REMARK    2  A    between atoms: C3_5  and  N1_6 
REMARK    3  A    between atoms: C10_13  and  C11_14 
ROOT
HETATM    1  N1  UNL     1      22.834   1.213  52.160  1.00  0.00    -0.242 N 
HETATM    2  C4  UNL     1      22.123   1.380  53.342  1.00  0.00     0.181 C 
HETATM    3  C5  UNL     1      20.663   1.251  53.253  1.00  0.00    -0.005 C 
HETATM    4  C6  UNL     1      20.170   0.136  53.770  1.00  0.00    -0.003 C 
HETATM    5  C7  UNL     1      20.867  -0.995  54.368  1.00  0.00    -0.004 C 
HETATM    6  C8  UNL     1      22.130  -1.392  54.543  1.00  0.00    -0.021 C 
HETATM    7  C9  UNL     1      23.566  -1.326  54.436  1.00  0.00     0.089 C 
HETATM    8  C10 UNL     1      24.154  -0.289  53.533  1.00  0.00     0.068 C 
HETATM    9  N2  UNL     1      23.937   0.635  52.704  1.00  0.00    -0.174 NA
ENDROOT
BRANCH   1  10
HETATM   10  C3  UNL     1      22.579   1.567  50.853  1.00  0.00     0.192 A 
HETATM   11  S1  UNL     1      23.716   2.903  50.168  1.00  0.00    -0.058 SA
HETATM   12  C2  UNL     1      22.922   2.937  48.488  1.00  0.00     0.111 A 
HETATM   13  C1  UNL     1      21.913   1.908  48.749  1.00  0.00     0.171 A 
HETATM   14  N3  UNL     1      21.715   1.229  49.862  1.00  0.00    -0.198 NA
BRANCH  13  15
HETATM   15  O1  UNL     1      20.959   1.465  47.806  1.00  0.00    -0.344 OA
HETATM   16  H1  UNL     1      21.241   1.356  46.836  1.00  0.00     0.219 HD
ENDBRANCH  13  15
ENDBRANCH   1  10
BRANCH   8  17
HETATM   17  C11 UNL     1      25.638  -0.380  53.614  1.00  0.00    -0.009 A 
HETATM   18  C12 UNL     1      26.452  -1.164  52.785  1.00  0.00     0.015 A 
HETATM   19  C13 UNL     1      27.814  -1.308  52.801  1.00  0.00     0.024 A 
HETATM   20  C14 UNL     1      28.480  -0.586  53.762  1.00  0.00     0.034 A 
HETATM   21 CL1  UNL     1      30.213  -0.705  53.859  1.00  0.00    -0.084 Cl
HETATM   22  C15 UNL     1      27.821   0.224  54.643  1.00  0.00     0.024 A 
HETATM   23  C16 UNL     1      26.467   0.285  54.528  1.00  0.00     0.015 A 
ENDBRANCH   8  17
TORSDOF 3
ENDMDL
MODEL 4
REMARK VINA RESULT:      -8.0      4.202      7.292
REMARK  3 active torsions:
REMARK  status: ('A' for Active; 'I' for Inactive)
REMARK    1  A    between atoms: O1_1  and  C1_2 
REMARK    2  A    between atoms: C3_5  and  N1_6 
REMARK    3  A    between atoms: C10_13  and  C11_14 
ROOT
HETATM    1  N1  UNL     1      26.484   2.106  51.873  1.00  0.00    -0.242 N 
HETATM    2  C4  UNL     1      25.330   1.454  51.456  1.00  0.00     0.181 C 
HETATM    3  C5  UNL     1      24.571   0.740  52.490  1.00  0.00    -0.005 C 
HETATM    4  C6  UNL     1      23.439   1.324  52.854  1.00  0.00    -0.003 C 
HETATM    5  C7  UNL     1      22.866   2.588  52.412  1.00  0.00    -0.004 C 
HETATM    6  C8  UNL     1      23.225   3.614  51.636  1.00  0.00    -0.021 C 
HETATM    7  C9  UNL     1      24.085   4.385  50.774  1.00  0.00     0.089 C 
HETATM    8  C10 UNL     1      25.511   3.955  50.642  1.00  0.00     0.068 C 
HETATM    9  N2  UNL     1      26.411   3.153  51.011  1.00  0.00    -0.174 NA
ENDROOT
BRANCH   1  10
HETATM   10  C3  UNL     1      27.456   1.793  52.799  1.00  0.00     0.192 A 
HETATM   11  S1  UNL     1      27.723  -0.052  53.064  1.00  0.00    -0.058 SA
HETATM   12  C2  UNL     1      29.061   0.164  54.334  1.00  0.00     0.111 A 
HETATM   13  C1  UNL     1      29.070   1.629  54.334  1.00  0.00     0.171 A 
HETATM   14  N3  UNL     1      28.321   2.445  53.618  1.00  0.00    -0.198 NA
BRANCH  13  15
HETATM   15  O1  UNL     1      29.918   2.425  55.136  1.00  0.00    -0.344 OA
HETATM   16  H1  UNL     1      30.207   2.073  56.044  1.00  0.00     0.219 HD
ENDBRANCH  13  15
ENDBRANCH   1  10
BRANCH   8  17
HETATM   17  C11 UNL     1      26.190   4.865  49.678  1.00  0.00    -0.009 A 
HETATM   18  C12 UNL     1      27.463   4.662  49.125  1.00  0.00     0.015 A 
HETATM   19  C13 UNL     1      28.156   5.450  48.246  1.00  0.00     0.024 A 
HETATM   20  C14 UNL     1      27.521   6.601  47.846  1.00  0.00     0.034 A 
HETATM   21 CL1  UNL     1      28.323   7.666  46.729  1.00  0.00    -0.084 Cl
HETATM   22  C15 UNL     1      26.275   6.934  48.299  1.00  0.00     0.024 A 
HETATM   23  C16 UNL     1      25.687   6.070  49.171  1.00  0.00     0.015 A 
ENDBRANCH   8  17
TORSDOF 3
ENDMDL
MODEL 5
REMARK VINA RESULT:      -8.0      4.070      7.378
REMARK  3 active torsions:
REMARK  status: ('A' for Active; 'I' for Inactive)
REMARK    1  A    between atoms: O1_1  and  C1_2 
REMARK    2  A    between atoms: C3_5  and  N1_6 
REMARK    3  A    between atoms: C10_13  and  C11_14 
ROOT
HETATM    1  N1  UNL     1      24.856   1.792  51.486  1.00  0.00    -0.242 N 
HETATM    2  C4  UNL     1      23.556   1.716  51.002  1.00  0.00     0.181 C 
HETATM    3  C5  UNL     1      22.546   1.171  51.918  1.00  0.00    -0.005 C 
HETATM    4  C6  UNL     1      21.710   2.066  52.422  1.00  0.00    -0.003 C 
HETATM    5  C7  UNL     1      21.678   3.510  52.237  1.00  0.00    -0.004 C 
HETATM    6  C8  UNL     1      22.427   4.444  51.645  1.00  0.00    -0.021 C 
HETATM    7  C9  UNL     1      23.546   4.971  50.904  1.00  0.00     0.089 C 
HETATM    8  C10 UNL     1      24.704   4.062  50.644  1.00  0.00     0.068 C 
HETATM    9  N2  UNL     1      25.217   2.925  50.830  1.00  0.00    -0.174 NA
ENDROOT
BRANCH   1  10
HETATM   10  C3  UNL     1      25.603   0.972  52.304  1.00  0.00     0.192 A 
HETATM   11  S1  UNL     1      26.254   1.803  53.864  1.00  0.00    -0.058 SA
HETATM   12  C2  UNL     1      27.118   0.286  54.499  1.00  0.00     0.111 A 
HETATM   13  C1  UNL     1      26.753  -0.602  53.393  1.00  0.00     0.171 A 
HETATM   14  N3  UNL     1      26.031  -0.316  52.327  1.00  0.00    -0.198 NA
BRANCH  13  15
HETATM   15  O1  UNL     1      27.133  -1.959  53.296  1.00  0.00    -0.344 OA
HETATM   16  H1  UNL     1      28.114  -2.202  53.399  1.00  0.00     0.219 HD
ENDBRANCH  13  15
ENDBRANCH   1  10
BRANCH   8  17
HETATM   17  C11 UNL     1      25.712   4.802  49.835  1.00  0.00    -0.009 A 
HETATM   18  C12 UNL     1      26.879   4.252  49.287  1.00  0.00     0.015 A 
HETATM   19  C13 UNL     1      27.854   4.863  48.544  1.00  0.00     0.024 A 
HETATM   20  C14 UNL     1      27.667   6.202  48.299  1.00  0.00     0.034 A 
HETATM   21 CL1  UNL     1      28.853   7.064  47.363  1.00  0.00    -0.084 Cl
HETATM   22  C15 UNL     1      26.574   6.877  48.768  1.00  0.00     0.024 A 
HETATM   23  C16 UNL     1      25.675   6.161  49.494  1.00  0.00     0.015 A 
ENDBRANCH   8  17
TORSDOF 3
ENDMDL
MODEL 6
REMARK VINA RESULT:      -8.0      3.372      5.417
REMARK  3 active torsions:
REMARK  status: ('A' for Active; 'I' for Inactive)
REMARK    1  A    between atoms: O1_1  and  C1_2 
REMARK    2  A    between atoms: C3_5  and  N1_6 
REMARK    3  A    between atoms: C10_13  and  C11_14 
ROOT
HETATM    1  N1  UNL     1      23.974   0.414  52.621  1.00  0.00    -0.242 N 
HETATM    2  C4  UNL     1      23.074  -0.588  52.960  1.00  0.00     0.181 C 
HETATM    3  C5  UNL     1      23.014  -0.962  54.379  1.00  0.00    -0.005 C 
HETATM    4  C6  UNL     1      21.932  -0.546  55.019  1.00  0.00    -0.003 C 
HETATM    5  C7  UNL     1      20.822   0.264  54.533  1.00  0.00    -0.004 C 
HETATM    6  C8  UNL     1      20.503   0.930  53.420  1.00  0.00    -0.021 C 
HETATM    7  C9  UNL     1      20.687   1.446  52.087  1.00  0.00     0.089 C 
HETATM    8  C10 UNL     1      22.043   1.327  51.471  1.00  0.00     0.068 C 
HETATM    9  N2  UNL     1      23.243   0.969  51.619  1.00  0.00    -0.174 NA
ENDROOT
BRANCH   1  10
HETATM   10  C3  UNL     1      25.237   0.734  53.071  1.00  0.00     0.192 A 
HETATM   11  S1  UNL     1      26.418  -0.727  53.199  1.00  0.00    -0.058 SA
HETATM   12  C2  UNL     1      27.850   0.282  53.817  1.00  0.00     0.111 A 
HETATM   13  C1  UNL     1      27.166   1.577  53.817  1.00  0.00     0.171 A 
HETATM   14  N3  UNL     1      25.921   1.838  53.469  1.00  0.00    -0.198 NA
BRANCH  13  15
HETATM   15  O1  UNL     1      27.762   2.797  54.207  1.00  0.00    -0.344 OA
HETATM   16  H1  UNL     1      27.239   3.660  54.084  1.00  0.00     0.219 HD
ENDBRANCH  13  15
ENDBRANCH   1  10
BRANCH   8  17
HETATM   17  C11 UNL     1      21.985   1.884  50.091  1.00  0.00    -0.009 A 
HETATM   18  C12 UNL     1      22.980   2.665  49.486  1.00  0.00     0.015 A 
HETATM   19  C13 UNL     1      22.997   3.219  48.233  1.00  0.00     0.024 A 
HETATM   20  C14 UNL     1      21.889   2.978  47.458  1.00  0.00     0.034 A 
HETATM   21 CL1  UNL     1      21.821   3.641  45.851  1.00  0.00    -0.084 Cl
HETATM   22  C15 UNL     1      20.837   2.232  47.912  1.00  0.00     0.024 A 
HETATM   23  C16 UNL     1      20.936   1.735  49.174  1.00  0.00     0.015 A 
ENDBRANCH   8  17
TORSDOF 3
ENDMDL
MODEL 7
REMARK VINA RESULT:      -7.9      1.699      1.839
REMARK  3 active torsions:
REMARK  status: ('A' for Active; 'I' for Inactive)
REMARK    1  A    between atoms: O1_1  and  C1_2 
REMARK    2  A    between atoms: C3_5  and  N1_6 
REMARK    3  A    between atoms: C10_13  and  C11_14 
ROOT
HETATM    1  N1  UNL     1      24.407   2.007  51.772  1.00  0.00    -0.242 N 
HETATM    2  C4  UNL     1      25.420   1.076  51.583  1.00  0.00     0.181 C 
HETATM    3  C5  UNL     1      26.796   1.565  51.738  1.00  0.00    -0.005 C 
HETATM    4  C6  UNL     1      27.405   1.171  52.846  1.00  0.00    -0.003 C 
HETATM    5  C7  UNL     1      26.894   0.367  53.948  1.00  0.00    -0.004 C 
HETATM    6  C8  UNL     1      25.727  -0.165  54.320  1.00  0.00    -0.021 C 
HETATM    7  C9  UNL     1      24.319  -0.461  54.234  1.00  0.00     0.089 C 
HETATM    8  C10 UNL     1      23.511   0.274  53.214  1.00  0.00     0.068 C 
HETATM    9  N2  UNL     1      23.495   1.159  52.316  1.00  0.00    -0.174 NA
ENDROOT
BRANCH   1  10
HETATM   10  C3  UNL     1      24.289   3.344  51.458  1.00  0.00     0.192 A 
HETATM   11  S1  UNL     1      24.037   3.700  49.626  1.00  0.00    -0.058 SA
HETATM   12  C2  UNL     1      23.955   5.544  49.835  1.00  0.00     0.111 A 
HETATM   13  C1  UNL     1      24.137   5.565  51.288  1.00  0.00     0.171 A 
HETATM   14  N3  UNL     1      24.300   4.539  52.101  1.00  0.00    -0.198 NA
BRANCH  13  15
HETATM   15  O1  UNL     1      24.168   6.739  52.074  1.00  0.00    -0.344 OA
HETATM   16  H1  UNL     1      24.753   7.514  51.776  1.00  0.00     0.219 HD
ENDBRANCH  13  15
ENDBRANCH   1  10
BRANCH   8  17
HETATM   17  C11 UNL     1      22.107  -0.221  53.279  1.00  0.00    -0.009 A 
HETATM   18  C12 UNL     1      21.036   0.267  52.517  1.00  0.00     0.015 A 
HETATM   19  C13 UNL     1      19.724  -0.126  52.525  1.00  0.00     0.024 A 
HETATM   20  C14 UNL     1      19.408  -1.138  53.399  1.00  0.00     0.034 A 
HETATM   21 CL1  UNL     1      17.766  -1.703  53.480  1.00  0.00    -0.084 Cl
HETATM   22  C15 UNL     1      20.348  -1.714  54.208  1.00  0.00     0.024 A 
HETATM   23  C16 UNL     1      21.618  -1.238  54.109  1.00  0.00     0.015 A 
ENDBRANCH   8  17
TORSDOF 3
ENDMDL
MODEL 8
REMARK VINA RESULT:      -7.7      4.065      6.693
REMARK  3 active torsions:
REMARK  status: ('A' for Active; 'I' for Inactive)
REMARK    1  A    between atoms: O1_1  and  C1_2 
REMARK    2  A    between atoms: C3_5  and  N1_6 
REMARK    3  A    between atoms: C10_13  and  C11_14 
ROOT
HETATM    1  N1  UNL     1      23.211   1.783  51.735  1.00  0.00    -0.242 N 
HETATM    2  C4  UNL     1      23.873   1.555  52.935  1.00  0.00     0.181 C 
HETATM    3  C5  UNL     1      23.643   0.253  53.574  1.00  0.00    -0.005 C 
HETATM    4  C6  UNL     1      24.660  -0.592  53.497  1.00  0.00    -0.003 C 
HETATM    5  C7  UNL     1      25.948  -0.433  52.835  1.00  0.00    -0.004 C 
HETATM    6  C8  UNL     1      26.544   0.462  52.043  1.00  0.00    -0.021 C 
HETATM    7  C9  UNL     1      26.663   1.666  51.260  1.00  0.00     0.089 C 
HETATM    8  C10 UNL     1      25.422   2.459  51.003  1.00  0.00     0.068 C 
HETATM    9  N2  UNL     1      24.173   2.543  51.150  1.00  0.00    -0.174 NA
ENDROOT
BRANCH   1  10
HETATM   10  C3  UNL     1      21.958   1.438  51.274  1.00  0.00     0.192 A 
HETATM   11  S1  UNL     1      21.489   2.215  49.624  1.00  0.00    -0.058 SA
HETATM   12  C2  UNL     1      19.812   1.420  49.547  1.00  0.00     0.111 A 
HETATM   13  C1  UNL     1      19.906   0.689  50.814  1.00  0.00     0.171 A 
HETATM   14  N3  UNL     1      20.911   0.670  51.667  1.00  0.00    -0.198 NA
BRANCH  13  15
HETATM   15  O1  UNL     1      18.889  -0.142  51.336  1.00  0.00    -0.344 OA
HETATM   16  H1  UNL     1      18.471   0.097  52.230  1.00  0.00     0.219 HD
ENDBRANCH  13  15
ENDBRANCH   1  10
BRANCH   8  17
HETATM   17  C11 UNL     1      25.790   3.669  50.217  1.00  0.00    -0.009 A 
HETATM   18  C12 UNL     1      26.936   3.807  49.422  1.00  0.00     0.015 A 
HETATM   19  C13 UNL     1      27.348   4.883  48.681  1.00  0.00     0.024 A 
HETATM   20  C14 UNL     1      26.526   5.983  48.719  1.00  0.00     0.034 A 
HETATM   21 CL1  UNL     1      26.966   7.399  47.809  1.00  0.00    -0.084 Cl
HETATM   22  C15 UNL     1      25.372   5.998  49.451  1.00  0.00     0.024 A 
HETATM   23  C16 UNL     1      25.070   4.869  50.146  1.00  0.00     0.015 A 
ENDBRANCH   8  17
TORSDOF 3
ENDMDL
MODEL 9
REMARK VINA RESULT:      -7.7      2.241      2.843
REMARK  3 active torsions:
REMARK  status: ('A' for Active; 'I' for Inactive)
REMARK    1  A    between atoms: O1_1  and  C1_2 
REMARK    2  A    between atoms: C3_5  and  N1_6 
REMARK    3  A    between atoms: C10_13  and  C11_14 
ROOT
HETATM    1  N1  UNL     1      23.268   2.018  51.768  1.00  0.00    -0.242 N 
HETATM    2  C4  UNL     1      24.195   0.993  51.623  1.00  0.00     0.181 C 
HETATM    3  C5  UNL     1      25.567   1.285  52.059  1.00  0.00    -0.005 C 
HETATM    4  C6  UNL     1      25.928   0.696  53.189  1.00  0.00    -0.003 C 
HETATM    5  C7  UNL     1      25.151  -0.155  54.080  1.00  0.00    -0.004 C 
HETATM    6  C8  UNL     1      23.887  -0.575  54.187  1.00  0.00    -0.021 C 
HETATM    7  C9  UNL     1      22.493  -0.679  53.838  1.00  0.00     0.089 C 
HETATM    8  C10 UNL     1      21.956   0.261  52.807  1.00  0.00     0.068 C 
HETATM    9  N2  UNL     1      22.191   1.236  52.043  1.00  0.00    -0.174 NA
ENDROOT
BRANCH   1  10
HETATM   10  C3  UNL     1      23.348   3.386  51.618  1.00  0.00     0.192 A 
HETATM   11  S1  UNL     1      22.496   4.056  50.078  1.00  0.00    -0.058 SA
HETATM   12  C2  UNL     1      22.927   5.831  50.421  1.00  0.00     0.111 A 
HETATM   13  C1  UNL     1      23.657   5.596  51.670  1.00  0.00     0.171 A 
HETATM   14  N3  UNL     1      23.881   4.447  52.276  1.00  0.00    -0.198 NA
BRANCH  13  15
HETATM   15  O1  UNL     1      24.257   6.611  52.448  1.00  0.00    -0.344 OA
HETATM   16  H1  UNL     1      25.162   6.975  52.166  1.00  0.00     0.219 HD
ENDBRANCH  13  15
ENDBRANCH   1  10
BRANCH   8  17
HETATM   17  C11 UNL     1      20.519  -0.057  52.581  1.00  0.00    -0.009 A 
HETATM   18  C12 UNL     1      19.757   0.358  51.480  1.00  0.00     0.015 A 
HETATM   19  C13 UNL     1      18.437   0.116  51.206  1.00  0.00     0.024 A 
HETATM   20  C14 UNL     1      17.761  -0.636  52.136  1.00  0.00     0.034 A 
HETATM   21 CL1  UNL     1      16.080  -0.995  51.873  1.00  0.00    -0.084 Cl
HETATM   22  C15 UNL     1      18.372  -1.113  53.262  1.00  0.00     0.024 A 
HETATM   23  C16 UNL     1      19.687  -0.807  53.424  1.00  0.00     0.015 A 
ENDBRANCH   8  17
TORSDOF 3
ENDMDL
