MODEL 1
REMARK VINA RESULT:      -7.4      0.000      0.000
REMARK  5 active torsions:
REMARK  status: ('A' for Active; 'I' for Inactive)
REMARK    1  A    between atoms: C2_2  and  O1_3 
REMARK    2  A    between atoms: O1_3  and  C3_4 
REMARK    3  A    between atoms: C4_5  and  C5_6 
REMARK    4  A    between atoms: C5_6  and  C6_7 
REMARK    5  A    between atoms: C12_14  and  N1_15 
ROOT
HETATM    1  C3  UNL     1      33.586   8.079  44.914  1.00  0.00     0.206 C 
HETATM    2  C4  UNL     1      33.260   6.601  45.111  1.00  0.00    -0.039 C 
HETATM    3  C7  UNL     1      33.479   5.582  45.917  1.00  0.00     0.008 C 
HETATM    4  C8  UNL     1      33.269   4.200  46.268  1.00  0.00     0.025 C 
HETATM    5  C9  UNL     1      34.052   4.233  47.365  1.00  0.00     0.013 C 
HETATM    6  C10 UNL     1      34.959   4.622  48.451  1.00  0.00     0.088 C 
HETATM    7  C11 UNL     1      35.277   6.086  48.527  1.00  0.00     0.029 C 
HETATM    8  C12 UNL     1      35.221   7.405  48.208  1.00  0.00     0.117 C 
HETATM    9  N2  UNL     1      34.603   8.258  47.370  1.00  0.00    -0.236 NA
HETATM   10  C13 UNL     1      34.061   8.528  46.310  1.00  0.00     0.066 C 
HETATM   11  C14 UNL     1      33.778   9.989  46.505  1.00  0.00     0.187 C 
HETATM   12  N3  UNL     1      32.400  10.245  46.918  1.00  0.00    -0.337 N 
HETATM   13  C15 UNL     1      31.569  11.003  46.128  1.00  0.00     0.112 A 
HETATM   14  C16 UNL     1      30.294  11.197  46.587  1.00  0.00     0.136 A 
HETATM   15  N4  UNL     1      30.361  10.510  47.735  1.00  0.00    -0.244 NA
HETATM   16  C17 UNL     1      31.563   9.954  47.949  1.00  0.00     0.130 A 
HETATM   17  C18 UNL     1      31.618   9.236  49.239  1.00  0.00     0.247 C 
HETATM   18  O3  UNL     1      30.682   8.158  49.232  1.00  0.00    -0.365 OA
HETATM   19  C19 UNL     1      31.055   6.911  48.762  1.00  0.00     0.116 A 
HETATM   20  C20 UNL     1      32.190   6.578  49.538  1.00  0.00     0.003 A 
HETATM   21  C21 UNL     1      31.908   5.591  48.631  1.00  0.00     0.112 A 
HETATM   22  C22 UNL     1      32.312   4.368  48.160  1.00  0.00     0.019 A 
HETATM   23  C23 UNL     1      31.161   4.750  47.428  1.00  0.00     0.029 A 
HETATM   24  C24 UNL     1      30.706   5.975  47.845  1.00  0.00     0.106 A 
HETATM   25 CL1  UNL     1      29.312   6.683  47.115  1.00  0.00    -0.110 Cl
HETATM   26  N5  UNL     1      33.192   3.182  47.992  1.00  0.00    -0.362 N 
HETATM   27  H24 UNL     1      32.734   2.338  48.386  1.00  0.00     0.165 HD
ENDROOT
BRANCH   1  28
HETATM   28  O1  UNL     1      32.492   8.777  44.463  1.00  0.00    -0.348 OA
BRANCH  28  29
HETATM   29  C2  UNL     1      32.631   9.418  43.203  1.00  0.00     0.126 C 
HETATM   30  C1  UNL     1      33.137   9.551  41.969  1.00  0.00     0.037 C 
ENDBRANCH  28  29
ENDBRANCH   1  28
BRANCH   2  31
HETATM   31  C5  UNL     1      32.495   6.231  43.864  1.00  0.00     0.106 C 
BRANCH  31  32
HETATM   32  C6  UNL     1      33.460   5.754  42.812  1.00  0.00     0.235 C 
HETATM   33  O2  UNL     1      33.127   4.607  42.479  1.00  0.00    -0.307 OA
ENDBRANCH  31  32
ENDBRANCH   2  31
BRANCH   8  34
HETATM   34  N1  UNL     1      35.933   8.510  48.795  1.00  0.00    -0.384 N 
HETATM   35  H13 UNL     1      35.841   8.950  49.739  1.00  0.00     0.157 HD
HETATM   36  H14 UNL     1      36.701   9.104  48.365  1.00  0.00     0.157 HD
ENDBRANCH   8  34
TORSDOF 5
ENDMDL
MODEL 2
REMARK VINA RESULT:      -6.7      2.880      4.947
REMARK  5 active torsions:
REMARK  status: ('A' for Active; 'I' for Inactive)
REMARK    1  A    between atoms: C2_2  and  O1_3 
REMARK    2  A    between atoms: O1_3  and  C3_4 
REMARK    3  A    between atoms: C4_5  and  C5_6 
REMARK    4  A    between atoms: C5_6  and  C6_7 
REMARK    5  A    between atoms: C12_14  and  N1_15 
ROOT
HETATM    1  C3  UNL     1      28.191   7.728  46.318  1.00  0.00     0.206 C 
HETATM    2  C4  UNL     1      28.963   6.957  47.385  1.00  0.00    -0.039 C 
HETATM    3  C7  UNL     1      30.125   6.383  47.622  1.00  0.00     0.008 C 
HETATM    4  C8  UNL     1      31.004   5.661  48.508  1.00  0.00     0.025 C 
HETATM    5  C9  UNL     1      32.022   5.578  47.628  1.00  0.00     0.013 C 
HETATM    6  C10 UNL     1      32.889   5.665  46.447  1.00  0.00     0.088 C 
HETATM    7  C11 UNL     1      32.371   6.525  45.333  1.00  0.00     0.029 C 
HETATM    8  C12 UNL     1      31.536   7.379  44.685  1.00  0.00     0.117 C 
HETATM    9  N2  UNL     1      30.397   8.073  44.864  1.00  0.00    -0.236 NA
HETATM   10  C13 UNL     1      29.298   8.233  45.371  1.00  0.00     0.066 C 
HETATM   11  C14 UNL     1      28.864   9.505  44.703  1.00  0.00     0.187 C 
HETATM   12  N3  UNL     1      29.078  10.682  45.542  1.00  0.00    -0.337 N 
HETATM   13  C15 UNL     1      28.013  11.458  45.932  1.00  0.00     0.112 A 
HETATM   14  C16 UNL     1      28.298  12.544  46.715  1.00  0.00     0.136 A 
HETATM   15  N4  UNL     1      29.629  12.415  46.802  1.00  0.00    -0.244 NA
HETATM   16  C17 UNL     1      30.102  11.352  46.134  1.00  0.00     0.130 A 
HETATM   17  C18 UNL     1      31.574  11.258  46.216  1.00  0.00     0.247 C 
HETATM   18  O3  UNL     1      31.971  11.077  47.575  1.00  0.00    -0.365 OA
HETATM   19  C19 UNL     1      32.071   9.805  48.111  1.00  0.00     0.116 A 
HETATM   20  C20 UNL     1      32.962   9.135  47.240  1.00  0.00     0.003 A 
HETATM   21  C21 UNL     1      32.528   8.301  48.237  1.00  0.00     0.112 A 
HETATM   22  C22 UNL     1      32.618   7.026  48.735  1.00  0.00     0.019 A 
HETATM   23  C23 UNL     1      31.747   7.756  49.579  1.00  0.00     0.029 A 
HETATM   24  C24 UNL     1      31.605   9.044  49.133  1.00  0.00     0.106 A 
HETATM   25 CL1  UNL     1      30.591  10.155  49.980  1.00  0.00    -0.110 Cl
HETATM   26  N5  UNL     1      32.988   5.586  48.769  1.00  0.00    -0.362 N 
HETATM   27  H24 UNL     1      33.675   5.413  49.528  1.00  0.00     0.165 HD
ENDROOT
BRANCH   1  28
HETATM   28  O1  UNL     1      27.449   8.743  46.872  1.00  0.00    -0.348 OA
BRANCH  28  29
HETATM   29  C2  UNL     1      26.039   8.644  46.722  1.00  0.00     0.126 C 
HETATM   30  C1  UNL     1      24.856   8.028  46.847  1.00  0.00     0.037 C 
ENDBRANCH  28  29
ENDBRANCH   1  28
BRANCH   2  31
HETATM   31  C5  UNL     1      27.948   6.740  48.479  1.00  0.00     0.106 C 
BRANCH  31  32
HETATM   32  C6  UNL     1      27.517   5.298  48.478  1.00  0.00     0.235 C 
HETATM   33  O2  UNL     1      26.340   5.249  48.866  1.00  0.00    -0.307 OA
ENDBRANCH  31  32
ENDBRANCH   2  31
BRANCH   8  34
HETATM   34  N1  UNL     1      31.647   7.919  43.355  1.00  0.00    -0.384 N 
HETATM   35  H13 UNL     1      31.904   8.879  43.033  1.00  0.00     0.157 HD
HETATM   36  H14 UNL     1      31.477   7.430  42.428  1.00  0.00     0.157 HD
ENDBRANCH   8  34
TORSDOF 5
ENDMDL
MODEL 3
REMARK VINA RESULT:      -6.3      9.518     11.447
REMARK  5 active torsions:
REMARK  status: ('A' for Active; 'I' for Inactive)
REMARK    1  A    between atoms: C2_2  and  O1_3 
REMARK    2  A    between atoms: O1_3  and  C3_4 
REMARK    3  A    between atoms: C4_5  and  C5_6 
REMARK    4  A    between atoms: C5_6  and  C6_7 
REMARK    5  A    between atoms: C12_14  and  N1_15 
ROOT
HETATM    1  C3  UNL     1      22.507   3.499  47.598  1.00  0.00     0.206 C 
HETATM    2  C4  UNL     1      22.360   2.469  48.714  1.00  0.00    -0.039 C 
HETATM    3  C7  UNL     1      22.931   2.040  49.821  1.00  0.00     0.008 C 
HETATM    4  C8  UNL     1      22.946   1.149  50.954  1.00  0.00     0.025 C 
HETATM    5  C9  UNL     1      24.098   1.624  51.467  1.00  0.00     0.013 C 
HETATM    6  C10 UNL     1      25.343   2.360  51.722  1.00  0.00     0.088 C 
HETATM    7  C11 UNL     1      25.593   3.530  50.818  1.00  0.00     0.029 C 
HETATM    8  C12 UNL     1      25.350   4.439  49.838  1.00  0.00     0.117 C 
HETATM    9  N2  UNL     1      24.408   4.793  48.944  1.00  0.00    -0.236 NA
HETATM   10  C13 UNL     1      23.476   4.537  48.198  1.00  0.00     0.066 C 
HETATM   11  C14 UNL     1      23.223   5.887  47.594  1.00  0.00     0.187 C 
HETATM   12  N3  UNL     1      22.112   6.591  48.232  1.00  0.00    -0.337 N 
HETATM   13  C15 UNL     1      21.000   6.936  47.503  1.00  0.00     0.112 A 
HETATM   14  C16 UNL     1      20.005   7.594  48.175  1.00  0.00     0.136 A 
HETATM   15  N4  UNL     1      20.557   7.651  49.395  1.00  0.00    -0.244 NA
HETATM   16  C17 UNL     1      21.771   7.082  49.453  1.00  0.00     0.130 A 
HETATM   17  C18 UNL     1      22.370   7.194  50.799  1.00  0.00     0.247 C 
HETATM   18  O3  UNL     1      21.562   6.496  51.746  1.00  0.00    -0.365 OA
HETATM   19  C19 UNL     1      21.778   5.152  51.993  1.00  0.00     0.116 A 
HETATM   20  C20 UNL     1      23.143   5.085  52.359  1.00  0.00     0.003 A 
HETATM   21  C21 UNL     1      22.571   3.840  52.363  1.00  0.00     0.112 A 
HETATM   22  C22 UNL     1      22.814   2.508  52.584  1.00  0.00     0.019 A 
HETATM   23  C23 UNL     1      21.450   2.642  52.228  1.00  0.00     0.029 A 
HETATM   24  C24 UNL     1      21.139   3.955  51.984  1.00  0.00     0.106 A 
HETATM   25 CL1  UNL     1      19.536   4.402  51.525  1.00  0.00    -0.110 Cl
HETATM   26  N5  UNL     1      23.612   1.280  52.839  1.00  0.00    -0.362 N 
HETATM   27  H24 UNL     1      23.390   0.899  53.779  1.00  0.00     0.165 HD
ENDROOT
BRANCH   1  28
HETATM   28  O1  UNL     1      21.291   4.034  47.246  1.00  0.00    -0.348 OA
BRANCH  28  29
HETATM   29  C2  UNL     1      20.916   3.895  45.882  1.00  0.00     0.126 C 
HETATM   30  C1  UNL     1      21.151   3.896  44.563  1.00  0.00     0.037 C 
ENDBRANCH  28  29
ENDBRANCH   1  28
BRANCH   2  31
HETATM   31  C5  UNL     1      21.180   1.634  48.279  1.00  0.00     0.106 C 
BRANCH  31  32
HETATM   32  C6  UNL     1      19.968   2.036  49.075  1.00  0.00     0.235 C 
HETATM   33  O2  UNL     1      19.563   1.037  49.689  1.00  0.00    -0.307 OA
ENDBRANCH  31  32
ENDBRANCH   2  31
BRANCH   8  34
HETATM   34  N1  UNL     1      26.181   5.520  49.380  1.00  0.00    -0.384 N 
HETATM   35  H13 UNL     1      27.020   5.963  49.820  1.00  0.00     0.157 HD
HETATM   36  H14 UNL     1      26.091   6.091  48.489  1.00  0.00     0.157 HD
ENDBRANCH   8  34
TORSDOF 5
ENDMDL
MODEL 4
REMARK VINA RESULT:      -6.3      3.227      6.209
REMARK  5 active torsions:
REMARK  status: ('A' for Active; 'I' for Inactive)
REMARK    1  A    between atoms: C2_2  and  O1_3 
REMARK    2  A    between atoms: O1_3  and  C3_4 
REMARK    3  A    between atoms: C4_5  and  C5_6 
REMARK    4  A    between atoms: C5_6  and  C6_7 
REMARK    5  A    between atoms: C12_14  and  N1_15 
ROOT
HETATM    1  C3  UNL     1      29.225   7.458  46.660  1.00  0.00     0.206 C 
HETATM    2  C4  UNL     1      30.699   7.844  46.738  1.00  0.00    -0.039 C 
HETATM    3  C7  UNL     1      31.641   8.505  46.094  1.00  0.00     0.008 C 
HETATM    4  C8  UNL     1      33.002   8.972  46.008  1.00  0.00     0.025 C 
HETATM    5  C9  UNL     1      32.843   9.587  44.819  1.00  0.00     0.013 C 
HETATM    6  C10 UNL     1      32.324  10.122  43.554  1.00  0.00     0.088 C 
HETATM    7  C11 UNL     1      30.844   9.982  43.358  1.00  0.00     0.029 C 
HETATM    8  C12 UNL     1      29.557   9.667  43.662  1.00  0.00     0.117 C 
HETATM    9  N2  UNL     1      28.805   9.168  44.661  1.00  0.00    -0.236 NA
HETATM   10  C13 UNL     1      28.646   8.462  45.644  1.00  0.00     0.066 C 
HETATM   11  C14 UNL     1      27.193   8.702  45.928  1.00  0.00     0.187 C 
HETATM   12  N3  UNL     1      26.981   9.688  46.986  1.00  0.00    -0.337 N 
HETATM   13  C15 UNL     1      26.332   9.332  48.144  1.00  0.00     0.112 A 
HETATM   14  C16 UNL     1      26.173  10.314  49.085  1.00  0.00     0.136 A 
HETATM   15  N4  UNL     1      26.766  11.333  48.449  1.00  0.00    -0.244 NA
HETATM   16  C17 UNL     1      27.239  10.998  47.239  1.00  0.00     0.130 A 
HETATM   17  C18 UNL     1      27.853  12.150  46.547  1.00  0.00     0.247 C 
HETATM   18  O3  UNL     1      28.977  12.617  47.292  1.00  0.00    -0.365 OA
HETATM   19  C19 UNL     1      30.234  12.083  47.070  1.00  0.00     0.116 A 
HETATM   20  C20 UNL     1      30.445  12.268  45.684  1.00  0.00     0.003 A 
HETATM   21  C21 UNL     1      31.512  11.633  46.263  1.00  0.00     0.112 A 
HETATM   22  C22 UNL     1      32.744  11.082  46.016  1.00  0.00     0.019 A 
HETATM   23  C23 UNL     1      32.481  10.941  47.400  1.00  0.00     0.029 A 
HETATM   24  C24 UNL     1      31.255  11.467  47.717  1.00  0.00     0.106 A 
HETATM   25 CL1  UNL     1      30.681  11.424  49.344  1.00  0.00    -0.110 Cl
HETATM   26  N5  UNL     1      33.889  10.581  45.212  1.00  0.00    -0.362 N 
HETATM   27  H24 UNL     1      34.725  11.177  45.371  1.00  0.00     0.165 HD
ENDROOT
BRANCH   1  28
HETATM   28  O1  UNL     1      28.623   7.527  47.893  1.00  0.00    -0.348 OA
BRANCH  28  29
HETATM   29  C2  UNL     1      27.969   6.347  48.340  1.00  0.00     0.126 C 
HETATM   30  C1  UNL     1      27.887   5.030  48.569  1.00  0.00     0.037 C 
ENDBRANCH  28  29
ENDBRANCH   1  28
BRANCH   2  31
HETATM   31  C5  UNL     1      31.203   7.102  47.951  1.00  0.00     0.106 C 
BRANCH  31  32
HETATM   32  C6  UNL     1      31.621   5.714  47.544  1.00  0.00     0.235 C 
HETATM   33  O2  UNL     1      31.433   4.959  48.510  1.00  0.00    -0.307 OA
ENDBRANCH  31  32
ENDBRANCH   2  31
BRANCH   8  34
HETATM   34  N1  UNL     1      28.374   9.817  42.856  1.00  0.00    -0.384 N 
HETATM   35  H13 UNL     1      27.370   9.896  43.135  1.00  0.00     0.157 HD
HETATM   36  H14 UNL     1      28.299   9.869  41.798  1.00  0.00     0.157 HD
ENDBRANCH   8  34
TORSDOF 5
ENDMDL
MODEL 5
REMARK VINA RESULT:      -6.2      4.024      5.743
REMARK  5 active torsions:
REMARK  status: ('A' for Active; 'I' for Inactive)
REMARK    1  A    between atoms: C2_2  and  O1_3 
REMARK    2  A    between atoms: O1_3  and  C3_4 
REMARK    3  A    between atoms: C4_5  and  C5_6 
REMARK    4  A    between atoms: C5_6  and  C6_7 
REMARK    5  A    between atoms: C12_14  and  N1_15 
ROOT
HETATM    1  C3  UNL     1      27.924   9.189  44.446  1.00  0.00     0.206 C 
HETATM    2  C4  UNL     1      26.987   8.679  45.537  1.00  0.00    -0.039 C 
HETATM    3  C7  UNL     1      26.957   7.935  46.624  1.00  0.00     0.008 C 
HETATM    4  C8  UNL     1      26.229   7.374  47.734  1.00  0.00     0.025 C 
HETATM    5  C9  UNL     1      27.280   6.700  48.241  1.00  0.00     0.013 C 
HETATM    6  C10 UNL     1      28.599   6.109  48.496  1.00  0.00     0.088 C 
HETATM    7  C11 UNL     1      29.707   6.612  47.618  1.00  0.00     0.029 C 
HETATM    8  C12 UNL     1      30.316   7.364  46.665  1.00  0.00     0.117 C 
HETATM    9  N2  UNL     1      30.066   8.360  45.795  1.00  0.00    -0.236 NA
HETATM   10  C13 UNL     1      29.325   8.989  45.056  1.00  0.00     0.066 C 
HETATM   11  C14 UNL     1      30.282   9.996  44.491  1.00  0.00     0.187 C 
HETATM   12  N3  UNL     1      30.200  11.291  45.164  1.00  0.00    -0.337 N 
HETATM   13  C15 UNL     1      29.840  12.416  44.460  1.00  0.00     0.112 A 
HETATM   14  C16 UNL     1      29.788  13.590  45.164  1.00  0.00     0.136 A 
HETATM   15  N4  UNL     1      30.142  13.141  46.376  1.00  0.00    -0.244 NA
HETATM   16  C17 UNL     1      30.385  11.821  46.401  1.00  0.00     0.130 A 
HETATM   17  C18 UNL     1      30.810  11.363  47.740  1.00  0.00     0.247 C 
HETATM   18  O3  UNL     1      29.761  11.588  48.682  1.00  0.00    -0.365 OA
HETATM   19  C19 UNL     1      28.791  10.624  48.891  1.00  0.00     0.116 A 
HETATM   20  C20 UNL     1      29.527   9.466  49.235  1.00  0.00     0.003 A 
HETATM   21  C21 UNL     1      28.182   9.206  49.216  1.00  0.00     0.112 A 
HETATM   22  C22 UNL     1      27.238   8.228  49.399  1.00  0.00     0.019 A 
HETATM   23  C23 UNL     1      26.557   9.425  49.067  1.00  0.00     0.029 A 
HETATM   24  C24 UNL     1      27.447  10.448  48.861  1.00  0.00     0.106 A 
HETATM   25 CL1  UNL     1      26.882  12.023  48.438  1.00  0.00    -0.110 Cl
HETATM   26  N5  UNL     1      26.701   6.858  49.611  1.00  0.00    -0.362 N 
HETATM   27  H24 UNL     1      26.251   6.791  50.544  1.00  0.00     0.165 HD
ENDROOT
BRANCH   1  28
HETATM   28  O1  UNL     1      27.654  10.498  44.125  1.00  0.00    -0.348 OA
BRANCH  28  29
HETATM   29  C2  UNL     1      27.283  10.750  42.777  1.00  0.00     0.126 C 
HETATM   30  C1  UNL     1      26.403  10.998  41.797  1.00  0.00     0.037 C 
ENDBRANCH  28  29
ENDBRANCH   1  28
BRANCH   2  31
HETATM   31  C5  UNL     1      25.626   9.164  45.099  1.00  0.00     0.106 C 
BRANCH  31  32
HETATM   32  C6  UNL     1      24.858   8.015  44.503  1.00  0.00     0.235 C 
HETATM   33  O2  UNL     1      25.105   7.978  43.288  1.00  0.00    -0.307 OA
ENDBRANCH  31  32
ENDBRANCH   2  31
BRANCH   8  34
HETATM   34  N1  UNL     1      31.685   7.330  46.222  1.00  0.00    -0.384 N 
HETATM   35  H13 UNL     1      32.512   6.825  46.615  1.00  0.00     0.157 HD
HETATM   36  H14 UNL     1      32.124   7.830  45.394  1.00  0.00     0.157 HD
ENDBRANCH   8  34
TORSDOF 5
ENDMDL
MODEL 6
REMARK VINA RESULT:      -6.2      9.348     12.179
REMARK  5 active torsions:
REMARK  status: ('A' for Active; 'I' for Inactive)
REMARK    1  A    between atoms: C2_2  and  O1_3 
REMARK    2  A    between atoms: O1_3  and  C3_4 
REMARK    3  A    between atoms: C4_5  and  C5_6 
REMARK    4  A    between atoms: C5_6  and  C6_7 
REMARK    5  A    between atoms: C12_14  and  N1_15 
ROOT
HETATM    1  C3  UNL     1      23.539   3.429  48.998  1.00  0.00     0.206 C 
HETATM    2  C4  UNL     1      24.143   4.826  48.880  1.00  0.00    -0.039 C 
HETATM    3  C7  UNL     1      24.152   5.897  48.113  1.00  0.00     0.008 C 
HETATM    4  C8  UNL     1      24.611   7.237  47.846  1.00  0.00     0.025 C 
HETATM    5  C9  UNL     1      23.944   7.364  46.682  1.00  0.00     0.013 C 
HETATM    6  C10 UNL     1      23.115   7.151  45.490  1.00  0.00     0.088 C 
HETATM    7  C11 UNL     1      22.305   5.889  45.489  1.00  0.00     0.029 C 
HETATM    8  C12 UNL     1      21.787   4.724  45.960  1.00  0.00     0.117 C 
HETATM    9  N2  UNL     1      21.792   3.939  47.053  1.00  0.00    -0.236 NA
HETATM   10  C13 UNL     1      22.321   3.486  48.055  1.00  0.00     0.066 C 
HETATM   11  C14 UNL     1      21.263   2.531  48.524  1.00  0.00     0.187 C 
HETATM   12  N3  UNL     1      20.433   3.088  49.590  1.00  0.00    -0.337 N 
HETATM   13  C15 UNL     1      20.399   2.488  50.826  1.00  0.00     0.112 A 
HETATM   14  C16 UNL     1      19.596   3.071  51.770  1.00  0.00     0.136 A 
HETATM   15  N4  UNL     1      19.111   4.093  51.052  1.00  0.00    -0.244 NA
HETATM   16  C17 UNL     1      19.577   4.123  49.794  1.00  0.00     0.130 A 
HETATM   17  C18 UNL     1      18.996   5.237  49.016  1.00  0.00     0.247 C 
HETATM   18  O3  UNL     1      19.370   6.483  49.605  1.00  0.00    -0.365 OA
HETATM   19  C19 UNL     1      20.544   7.110  49.227  1.00  0.00     0.116 A 
HETATM   20  C20 UNL     1      20.427   7.239  47.823  1.00  0.00     0.003 A 
HETATM   21  C21 UNL     1      21.622   7.743  48.265  1.00  0.00     0.112 A 
HETATM   22  C22 UNL     1      22.792   8.337  47.866  1.00  0.00     0.019 A 
HETATM   23  C23 UNL     1      22.842   8.196  49.274  1.00  0.00     0.029 A 
HETATM   24  C24 UNL     1      21.700   7.597  49.742  1.00  0.00     0.106 A 
HETATM   25 CL1  UNL     1      21.500   7.299  51.430  1.00  0.00    -0.110 Cl
HETATM   26  N5  UNL     1      23.830   8.835  46.925  1.00  0.00    -0.362 N 
HETATM   27  H24 UNL     1      23.883   9.871  46.968  1.00  0.00     0.165 HD
ENDROOT
BRANCH   1  28
HETATM   28  O1  UNL     1      23.205   3.136  50.298  1.00  0.00    -0.348 OA
BRANCH  28  29
HETATM   29  C2  UNL     1      23.852   2.010  50.875  1.00  0.00     0.126 C 
HETATM   30  C1  UNL     1      24.428   1.336  51.880  1.00  0.00     0.037 C 
ENDBRANCH  28  29
ENDBRANCH   1  28
BRANCH   2  31
HETATM   31  C5  UNL     1      25.123   4.893  50.025  1.00  0.00     0.106 C 
BRANCH  31  32
HETATM   32  C6  UNL     1      26.480   4.455  49.542  1.00  0.00     0.235 C 
HETATM   33  O2  UNL     1      26.883   3.556  50.295  1.00  0.00    -0.307 OA
ENDBRANCH  31  32
ENDBRANCH   2  31
BRANCH   8  34
HETATM   34  N1  UNL     1      20.887   3.806  45.313  1.00  0.00    -0.384 N 
HETATM   35  H13 UNL     1      19.874   3.615  45.486  1.00  0.00     0.157 HD
HETATM   36  H14 UNL     1      21.092   3.128  44.521  1.00  0.00     0.157 HD
ENDBRANCH   8  34
TORSDOF 5
ENDMDL
MODEL 7
REMARK VINA RESULT:      -6.2     10.860     13.899
REMARK  5 active torsions:
REMARK  status: ('A' for Active; 'I' for Inactive)
REMARK    1  A    between atoms: C2_2  and  O1_3 
REMARK    2  A    between atoms: O1_3  and  C3_4 
REMARK    3  A    between atoms: C4_5  and  C5_6 
REMARK    4  A    between atoms: C5_6  and  C6_7 
REMARK    5  A    between atoms: C12_14  and  N1_15 
ROOT
HETATM    1  C3  UNL     1      20.210   3.287  51.973  1.00  0.00     0.206 C 
HETATM    2  C4  UNL     1      19.412   3.218  50.675  1.00  0.00    -0.039 C 
HETATM    3  C7  UNL     1      19.056   3.935  49.629  1.00  0.00     0.008 C 
HETATM    4  C8  UNL     1      18.364   4.048  48.369  1.00  0.00     0.025 C 
HETATM    5  C9  UNL     1      18.681   5.343  48.172  1.00  0.00     0.013 C 
HETATM    6  C10 UNL     1      19.193   6.714  48.290  1.00  0.00     0.088 C 
HETATM    7  C11 UNL     1      20.140   6.949  49.429  1.00  0.00     0.029 C 
HETATM    8  C12 UNL     1      20.917   6.652  50.503  1.00  0.00     0.117 C 
HETATM    9  N2  UNL     1      21.305   5.610  51.263  1.00  0.00    -0.236 NA
HETATM   10  C13 UNL     1      21.121   4.513  51.766  1.00  0.00     0.066 C 
HETATM   11  C14 UNL     1      22.386   4.355  52.559  1.00  0.00     0.187 C 
HETATM   12  N3  UNL     1      23.380   3.531  51.874  1.00  0.00    -0.337 N 
HETATM   13  C15 UNL     1      23.817   2.358  52.442  1.00  0.00     0.112 A 
HETATM   14  C16 UNL     1      24.750   1.645  51.738  1.00  0.00     0.136 A 
HETATM   15  N4  UNL     1      24.886   2.445  50.672  1.00  0.00    -0.244 NA
HETATM   16  C17 UNL     1      24.109   3.537  50.728  1.00  0.00     0.130 A 
HETATM   17  C18 UNL     1      24.309   4.418  49.558  1.00  0.00     0.247 C 
HETATM   18  O3  UNL     1      23.934   3.729  48.365  1.00  0.00    -0.365 OA
HETATM   19  C19 UNL     1      22.628   3.776  47.912  1.00  0.00     0.116 A 
HETATM   20  C20 UNL     1      22.356   5.159  47.793  1.00  0.00     0.003 A 
HETATM   21  C21 UNL     1      21.260   4.412  47.451  1.00  0.00     0.112 A 
HETATM   22  C22 UNL     1      19.957   4.481  47.030  1.00  0.00     0.019 A 
HETATM   23  C23 UNL     1      20.296   3.112  47.152  1.00  0.00     0.029 A 
HETATM   24  C24 UNL     1      21.590   2.969  47.580  1.00  0.00     0.106 A 
HETATM   25 CL1  UNL     1      22.262   1.397  47.817  1.00  0.00    -0.110 Cl
HETATM   26  N5  UNL     1      18.652   5.110  46.695  1.00  0.00    -0.362 N 
HETATM   27  H24 UNL     1      18.470   5.035  45.676  1.00  0.00     0.165 HD
ENDROOT
BRANCH   1  28
HETATM   28  O1  UNL     1      20.909   2.125  52.195  1.00  0.00    -0.348 OA
BRANCH  28  29
HETATM   29  C2  UNL     1      20.560   1.396  53.364  1.00  0.00     0.126 C 
HETATM   30  C1  UNL     1      20.646   0.357  54.205  1.00  0.00     0.037 C 
ENDBRANCH  28  29
ENDBRANCH   1  28
BRANCH   2  31
HETATM   31  C5  UNL     1      18.763   1.856  50.723  1.00  0.00     0.106 C 
BRANCH  31  32
HETATM   32  C6  UNL     1      17.404   1.976  51.358  1.00  0.00     0.235 C 
HETATM   33  O2  UNL     1      17.114   0.877  51.854  1.00  0.00    -0.307 OA
ENDBRANCH  31  32
ENDBRANCH   2  31
BRANCH   8  34
HETATM   34  N1  UNL     1      21.734   7.528  51.300  1.00  0.00    -0.384 N 
HETATM   35  H13 UNL     1      22.349   8.324  51.017  1.00  0.00     0.157 HD
HETATM   36  H14 UNL     1      21.874   7.525  52.353  1.00  0.00     0.157 HD
ENDBRANCH   8  34
TORSDOF 5
ENDMDL
MODEL 8
REMARK VINA RESULT:      -6.1      2.785      6.911
REMARK  5 active torsions:
REMARK  status: ('A' for Active; 'I' for Inactive)
REMARK    1  A    between atoms: C2_2  and  O1_3 
REMARK    2  A    between atoms: O1_3  and  C3_4 
REMARK    3  A    between atoms: C4_5  and  C5_6 
REMARK    4  A    between atoms: C5_6  and  C6_7 
REMARK    5  A    between atoms: C12_14  and  N1_15 
ROOT
HETATM    1  C3  UNL     1      28.359   8.792  47.789  1.00  0.00     0.206 C 
HETATM    2  C4  UNL     1      28.105   9.495  46.459  1.00  0.00    -0.039 C 
HETATM    3  C7  UNL     1      28.263  10.648  45.841  1.00  0.00     0.008 C 
HETATM    4  C8  UNL     1      28.116  11.463  44.661  1.00  0.00     0.025 C 
HETATM    5  C9  UNL     1      28.644  12.573  45.214  1.00  0.00     0.013 C 
HETATM    6  C10 UNL     1      29.242  13.564  46.117  1.00  0.00     0.088 C 
HETATM    7  C11 UNL     1      29.712  13.027  47.437  1.00  0.00     0.029 C 
HETATM    8  C12 UNL     1      29.983  12.104  48.396  1.00  0.00     0.117 C 
HETATM    9  N2  UNL     1      29.922  10.779  48.627  1.00  0.00    -0.236 NA
HETATM   10  C13 UNL     1      29.427   9.676  48.462  1.00  0.00     0.066 C 
HETATM   11  C14 UNL     1      30.269   8.850  49.389  1.00  0.00     0.187 C 
HETATM   12  N3  UNL     1      31.336   8.133  48.693  1.00  0.00    -0.337 N 
HETATM   13  C15 UNL     1      31.375   6.759  48.715  1.00  0.00     0.112 A 
HETATM   14  C16 UNL     1      32.407   6.164  48.040  1.00  0.00     0.136 A 
HETATM   15  N4  UNL     1      33.034   7.255  47.580  1.00  0.00    -0.244 NA
HETATM   16  C17 UNL     1      32.437   8.401  47.945  1.00  0.00     0.130 A 
HETATM   17  C18 UNL     1      33.172   9.586  47.456  1.00  0.00     0.247 C 
HETATM   18  O3  UNL     1      33.190   9.588  46.029  1.00  0.00    -0.365 OA
HETATM   19  C19 UNL     1      32.168  10.191  45.318  1.00  0.00     0.116 A 
HETATM   20  C20 UNL     1      32.137  11.514  45.816  1.00  0.00     0.003 A 
HETATM   21  C21 UNL     1      31.166  11.323  44.869  1.00  0.00     0.112 A 
HETATM   22  C22 UNL     1      30.137  11.931  44.196  1.00  0.00     0.019 A 
HETATM   23  C23 UNL     1      30.229  10.599  43.725  1.00  0.00     0.029 A 
HETATM   24  C24 UNL     1      31.239   9.927  44.365  1.00  0.00     0.106 A 
HETATM   25 CL1  UNL     1      31.569   8.276  43.983  1.00  0.00    -0.110 Cl
HETATM   26  N5  UNL     1      29.144  12.987  43.866  1.00  0.00    -0.362 N 
HETATM   27  H24 UNL     1      29.351  13.394  42.934  1.00  0.00     0.165 HD
ENDROOT
BRANCH   1  28
HETATM   28  O1  UNL     1      28.770   7.494  47.600  1.00  0.00    -0.348 OA
BRANCH  28  29
HETATM   29  C2  UNL     1      27.970   6.487  48.205  1.00  0.00     0.126 C 
HETATM   30  C1  UNL     1      27.699   5.231  48.583  1.00  0.00     0.037 C 
ENDBRANCH  28  29
ENDBRANCH   1  28
BRANCH   2  31
HETATM   31  C5  UNL     1      27.321   8.484  45.660  1.00  0.00     0.106 C 
BRANCH  31  32
HETATM   32  C6  UNL     1      25.859   8.842  45.704  1.00  0.00     0.235 C 
HETATM   33  O2  UNL     1      25.280   8.005  46.411  1.00  0.00    -0.307 OA
ENDBRANCH  31  32
ENDBRANCH   2  31
BRANCH   8  34
HETATM   34  N1  UNL     1      30.544  12.300  49.707  1.00  0.00    -0.384 N 
HETATM   35  H13 UNL     1      31.280  12.965  50.037  1.00  0.00     0.157 HD
HETATM   36  H14 UNL     1      30.312  11.786  50.608  1.00  0.00     0.157 HD
ENDBRANCH   8  34
TORSDOF 5
ENDMDL
MODEL 9
REMARK VINA RESULT:      -6.0      3.481      7.657
REMARK  5 active torsions:
REMARK  status: ('A' for Active; 'I' for Inactive)
REMARK    1  A    between atoms: C2_2  and  O1_3 
REMARK    2  A    between atoms: O1_3  and  C3_4 
REMARK    3  A    between atoms: C4_5  and  C5_6 
REMARK    4  A    between atoms: C5_6  and  C6_7 
REMARK    5  A    between atoms: C12_14  and  N1_15 
ROOT
HETATM    1  C3  UNL     1      28.266   8.502  48.446  1.00  0.00     0.206 C 
HETATM    2  C4  UNL     1      27.090   9.254  47.831  1.00  0.00    -0.039 C 
HETATM    3  C7  UNL     1      26.606  10.467  47.648  1.00  0.00     0.008 C 
HETATM    4  C8  UNL     1      25.588  11.338  47.118  1.00  0.00     0.025 C 
HETATM    5  C9  UNL     1      26.151  12.474  47.573  1.00  0.00     0.013 C 
HETATM    6  C10 UNL     1      27.017  13.475  48.210  1.00  0.00     0.088 C 
HETATM    7  C11 UNL     1      28.318  12.952  48.742  1.00  0.00     0.029 C 
HETATM    8  C12 UNL     1      29.302  12.052  49.001  1.00  0.00     0.117 C 
HETATM    9  N2  UNL     1      29.632  10.765  48.784  1.00  0.00    -0.236 NA
HETATM   10  C13 UNL     1      29.345   9.593  48.600  1.00  0.00     0.066 C 
HETATM   11  C14 UNL     1      30.712   8.978  48.530  1.00  0.00     0.187 C 
HETATM   12  N3  UNL     1      31.162   8.761  47.156  1.00  0.00    -0.337 N 
HETATM   13  C15 UNL     1      31.437   7.491  46.710  1.00  0.00     0.112 A 
HETATM   14  C16 UNL     1      31.855   7.373  45.411  1.00  0.00     0.136 A 
HETATM   15  N4  UNL     1      31.832   8.664  45.050  1.00  0.00    -0.244 NA
HETATM   16  C17 UNL     1      31.438   9.482  46.038  1.00  0.00     0.130 A 
HETATM   17  C18 UNL     1      31.459  10.900  45.622  1.00  0.00     0.247 C 
HETATM   18  O3  UNL     1      30.536  11.103  44.551  1.00  0.00    -0.365 OA
HETATM   19  C19 UNL     1      29.216  11.419  44.817  1.00  0.00     0.116 A 
HETATM   20  C20 UNL     1      29.297  12.575  45.628  1.00  0.00     0.003 A 
HETATM   21  C21 UNL     1      27.993  12.201  45.434  1.00  0.00     0.112 A 
HETATM   22  C22 UNL     1      26.692  12.514  45.734  1.00  0.00     0.019 A 
HETATM   23  C23 UNL     1      26.676  11.367  44.904  1.00  0.00     0.029 A 
HETATM   24  C24 UNL     1      27.952  10.992  44.571  1.00  0.00     0.106 A 
HETATM   25 CL1  UNL     1      28.223   9.615  43.566  1.00  0.00    -0.110 Cl
HETATM   26  N5  UNL     1      25.567  13.212  46.411  1.00  0.00    -0.362 N 
HETATM   27  H24 UNL     1      25.040  13.787  45.726  1.00  0.00     0.165 HD
ENDROOT
BRANCH   1  28
HETATM   28  O1  UNL     1      28.664   7.456  47.648  1.00  0.00    -0.348 OA
BRANCH  28  29
HETATM   29  C2  UNL     1      28.558   6.158  48.216  1.00  0.00     0.126 C 
HETATM   30  C1  UNL     1      27.891   5.055  48.583  1.00  0.00     0.037 C 
ENDBRANCH  28  29
ENDBRANCH   1  28
BRANCH   2  31
HETATM   31  C5  UNL     1      26.159   8.158  47.375  1.00  0.00     0.106 C 
BRANCH  31  32
HETATM   32  C6  UNL     1      25.201   7.826  48.488  1.00  0.00     0.235 C 
HETATM   33  O2  UNL     1      24.402   6.976  48.065  1.00  0.00    -0.307 OA
ENDBRANCH  31  32
ENDBRANCH   2  31
BRANCH   8  34
HETATM   34  N1  UNL     1      30.541  12.243  49.708  1.00  0.00    -0.384 N 
HETATM   35  H13 UNL     1      30.836  13.002  50.363  1.00  0.00     0.157 HD
HETATM   36  H14 UNL     1      31.412  11.636  49.690  1.00  0.00     0.157 HD
ENDBRANCH   8  34
TORSDOF 5
ENDMDL
