MODEL 1
REMARK VINA RESULT:      -7.6      0.000      0.000
REMARK  10 active torsions:
REMARK  status: ('A' for Active; 'I' for Inactive)
REMARK    1  A    between atoms: C7_8  and  C8_9 
REMARK    2  A    between atoms: C8_9  and  O3_11 
REMARK    3  A    between atoms: O3_11  and  C9_12 
REMARK    4  A    between atoms: C9_12  and  C10_13 
REMARK    5  A    between atoms: C10_13  and  C11_14 
REMARK    6  A    between atoms: C11_14  and  C12_15 
REMARK    7  A    between atoms: C12_15  and  C13_16 
REMARK    8  A    between atoms: C13_16  and  C14_17 
REMARK    9  A    between atoms: C16_19  and  C17_20 
REMARK   10  A    between atoms: C22_25  and  O4_26 
ROOT
HETATM    1  C1  UNL     1      22.976  -1.636  55.707  1.00  0.00     0.051 C 
HETATM    2  C2  UNL     1      22.590  -0.994  54.621  1.00  0.00     0.066 A 
HETATM    3  C3  UNL     1      21.185  -1.088  54.241  1.00  0.00     0.037 A 
HETATM    4  C4  UNL     1      20.866  -0.421  53.145  1.00  0.00     0.019 A 
HETATM    5  C5  UNL     1      21.821   0.343  52.379  1.00  0.00     0.020 A 
HETATM    6  C6  UNL     1      21.506   1.010  51.304  1.00  0.00     0.150 A 
HETATM    7  O1  UNL     1      22.318   1.768  50.497  1.00  0.00    -0.342 OA
HETATM    8  C7  UNL     1      23.688   1.886  50.783  1.00  0.00     0.264 A 
HETATM    9  C16 UNL     1      24.017   1.152  51.995  1.00  0.00     0.029 A 
HETATM   10  C23 UNL     1      23.222   0.430  52.767  1.00  0.00     0.098 A 
HETATM   11  O5  UNL     1      23.552  -0.275  53.923  1.00  0.00    -0.310 OA
ENDROOT
BRANCH   8  12
HETATM   12  C8  UNL     1      24.153   3.293  50.786  1.00  0.00     0.293 C 
HETATM   13  O2  UNL     1      24.140   4.424  51.339  1.00  0.00    -0.262 OA
BRANCH  12  14
HETATM   14  O3  UNL     1      25.009   3.808  49.813  1.00  0.00    -0.319 OA
BRANCH  14  15
HETATM   15  C9  UNL     1      26.318   3.305  49.625  1.00  0.00     0.178 C 
BRANCH  15  16
HETATM   16  C10 UNL     1      27.218   4.385  49.011  1.00  0.00     0.027 C 
BRANCH  16  17
HETATM   17  C11 UNL     1      26.403   5.654  48.909  1.00  0.00     0.002 C 
BRANCH  17  18
HETATM   18  C12 UNL     1      27.160   6.824  48.362  1.00  0.00     0.000 C 
BRANCH  18  19
HETATM   19  C13 UNL     1      28.570   6.397  48.046  1.00  0.00    -0.000 C 
BRANCH  19  20
HETATM   20  C14 UNL     1      29.133   7.347  47.009  1.00  0.00    -0.005 C 
HETATM   21  C15 UNL     1      29.324   8.721  47.641  1.00  0.00     0.005 C 
ENDBRANCH  19  20
ENDBRANCH  18  19
ENDBRANCH  17  18
ENDBRANCH  16  17
ENDBRANCH  15  16
ENDBRANCH  14  15
ENDBRANCH  12  14
ENDBRANCH   8  12
BRANCH   9  22
HETATM   22  C17 UNL     1      25.396   1.218  52.460  1.00  0.00     0.009 A 
HETATM   23  C18 UNL     1      26.298   0.251  51.996  1.00  0.00     0.015 A 
HETATM   24  C19 UNL     1      27.628   0.240  52.377  1.00  0.00     0.001 A 
HETATM   25  C20 UNL     1      28.125   1.185  53.233  1.00  0.00     0.003 A 
HETATM   26  C21 UNL     1      27.272   2.141  53.703  1.00  0.00     0.037 A 
HETATM   27  C22 UNL     1      25.961   2.135  53.316  1.00  0.00     0.076 A 
BRANCH  27  28
HETATM   28  O4  UNL     1      25.150   3.120  53.819  1.00  0.00    -0.360 OA
HETATM   29  H26 UNL     1      24.425   2.803  54.480  1.00  0.00     0.217 HD
ENDBRANCH  27  28
ENDBRANCH   9  22
TORSDOF 10
ENDMDL
MODEL 2
REMARK VINA RESULT:      -7.5      2.001      6.044
REMARK  10 active torsions:
REMARK  status: ('A' for Active; 'I' for Inactive)
REMARK    1  A    between atoms: C7_8  and  C8_9 
REMARK    2  A    between atoms: C8_9  and  O3_11 
REMARK    3  A    between atoms: O3_11  and  C9_12 
REMARK    4  A    between atoms: C9_12  and  C10_13 
REMARK    5  A    between atoms: C10_13  and  C11_14 
REMARK    6  A    between atoms: C11_14  and  C12_15 
REMARK    7  A    between atoms: C12_15  and  C13_16 
REMARK    8  A    between atoms: C13_16  and  C14_17 
REMARK    9  A    between atoms: C16_19  and  C17_20 
REMARK   10  A    between atoms: C22_25  and  O4_26 
ROOT
HETATM    1  C1  UNL     1      27.529   4.140  48.929  1.00  0.00     0.051 C 
HETATM    2  C2  UNL     1      26.420   4.006  49.631  1.00  0.00     0.066 A 
HETATM    3  C3  UNL     1      25.276   4.829  49.255  1.00  0.00     0.037 A 
HETATM    4  C4  UNL     1      24.198   4.645  49.999  1.00  0.00     0.019 A 
HETATM    5  C5  UNL     1      24.145   3.707  51.094  1.00  0.00     0.020 A 
HETATM    6  C6  UNL     1      23.081   3.516  51.822  1.00  0.00     0.150 A 
HETATM    7  O1  UNL     1      22.908   2.660  52.882  1.00  0.00    -0.342 OA
HETATM    8  C7  UNL     1      23.971   1.853  53.319  1.00  0.00     0.264 A 
HETATM    9  C16 UNL     1      25.144   2.065  52.485  1.00  0.00     0.029 A 
HETATM   10  C23 UNL     1      25.294   2.890  51.462  1.00  0.00     0.098 A 
HETATM   11  O5  UNL     1      26.427   3.089  50.674  1.00  0.00    -0.310 OA
ENDROOT
BRANCH   8  12
HETATM   12  C8  UNL     1      23.587   0.430  53.467  1.00  0.00     0.293 C 
HETATM   13  O2  UNL     1      23.766  -0.673  54.049  1.00  0.00    -0.262 OA
BRANCH  12  14
HETATM   14  O3  UNL     1      22.584  -0.166  52.703  1.00  0.00    -0.319 OA
BRANCH  14  15
HETATM   15  C9  UNL     1      21.337  -0.534  53.262  1.00  0.00     0.178 C 
BRANCH  15  16
HETATM   16  C10 UNL     1      20.268   0.505  52.901  1.00  0.00     0.027 C 
BRANCH  16  17
HETATM   17  C11 UNL     1      19.936   0.329  51.437  1.00  0.00     0.002 C 
BRANCH  17  18
HETATM   18  C12 UNL     1      20.350   1.480  50.573  1.00  0.00     0.000 C 
BRANCH  18  19
HETATM   19  C13 UNL     1      21.486   1.047  49.684  1.00  0.00    -0.000 C 
BRANCH  19  20
HETATM   20  C14 UNL     1      21.247   1.612  48.299  1.00  0.00    -0.005 C 
HETATM   21  C15 UNL     1      22.554   2.185  47.761  1.00  0.00     0.005 C 
ENDBRANCH  19  20
ENDBRANCH  18  19
ENDBRANCH  17  18
ENDBRANCH  16  17
ENDBRANCH  15  16
ENDBRANCH  14  15
ENDBRANCH  12  14
ENDBRANCH   8  12
BRANCH   9  22
HETATM   22  C17 UNL     1      26.323   1.261  52.776  1.00  0.00     0.009 A 
HETATM   23  C18 UNL     1      26.410  -0.016  52.207  1.00  0.00     0.015 A 
HETATM   24  C19 UNL     1      27.495  -0.848  52.420  1.00  0.00     0.001 A 
HETATM   25  C20 UNL     1      28.543  -0.451  53.205  1.00  0.00     0.003 A 
HETATM   26  C21 UNL     1      28.491   0.788  53.774  1.00  0.00     0.037 A 
HETATM   27  C22 UNL     1      27.410   1.595  53.552  1.00  0.00     0.076 A 
BRANCH  27  28
HETATM   28  O4  UNL     1      27.410   2.829  54.149  1.00  0.00    -0.360 OA
HETATM   29  H26 UNL     1      26.532   3.097  54.618  1.00  0.00     0.217 HD
ENDBRANCH  27  28
ENDBRANCH   9  22
TORSDOF 10
ENDMDL
MODEL 3
REMARK VINA RESULT:      -7.4      1.977      7.669
REMARK  10 active torsions:
REMARK  status: ('A' for Active; 'I' for Inactive)
REMARK    1  A    between atoms: C7_8  and  C8_9 
REMARK    2  A    between atoms: C8_9  and  O3_11 
REMARK    3  A    between atoms: O3_11  and  C9_12 
REMARK    4  A    between atoms: C9_12  and  C10_13 
REMARK    5  A    between atoms: C10_13  and  C11_14 
REMARK    6  A    between atoms: C11_14  and  C12_15 
REMARK    7  A    between atoms: C12_15  and  C13_16 
REMARK    8  A    between atoms: C13_16  and  C14_17 
REMARK    9  A    between atoms: C16_19  and  C17_20 
REMARK   10  A    between atoms: C22_25  and  O4_26 
ROOT
HETATM    1  C1  UNL     1      23.171   8.403  49.058  1.00  0.00     0.051 C 
HETATM    2  C2  UNL     1      24.240   7.639  48.931  1.00  0.00     0.066 A 
HETATM    3  C3  UNL     1      25.410   8.214  48.277  1.00  0.00     0.037 A 
HETATM    4  C4  UNL     1      26.445   7.396  48.183  1.00  0.00     0.019 A 
HETATM    5  C5  UNL     1      26.430   6.043  48.684  1.00  0.00     0.020 A 
HETATM    6  C6  UNL     1      27.452   5.238  48.603  1.00  0.00     0.150 A 
HETATM    7  O1  UNL     1      27.559   3.941  49.039  1.00  0.00    -0.342 OA
HETATM    8  C7  UNL     1      26.467   3.309  49.655  1.00  0.00     0.264 A 
HETATM    9  C16 UNL     1      25.342   4.227  49.755  1.00  0.00     0.029 A 
HETATM   10  C23 UNL     1      25.255   5.478  49.335  1.00  0.00     0.098 A 
HETATM   11  O5  UNL     1      24.168   6.346  49.431  1.00  0.00    -0.310 OA
ENDROOT
BRANCH   8  12
HETATM   12  C8  UNL     1      26.829   2.659  50.936  1.00  0.00     0.293 C 
HETATM   13  O2  UNL     1      27.322   2.767  52.090  1.00  0.00    -0.262 OA
BRANCH  12  14
HETATM   14  O3  UNL     1      26.603   1.306  51.188  1.00  0.00    -0.319 OA
BRANCH  14  15
HETATM   15  C9  UNL     1      26.992   0.696  52.404  1.00  0.00     0.178 C 
BRANCH  15  16
HETATM   16  C10 UNL     1      26.742  -0.817  52.341  1.00  0.00     0.027 C 
BRANCH  16  17
HETATM   17  C11 UNL     1      25.451  -1.097  53.074  1.00  0.00     0.002 C 
BRANCH  17  18
HETATM   18  C12 UNL     1      24.709   0.134  53.496  1.00  0.00     0.000 C 
BRANCH  18  19
HETATM   19  C13 UNL     1      23.242  -0.050  53.204  1.00  0.00    -0.000 C 
BRANCH  19  20
HETATM   20  C14 UNL     1      22.626  -0.835  54.344  1.00  0.00    -0.005 C 
HETATM   21  C15 UNL     1      21.283  -0.213  54.711  1.00  0.00     0.005 C 
ENDBRANCH  19  20
ENDBRANCH  18  19
ENDBRANCH  17  18
ENDBRANCH  16  17
ENDBRANCH  15  16
ENDBRANCH  14  15
ENDBRANCH  12  14
ENDBRANCH   8  12
BRANCH   9  22
HETATM   22  C17 UNL     1      24.142   3.740  50.421  1.00  0.00     0.009 A 
HETATM   23  C18 UNL     1      23.388   2.746  49.784  1.00  0.00     0.015 A 
HETATM   24  C19 UNL     1      22.239   2.218  50.344  1.00  0.00     0.001 A 
HETATM   25  C20 UNL     1      21.785   2.649  51.561  1.00  0.00     0.003 A 
HETATM   26  C21 UNL     1      22.497   3.617  52.209  1.00  0.00     0.037 A 
HETATM   27  C22 UNL     1      23.629   4.127  51.639  1.00  0.00     0.076 A 
BRANCH  27  28
HETATM   28  O4  UNL     1      24.305   5.096  52.334  1.00  0.00    -0.360 OA
HETATM   29  H26 UNL     1      24.232   6.050  51.951  1.00  0.00     0.217 HD
ENDBRANCH  27  28
ENDBRANCH   9  22
TORSDOF 10
ENDMDL
MODEL 4
REMARK VINA RESULT:      -7.4      1.691      3.626
REMARK  10 active torsions:
REMARK  status: ('A' for Active; 'I' for Inactive)
REMARK    1  A    between atoms: C7_8  and  C8_9 
REMARK    2  A    between atoms: C8_9  and  O3_11 
REMARK    3  A    between atoms: O3_11  and  C9_12 
REMARK    4  A    between atoms: C9_12  and  C10_13 
REMARK    5  A    between atoms: C10_13  and  C11_14 
REMARK    6  A    between atoms: C11_14  and  C12_15 
REMARK    7  A    between atoms: C12_15  and  C13_16 
REMARK    8  A    between atoms: C13_16  and  C14_17 
REMARK    9  A    between atoms: C16_19  and  C17_20 
REMARK   10  A    between atoms: C22_25  and  O4_26 
ROOT
HETATM    1  C1  UNL     1      19.359  -0.475  53.026  1.00  0.00     0.051 C 
HETATM    2  C2  UNL     1      20.619  -0.529  53.414  1.00  0.00     0.066 A 
HETATM    3  C3  UNL     1      20.984  -1.550  54.391  1.00  0.00     0.037 A 
HETATM    4  C4  UNL     1      22.261  -1.548  54.736  1.00  0.00     0.019 A 
HETATM    5  C5  UNL     1      23.224  -0.619  54.196  1.00  0.00     0.020 A 
HETATM    6  C6  UNL     1      24.485  -0.624  54.526  1.00  0.00     0.150 A 
HETATM    7  O1  UNL     1      25.490   0.202  54.086  1.00  0.00    -0.342 OA
HETATM    8  C7  UNL     1      25.211   1.225  53.165  1.00  0.00     0.264 A 
HETATM    9  C16 UNL     1      23.805   1.203  52.793  1.00  0.00     0.029 A 
HETATM   10  C23 UNL     1      22.848   0.397  53.222  1.00  0.00     0.098 A 
HETATM   11  O5  UNL     1      21.501   0.390  52.862  1.00  0.00    -0.310 OA
ENDROOT
BRANCH   8  12
HETATM   12  C8  UNL     1      26.139   1.225  52.010  1.00  0.00     0.293 C 
HETATM   13  O2  UNL     1      26.849   0.563  51.207  1.00  0.00    -0.262 OA
BRANCH  12  14
HETATM   14  O3  UNL     1      26.544   2.393  51.364  1.00  0.00    -0.319 OA
BRANCH  14  15
HETATM   15  C9  UNL     1      26.597   2.488  49.953  1.00  0.00     0.178 C 
BRANCH  15  16
HETATM   16  C10 UNL     1      26.144   3.882  49.499  1.00  0.00     0.027 C 
BRANCH  16  17
HETATM   17  C11 UNL     1      27.353   4.593  48.938  1.00  0.00     0.002 C 
BRANCH  17  18
HETATM   18  C12 UNL     1      27.092   6.009  48.526  1.00  0.00     0.000 C 
BRANCH  18  19
HETATM   19  C13 UNL     1      25.693   6.392  48.933  1.00  0.00    -0.000 C 
BRANCH  19  20
HETATM   20  C14 UNL     1      25.786   7.490  49.974  1.00  0.00    -0.005 C 
HETATM   21  C15 UNL     1      24.424   7.665  50.637  1.00  0.00     0.005 C 
ENDBRANCH  19  20
ENDBRANCH  18  19
ENDBRANCH  17  18
ENDBRANCH  16  17
ENDBRANCH  15  16
ENDBRANCH  14  15
ENDBRANCH  12  14
ENDBRANCH   8  12
BRANCH   9  22
HETATM   22  C17 UNL     1      23.363   2.173  51.800  1.00  0.00     0.009 A 
HETATM   23  C18 UNL     1      22.983   1.701  50.537  1.00  0.00     0.015 A 
HETATM   24  C19 UNL     1      22.542   2.547  49.535  1.00  0.00     0.001 A 
HETATM   25  C20 UNL     1      22.456   3.897  49.739  1.00  0.00     0.003 A 
HETATM   26  C21 UNL     1      22.818   4.390  50.959  1.00  0.00     0.037 A 
HETATM   27  C22 UNL     1      23.252   3.538  51.937  1.00  0.00     0.076 A 
BRANCH  27  28
HETATM   28  O4  UNL     1      23.601   4.088  53.143  1.00  0.00    -0.360 OA
HETATM   29  H26 UNL     1      24.441   4.685  53.132  1.00  0.00     0.217 HD
ENDBRANCH  27  28
ENDBRANCH   9  22
TORSDOF 10
ENDMDL
MODEL 5
REMARK VINA RESULT:      -7.3      2.510      5.246
REMARK  10 active torsions:
REMARK  status: ('A' for Active; 'I' for Inactive)
REMARK    1  A    between atoms: C7_8  and  C8_9 
REMARK    2  A    between atoms: C8_9  and  O3_11 
REMARK    3  A    between atoms: O3_11  and  C9_12 
REMARK    4  A    between atoms: C9_12  and  C10_13 
REMARK    5  A    between atoms: C10_13  and  C11_14 
REMARK    6  A    between atoms: C11_14  and  C12_15 
REMARK    7  A    between atoms: C12_15  and  C13_16 
REMARK    8  A    between atoms: C13_16  and  C14_17 
REMARK    9  A    between atoms: C16_19  and  C17_20 
REMARK   10  A    between atoms: C22_25  and  O4_26 
ROOT
HETATM    1  C1  UNL     1      28.553   2.383  53.687  1.00  0.00     0.051 C 
HETATM    2  C2  UNL     1      27.419   1.711  53.619  1.00  0.00     0.066 A 
HETATM    3  C3  UNL     1      27.310   0.485  54.403  1.00  0.00     0.037 A 
HETATM    4  C4  UNL     1      26.150  -0.138  54.290  1.00  0.00     0.019 A 
HETATM    5  C5  UNL     1      25.071   0.345  53.463  1.00  0.00     0.020 A 
HETATM    6  C6  UNL     1      23.922  -0.262  53.359  1.00  0.00     0.150 A 
HETATM    7  O1  UNL     1      22.827   0.096  52.612  1.00  0.00    -0.342 OA
HETATM    8  C7  UNL     1      22.864   1.249  51.811  1.00  0.00     0.264 A 
HETATM    9  C16 UNL     1      24.145   1.923  51.954  1.00  0.00     0.029 A 
HETATM   10  C23 UNL     1      25.190   1.570  52.684  1.00  0.00     0.098 A 
HETATM   11  O5  UNL     1      26.416   2.222  52.807  1.00  0.00    -0.310 OA
ENDROOT
BRANCH   8  12
HETATM   12  C8  UNL     1      21.692   2.131  52.021  1.00  0.00     0.293 C 
HETATM   13  O2  UNL     1      21.154   3.056  52.684  1.00  0.00    -0.262 OA
BRANCH  12  14
HETATM   14  O3  UNL     1      20.549   2.071  51.225  1.00  0.00    -0.319 OA
BRANCH  14  15
HETATM   15  C9  UNL     1      20.391   1.094  50.214  1.00  0.00     0.178 C 
BRANCH  15  16
HETATM   16  C10 UNL     1      20.461   1.749  48.829  1.00  0.00     0.027 C 
BRANCH  16  17
HETATM   17  C11 UNL     1      21.822   1.443  48.248  1.00  0.00     0.002 C 
BRANCH  17  18
HETATM   18  C12 UNL     1      22.312   2.465  47.269  1.00  0.00     0.000 C 
BRANCH  18  19
HETATM   19  C13 UNL     1      21.754   3.814  47.642  1.00  0.00    -0.000 C 
BRANCH  19  20
HETATM   20  C14 UNL     1      22.000   4.764  46.488  1.00  0.00    -0.005 C 
HETATM   21  C15 UNL     1      21.605   4.080  45.184  1.00  0.00     0.005 C 
ENDBRANCH  19  20
ENDBRANCH  18  19
ENDBRANCH  17  18
ENDBRANCH  16  17
ENDBRANCH  15  16
ENDBRANCH  14  15
ENDBRANCH  12  14
ENDBRANCH   8  12
BRANCH   9  22
HETATM   22  C17 UNL     1      24.326   3.172  51.225  1.00  0.00     0.009 A 
HETATM   23  C18 UNL     1      24.739   3.104  49.889  1.00  0.00     0.015 A 
HETATM   24  C19 UNL     1      24.929   4.237  49.116  1.00  0.00     0.001 A 
HETATM   25  C20 UNL     1      24.716   5.486  49.633  1.00  0.00     0.003 A 
HETATM   26  C21 UNL     1      24.313   5.587  50.933  1.00  0.00     0.037 A 
HETATM   27  C22 UNL     1      24.132   4.457  51.680  1.00  0.00     0.076 A 
BRANCH  27  28
HETATM   28  O4  UNL     1      23.725   4.617  52.979  1.00  0.00    -0.360 OA
HETATM   29  H26 UNL     1      24.006   3.868  53.629  1.00  0.00     0.217 HD
ENDBRANCH  27  28
ENDBRANCH   9  22
TORSDOF 10
ENDMDL
MODEL 6
REMARK VINA RESULT:      -7.3      3.254      5.621
REMARK  10 active torsions:
REMARK  status: ('A' for Active; 'I' for Inactive)
REMARK    1  A    between atoms: C7_8  and  C8_9 
REMARK    2  A    between atoms: C8_9  and  O3_11 
REMARK    3  A    between atoms: O3_11  and  C9_12 
REMARK    4  A    between atoms: C9_12  and  C10_13 
REMARK    5  A    between atoms: C10_13  and  C11_14 
REMARK    6  A    between atoms: C11_14  and  C12_15 
REMARK    7  A    between atoms: C12_15  and  C13_16 
REMARK    8  A    between atoms: C13_16  and  C14_17 
REMARK    9  A    between atoms: C16_19  and  C17_20 
REMARK   10  A    between atoms: C22_25  and  O4_26 
ROOT
HETATM    1  C1  UNL     1      26.771   0.063  52.199  1.00  0.00     0.051 C 
HETATM    2  C2  UNL     1      25.572  -0.025  52.744  1.00  0.00     0.066 A 
HETATM    3  C3  UNL     1      25.467  -0.662  54.052  1.00  0.00     0.037 A 
HETATM    4  C4  UNL     1      24.239  -0.716  54.540  1.00  0.00     0.019 A 
HETATM    5  C5  UNL     1      23.089  -0.191  53.845  1.00  0.00     0.020 A 
HETATM    6  C6  UNL     1      21.879  -0.234  54.328  1.00  0.00     0.150 A 
HETATM    7  O1  UNL     1      20.714   0.228  53.767  1.00  0.00    -0.342 OA
HETATM    8  C7  UNL     1      20.731   0.830  52.498  1.00  0.00     0.264 A 
HETATM    9  C16 UNL     1      22.090   0.886  51.982  1.00  0.00     0.029 A 
HETATM   10  C23 UNL     1      23.205   0.443  52.538  1.00  0.00     0.098 A 
HETATM   11  O5  UNL     1      24.502   0.497  52.029  1.00  0.00    -0.310 OA
ENDROOT
BRANCH   8  12
HETATM   12  C8  UNL     1      20.022   2.131  52.472  1.00  0.00     0.293 C 
HETATM   13  O2  UNL     1      20.018   3.354  52.770  1.00  0.00    -0.262 OA
BRANCH  12  14
HETATM   14  O3  UNL     1      18.761   2.294  51.898  1.00  0.00    -0.319 OA
BRANCH  14  15
HETATM   15  C9  UNL     1      18.455   3.396  51.065  1.00  0.00     0.178 C 
BRANCH  15  16
HETATM   16  C10 UNL     1      18.534   2.982  49.590  1.00  0.00     0.027 C 
BRANCH  16  17
HETATM   17  C11 UNL     1      19.195   4.112  48.834  1.00  0.00     0.002 C 
BRANCH  17  18
HETATM   18  C12 UNL     1      20.010   5.028  49.694  1.00  0.00     0.000 C 
BRANCH  18  19
HETATM   19  C13 UNL     1      20.600   6.116  48.835  1.00  0.00    -0.000 C 
BRANCH  19  20
HETATM   20  C14 UNL     1      21.731   6.767  49.605  1.00  0.00    -0.005 C 
HETATM   21  C15 UNL     1      21.715   6.258  51.042  1.00  0.00     0.005 C 
ENDBRANCH  19  20
ENDBRANCH  18  19
ENDBRANCH  17  18
ENDBRANCH  16  17
ENDBRANCH  15  16
ENDBRANCH  14  15
ENDBRANCH  12  14
ENDBRANCH   8  12
BRANCH   9  22
HETATM   22  C17 UNL     1      22.286   1.533  50.692  1.00  0.00     0.009 A 
HETATM   23  C18 UNL     1      21.697   0.950  49.563  1.00  0.00     0.015 A 
HETATM   24  C19 UNL     1      21.823   1.498  48.298  1.00  0.00     0.001 A 
HETATM   25  C20 UNL     1      22.537   2.648  48.096  1.00  0.00     0.003 A 
HETATM   26  C21 UNL     1      23.124   3.242  49.176  1.00  0.00     0.037 A 
HETATM   27  C22 UNL     1      22.989   2.685  50.417  1.00  0.00     0.076 A 
BRANCH  27  28
HETATM   28  O4  UNL     1      23.599   3.324  51.465  1.00  0.00    -0.360 OA
HETATM   29  H26 UNL     1      23.598   4.353  51.419  1.00  0.00     0.217 HD
ENDBRANCH  27  28
ENDBRANCH   9  22
TORSDOF 10
ENDMDL
MODEL 7
REMARK VINA RESULT:      -7.2      2.283      7.864
REMARK  10 active torsions:
REMARK  status: ('A' for Active; 'I' for Inactive)
REMARK    1  A    between atoms: C7_8  and  C8_9 
REMARK    2  A    between atoms: C8_9  and  O3_11 
REMARK    3  A    between atoms: O3_11  and  C9_12 
REMARK    4  A    between atoms: C9_12  and  C10_13 
REMARK    5  A    between atoms: C10_13  and  C11_14 
REMARK    6  A    between atoms: C11_14  and  C12_15 
REMARK    7  A    between atoms: C12_15  and  C13_16 
REMARK    8  A    between atoms: C13_16  and  C14_17 
REMARK    9  A    between atoms: C16_19  and  C17_20 
REMARK   10  A    between atoms: C22_25  and  O4_26 
ROOT
HETATM    1  C1  UNL     1      26.913   8.338  47.615  1.00  0.00     0.051 C 
HETATM    2  C2  UNL     1      26.884   7.115  48.109  1.00  0.00     0.066 A 
HETATM    3  C3  UNL     1      28.102   6.318  48.017  1.00  0.00     0.037 A 
HETATM    4  C4  UNL     1      28.005   5.103  48.531  1.00  0.00     0.019 A 
HETATM    5  C5  UNL     1      26.797   4.597  49.136  1.00  0.00     0.020 A 
HETATM    6  C6  UNL     1      26.702   3.404  49.653  1.00  0.00     0.150 A 
HETATM    7  O1  UNL     1      25.617   2.812  50.253  1.00  0.00    -0.342 OA
HETATM    8  C7  UNL     1      24.401   3.507  50.355  1.00  0.00     0.264 A 
HETATM    9  C16 UNL     1      24.531   4.841  49.791  1.00  0.00     0.029 A 
HETATM   10  C23 UNL     1      25.585   5.400  49.222  1.00  0.00     0.098 A 
HETATM   11  O5  UNL     1      25.695   6.680  48.679  1.00  0.00    -0.310 OA
ENDROOT
BRANCH   8  12
HETATM   12  C8  UNL     1      23.843   3.484  51.728  1.00  0.00     0.293 C 
HETATM   13  O2  UNL     1      23.845   3.963  52.893  1.00  0.00    -0.262 OA
BRANCH  12  14
HETATM   14  O3  UNL     1      22.840   2.599  52.122  1.00  0.00    -0.319 OA
BRANCH  14  15
HETATM   15  C9  UNL     1      22.340   1.600  51.253  1.00  0.00     0.178 C 
BRANCH  15  16
HETATM   16  C10 UNL     1      21.762   0.433  52.064  1.00  0.00     0.027 C 
BRANCH  16  17
HETATM   17  C11 UNL     1      22.507   0.379  53.378  1.00  0.00     0.002 C 
BRANCH  17  18
HETATM   18  C12 UNL     1      23.592  -0.652  53.423  1.00  0.00     0.000 C 
BRANCH  18  19
HETATM   19  C13 UNL     1      24.903   0.023  53.731  1.00  0.00    -0.000 C 
BRANCH  19  20
HETATM   20  C14 UNL     1      25.653   0.218  52.430  1.00  0.00    -0.005 C 
HETATM   21  C15 UNL     1      27.034  -0.419  52.548  1.00  0.00     0.005 C 
ENDBRANCH  19  20
ENDBRANCH  18  19
ENDBRANCH  17  18
ENDBRANCH  16  17
ENDBRANCH  15  16
ENDBRANCH  14  15
ENDBRANCH  12  14
ENDBRANCH   8  12
BRANCH   9  22
HETATM   22  C17 UNL     1      23.366   5.713  49.868  1.00  0.00     0.009 A 
HETATM   23  C18 UNL     1      22.354   5.550  48.914  1.00  0.00     0.015 A 
HETATM   24  C19 UNL     1      21.208   6.327  48.913  1.00  0.00     0.001 A 
HETATM   25  C20 UNL     1      21.014   7.298  49.858  1.00  0.00     0.003 A 
HETATM   26  C21 UNL     1      21.982   7.482  50.802  1.00  0.00     0.037 A 
HETATM   27  C22 UNL     1      23.106   6.705  50.786  1.00  0.00     0.076 A 
BRANCH  27  28
HETATM   28  O4  UNL     1      24.045   6.934  51.759  1.00  0.00    -0.360 OA
HETATM   29  H26 UNL     1      24.686   7.721  51.582  1.00  0.00     0.217 HD
ENDBRANCH  27  28
ENDBRANCH   9  22
TORSDOF 10
ENDMDL
MODEL 8
REMARK VINA RESULT:      -7.2      2.772      8.328
REMARK  10 active torsions:
REMARK  status: ('A' for Active; 'I' for Inactive)
REMARK    1  A    between atoms: C7_8  and  C8_9 
REMARK    2  A    between atoms: C8_9  and  O3_11 
REMARK    3  A    between atoms: O3_11  and  C9_12 
REMARK    4  A    between atoms: C9_12  and  C10_13 
REMARK    5  A    between atoms: C10_13  and  C11_14 
REMARK    6  A    between atoms: C11_14  and  C12_15 
REMARK    7  A    between atoms: C12_15  and  C13_16 
REMARK    8  A    between atoms: C13_16  and  C14_17 
REMARK    9  A    between atoms: C16_19  and  C17_20 
REMARK   10  A    between atoms: C22_25  and  O4_26 
ROOT
HETATM    1  C1  UNL     1      28.349   2.415  53.505  1.00  0.00     0.051 C 
HETATM    2  C2  UNL     1      27.257   1.675  53.525  1.00  0.00     0.066 A 
HETATM    3  C3  UNL     1      27.281   0.453  54.321  1.00  0.00     0.037 A 
HETATM    4  C4  UNL     1      26.155  -0.241  54.297  1.00  0.00     0.019 A 
HETATM    5  C5  UNL     1      24.991   0.168  53.550  1.00  0.00     0.020 A 
HETATM    6  C6  UNL     1      23.876  -0.508  53.534  1.00  0.00     0.150 A 
HETATM    7  O1  UNL     1      22.710  -0.224  52.868  1.00  0.00    -0.342 OA
HETATM    8  C7  UNL     1      22.617   0.921  52.061  1.00  0.00     0.264 A 
HETATM    9  C16 UNL     1      23.862   1.673  52.106  1.00  0.00     0.029 A 
HETATM   10  C23 UNL     1      24.977   1.391  52.758  1.00  0.00     0.098 A 
HETATM   11  O5  UNL     1      26.167   2.117  52.787  1.00  0.00    -0.310 OA
ENDROOT
BRANCH   8  12
HETATM   12  C8  UNL     1      21.413   1.733  52.354  1.00  0.00     0.293 C 
HETATM   13  O2  UNL     1      20.898   2.873  52.494  1.00  0.00    -0.262 OA
BRANCH  12  14
HETATM   14  O3  UNL     1      20.168   1.166  52.628  1.00  0.00    -0.319 OA
BRANCH  14  15
HETATM   15  C9  UNL     1      19.464   0.405  51.666  1.00  0.00     0.178 C 
BRANCH  15  16
HETATM   16  C10 UNL     1      18.085   0.008  52.210  1.00  0.00     0.027 C 
BRANCH  16  17
HETATM   17  C11 UNL     1      18.257  -1.267  53.002  1.00  0.00     0.002 C 
BRANCH  17  18
HETATM   18  C12 UNL     1      17.113  -2.225  52.874  1.00  0.00     0.000 C 
BRANCH  18  19
HETATM   19  C13 UNL     1      17.369  -3.420  53.755  1.00  0.00    -0.000 C 
BRANCH  19  20
HETATM   20  C14 UNL     1      16.515  -4.568  53.256  1.00  0.00    -0.005 C 
HETATM   21  C15 UNL     1      15.970  -5.342  54.452  1.00  0.00     0.005 C 
ENDBRANCH  19  20
ENDBRANCH  18  19
ENDBRANCH  17  18
ENDBRANCH  16  17
ENDBRANCH  15  16
ENDBRANCH  14  15
ENDBRANCH  12  14
ENDBRANCH   8  12
BRANCH   9  22
HETATM   22  C17 UNL     1      23.912   2.924  51.360  1.00  0.00     0.009 A 
HETATM   23  C18 UNL     1      23.883   2.861  49.961  1.00  0.00     0.015 A 
HETATM   24  C19 UNL     1      23.918   3.996  49.170  1.00  0.00     0.001 A 
HETATM   25  C20 UNL     1      23.982   5.244  49.730  1.00  0.00     0.003 A 
HETATM   26  C21 UNL     1      24.011   5.340  51.091  1.00  0.00     0.037 A 
HETATM   27  C22 UNL     1      23.976   4.207  51.855  1.00  0.00     0.076 A 
BRANCH  27  28
HETATM   28  O4  UNL     1      24.007   4.363  53.216  1.00  0.00    -0.360 OA
HETATM   29  H26 UNL     1      23.194   3.986  53.726  1.00  0.00     0.217 HD
ENDBRANCH  27  28
ENDBRANCH   9  22
TORSDOF 10
ENDMDL
MODEL 9
REMARK VINA RESULT:      -7.1      1.954      7.899
REMARK  10 active torsions:
REMARK  status: ('A' for Active; 'I' for Inactive)
REMARK    1  A    between atoms: C7_8  and  C8_9 
REMARK    2  A    between atoms: C8_9  and  O3_11 
REMARK    3  A    between atoms: O3_11  and  C9_12 
REMARK    4  A    between atoms: C9_12  and  C10_13 
REMARK    5  A    between atoms: C10_13  and  C11_14 
REMARK    6  A    between atoms: C11_14  and  C12_15 
REMARK    7  A    between atoms: C12_15  and  C13_16 
REMARK    8  A    between atoms: C13_16  and  C14_17 
REMARK    9  A    between atoms: C16_19  and  C17_20 
REMARK   10  A    between atoms: C22_25  and  O4_26 
ROOT
HETATM    1  C1  UNL     1      22.999   7.072  47.981  1.00  0.00     0.051 C 
HETATM    2  C2  UNL     1      24.017   6.357  48.420  1.00  0.00     0.066 A 
HETATM    3  C3  UNL     1      25.361   6.824  48.101  1.00  0.00     0.037 A 
HETATM    4  C4  UNL     1      26.334   6.061  48.570  1.00  0.00     0.019 A 
HETATM    5  C5  UNL     1      26.098   4.863  49.339  1.00  0.00     0.020 A 
HETATM    6  C6  UNL     1      27.055   4.116  49.813  1.00  0.00     0.150 A 
HETATM    7  O1  UNL     1      26.958   2.963  50.552  1.00  0.00    -0.342 OA
HETATM    8  C7  UNL     1      25.697   2.437  50.878  1.00  0.00     0.264 A 
HETATM    9  C16 UNL     1      24.642   3.292  50.358  1.00  0.00     0.029 A 
HETATM   10  C23 UNL     1      24.750   4.405  49.652  1.00  0.00     0.098 A 
HETATM   11  O5  UNL     1      23.729   5.213  49.154  1.00  0.00    -0.310 OA
ENDROOT
BRANCH   8  12
HETATM   12  C8  UNL     1      25.563   2.122  52.319  1.00  0.00     0.293 C 
HETATM   13  O2  UNL     1      25.527   2.538  53.507  1.00  0.00    -0.262 OA
BRANCH  12  14
HETATM   14  O3  UNL     1      25.385   0.824  52.797  1.00  0.00    -0.319 OA
BRANCH  14  15
HETATM   15  C9  UNL     1      24.252   0.456  53.560  1.00  0.00     0.178 C 
BRANCH  15  16
HETATM   16  C10 UNL     1      23.240  -0.290  52.680  1.00  0.00     0.027 C 
BRANCH  16  17
HETATM   17  C11 UNL     1      22.363  -1.115  53.592  1.00  0.00     0.002 C 
BRANCH  17  18
HETATM   18  C12 UNL     1      21.699  -0.327  54.679  1.00  0.00     0.000 C 
BRANCH  18  19
HETATM   19  C13 UNL     1      20.336   0.111  54.209  1.00  0.00    -0.000 C 
BRANCH  19  20
HETATM   20  C14 UNL     1      19.660  -1.072  53.547  1.00  0.00    -0.005 C 
HETATM   21  C15 UNL     1      18.511  -0.569  52.679  1.00  0.00     0.005 C 
ENDBRANCH  19  20
ENDBRANCH  18  19
ENDBRANCH  17  18
ENDBRANCH  16  17
ENDBRANCH  15  16
ENDBRANCH  14  15
ENDBRANCH  12  14
ENDBRANCH   8  12
BRANCH   9  22
HETATM   22  C17 UNL     1      23.268   2.912  50.658  1.00  0.00     0.009 A 
HETATM   23  C18 UNL     1      22.645   1.973  49.826  1.00  0.00     0.015 A 
HETATM   24  C19 UNL     1      21.345   1.546  50.038  1.00  0.00     0.001 A 
HETATM   25  C20 UNL     1      20.606   2.029  51.083  1.00  0.00     0.003 A 
HETATM   26  C21 UNL     1      21.184   2.945  51.913  1.00  0.00     0.037 A 
HETATM   27  C22 UNL     1      22.468   3.355  51.687  1.00  0.00     0.076 A 
BRANCH  27  28
HETATM   28  O4  UNL     1      22.998   4.277  52.552  1.00  0.00    -0.360 OA
HETATM   29  H26 UNL     1      24.019   4.230  52.681  1.00  0.00     0.217 HD
ENDBRANCH  27  28
ENDBRANCH   9  22
TORSDOF 10
ENDMDL
