MODEL 1
REMARK VINA RESULT:      -7.1      0.000      0.000
REMARK  10 active torsions:
REMARK  status: ('A' for Active; 'I' for Inactive)
REMARK    1  A    between atoms: C6_6  and  N1_7 
REMARK    2  A    between atoms: N1_7  and  C7_8 
REMARK    3  A    between atoms: C11_14  and  O1_15 
REMARK    4  A    between atoms: O1_15  and  C12_16 
REMARK    5  A    between atoms: C12_16  and  C13_17 
REMARK    6  A    between atoms: C13_17  and  O2_18 
REMARK    7  A    between atoms: C15_20  and  O3_21 
REMARK    8  A    between atoms: O3_21  and  C16_22 
REMARK    9  A    between atoms: C16_22  and  C17_23 
REMARK   10  A    between atoms: C17_23  and  O4_24 
ROOT
HETATM    1  C1  UNL     1      28.992  -2.497  53.183  1.00  0.00     0.018 C 
HETATM    2  C2  UNL     1      28.682  -1.324  53.254  1.00  0.00    -0.078 C 
HETATM    3  C3  UNL     1      28.314   0.068  53.329  1.00  0.00     0.015 A 
HETATM    4  C4  UNL     1      29.070   1.123  53.575  1.00  0.00    -0.000 A 
HETATM    5  C5  UNL     1      28.305   2.388  53.564  1.00  0.00     0.085 A 
HETATM    6  C6  UNL     1      26.915   1.912  53.259  1.00  0.00     0.015 A 
HETATM    7  C21 UNL     1      26.968   0.582  53.134  1.00  0.00     0.045 A 
ENDROOT
BRANCH   6   8
HETATM    8  N1  UNL     1      25.727   2.712  53.121  1.00  0.00    -0.343 N 
HETATM    9  H5  UNL     1      25.374   3.170  53.987  1.00  0.00     0.167 HD
BRANCH   8  10
HETATM   10  C7  UNL     1      25.164   2.790  51.822  1.00  0.00     0.141 A 
HETATM   11  N2  UNL     1      25.811   3.412  50.847  1.00  0.00    -0.224 NA
HETATM   12  C8  UNL     1      25.308   3.505  49.603  1.00  0.00     0.236 A 
HETATM   13  N3  UNL     1      24.108   2.970  49.265  1.00  0.00    -0.241 NA
HETATM   14  C9  UNL     1      23.395   2.321  50.207  1.00  0.00     0.075 A 
HETATM   15  C10 UNL     1      22.169   1.752  49.937  1.00  0.00     0.072 A 
HETATM   16  C20 UNL     1      23.949   2.250  51.468  1.00  0.00     0.042 A 
HETATM   17  C11 UNL     1      21.445   1.097  50.883  1.00  0.00     0.104 A 
HETATM   18  C15 UNL     1      21.977   1.013  52.151  1.00  0.00     0.103 A 
HETATM   19  C19 UNL     1      23.207   1.584  52.420  1.00  0.00     0.057 A 
BRANCH  17  20
HETATM   20  O1  UNL     1      20.226   0.524  50.642  1.00  0.00    -0.346 OA
BRANCH  20  21
HETATM   21  C12 UNL     1      19.061   1.174  50.237  1.00  0.00     0.201 C 
BRANCH  21  22
HETATM   22  C13 UNL     1      17.914   0.496  50.997  1.00  0.00     0.193 C 
BRANCH  22  23
HETATM   23  O2  UNL     1      18.340  -0.586  51.737  1.00  0.00    -0.394 OA
HETATM   24  C14 UNL     1      17.476  -0.943  52.746  1.00  0.00     0.201 C 
ENDBRANCH  22  23
ENDBRANCH  21  22
ENDBRANCH  20  21
ENDBRANCH  17  20
BRANCH  18  25
HETATM   25  O3  UNL     1      21.253   0.345  53.140  1.00  0.00    -0.346 OA
BRANCH  25  26
HETATM   26  C16 UNL     1      21.747  -0.932  53.587  1.00  0.00     0.201 C 
BRANCH  26  27
HETATM   27  C17 UNL     1      21.898  -0.955  55.070  1.00  0.00     0.193 C 
BRANCH  27  28
HETATM   28  O4  UNL     1      22.859  -1.827  55.534  1.00  0.00    -0.394 OA
HETATM   29  C18 UNL     1      24.145  -1.306  55.534  1.00  0.00     0.201 C 
ENDBRANCH  27  28
ENDBRANCH  26  27
ENDBRANCH  25  26
ENDBRANCH  18  25
ENDBRANCH   8  10
ENDBRANCH   6   8
TORSDOF 10
ENDMDL
MODEL 2
REMARK VINA RESULT:      -7.0      2.739      5.247
REMARK  10 active torsions:
REMARK  status: ('A' for Active; 'I' for Inactive)
REMARK    1  A    between atoms: C6_6  and  N1_7 
REMARK    2  A    between atoms: N1_7  and  C7_8 
REMARK    3  A    between atoms: C11_14  and  O1_15 
REMARK    4  A    between atoms: O1_15  and  C12_16 
REMARK    5  A    between atoms: C12_16  and  C13_17 
REMARK    6  A    between atoms: C13_17  and  O2_18 
REMARK    7  A    between atoms: C15_20  and  O3_21 
REMARK    8  A    between atoms: O3_21  and  C16_22 
REMARK    9  A    between atoms: C16_22  and  C17_23 
REMARK   10  A    between atoms: C17_23  and  O4_24 
ROOT
HETATM    1  C1  UNL     1      28.865   8.123  46.793  1.00  0.00     0.018 C 
HETATM    2  C2  UNL     1      28.293   7.282  47.458  1.00  0.00    -0.078 C 
HETATM    3  C3  UNL     1      27.619   6.288  48.255  1.00  0.00     0.015 A 
HETATM    4  C4  UNL     1      27.921   5.015  48.440  1.00  0.00    -0.000 A 
HETATM    5  C5  UNL     1      26.969   4.327  49.339  1.00  0.00     0.085 A 
HETATM    6  C6  UNL     1      26.010   5.429  49.683  1.00  0.00     0.015 A 
HETATM    7  C21 UNL     1      26.419   6.529  49.042  1.00  0.00     0.045 A 
ENDROOT
BRANCH   6   8
HETATM    8  N1  UNL     1      24.856   5.348  50.538  1.00  0.00    -0.343 N 
HETATM    9  H5  UNL     1      24.789   6.060  51.295  1.00  0.00     0.167 HD
BRANCH   8  10
HETATM   10  C7  UNL     1      23.933   4.308  50.258  1.00  0.00     0.141 A 
HETATM   11  N2  UNL     1      23.142   4.380  49.198  1.00  0.00    -0.224 NA
HETATM   12  C8  UNL     1      22.256   3.413  48.901  1.00  0.00     0.236 A 
HETATM   13  N3  UNL     1      22.114   2.302  49.667  1.00  0.00    -0.241 NA
HETATM   14  C9  UNL     1      22.887   2.161  50.762  1.00  0.00     0.075 A 
HETATM   15  C10 UNL     1      22.799   1.060  51.587  1.00  0.00     0.072 A 
HETATM   16  C20 UNL     1      23.781   3.178  51.028  1.00  0.00     0.042 A 
HETATM   17  C11 UNL     1      23.576   0.913  52.693  1.00  0.00     0.104 A 
HETATM   18  C15 UNL     1      24.477   1.915  52.980  1.00  0.00     0.103 A 
HETATM   19  C19 UNL     1      24.565   3.019  52.151  1.00  0.00     0.057 A 
BRANCH  17  20
HETATM   20  O1  UNL     1      23.508  -0.169  53.528  1.00  0.00    -0.346 OA
BRANCH  20  21
HETATM   21  C12 UNL     1      22.635  -1.251  53.425  1.00  0.00     0.201 C 
BRANCH  21  22
HETATM   22  C13 UNL     1      21.603  -1.067  54.545  1.00  0.00     0.193 C 
BRANCH  22  23
HETATM   23  O2  UNL     1      20.334  -1.441  54.157  1.00  0.00    -0.394 OA
HETATM   24  C14 UNL     1      19.681  -0.490  53.408  1.00  0.00     0.201 C 
ENDBRANCH  22  23
ENDBRANCH  21  22
ENDBRANCH  20  21
ENDBRANCH  17  20
BRANCH  18  25
HETATM   25  O3  UNL     1      25.286   1.788  54.110  1.00  0.00    -0.346 OA
BRANCH  25  26
HETATM   26  C16 UNL     1      26.636   1.323  53.919  1.00  0.00     0.201 C 
BRANCH  26  27
HETATM   27  C17 UNL     1      26.889   0.085  54.712  1.00  0.00     0.193 C 
BRANCH  27  28
HETATM   28  O4  UNL     1      28.221  -0.184  54.944  1.00  0.00    -0.394 OA
HETATM   29  C18 UNL     1      29.088   0.439  54.059  1.00  0.00     0.201 C 
ENDBRANCH  27  28
ENDBRANCH  26  27
ENDBRANCH  25  26
ENDBRANCH  18  25
ENDBRANCH   8  10
ENDBRANCH   6   8
TORSDOF 10
ENDMDL
MODEL 3
REMARK VINA RESULT:      -6.8      2.444      4.406
REMARK  10 active torsions:
REMARK  status: ('A' for Active; 'I' for Inactive)
REMARK    1  A    between atoms: C6_6  and  N1_7 
REMARK    2  A    between atoms: N1_7  and  C7_8 
REMARK    3  A    between atoms: C11_14  and  O1_15 
REMARK    4  A    between atoms: O1_15  and  C12_16 
REMARK    5  A    between atoms: C12_16  and  C13_17 
REMARK    6  A    between atoms: C13_17  and  O2_18 
REMARK    7  A    between atoms: C15_20  and  O3_21 
REMARK    8  A    between atoms: O3_21  and  C16_22 
REMARK    9  A    between atoms: C16_22  and  C17_23 
REMARK   10  A    between atoms: C17_23  and  O4_24 
ROOT
HETATM    1  C1  UNL     1      29.905  -1.380  53.446  1.00  0.00     0.018 C 
HETATM    2  C2  UNL     1      28.881  -0.726  53.417  1.00  0.00    -0.078 C 
HETATM    3  C3  UNL     1      27.669   0.053  53.372  1.00  0.00     0.015 A 
HETATM    4  C4  UNL     1      27.433   1.265  53.843  1.00  0.00    -0.000 A 
HETATM    5  C5  UNL     1      26.047   1.714  53.593  1.00  0.00     0.085 A 
HETATM    6  C6  UNL     1      25.461   0.538  52.867  1.00  0.00     0.015 A 
HETATM    7  C21 UNL     1      26.422  -0.386  52.765  1.00  0.00     0.045 A 
ENDROOT
BRANCH   6   8
HETATM    8  N1  UNL     1      24.120   0.399  52.365  1.00  0.00    -0.343 N 
HETATM    9  H5  UNL     1      23.945   0.762  51.405  1.00  0.00     0.167 HD
BRANCH   8  10
HETATM   10  C7  UNL     1      23.181  -0.216  53.232  1.00  0.00     0.141 A 
HETATM   11  N2  UNL     1      23.582  -0.783  54.361  1.00  0.00    -0.224 NA
HETATM   12  C8  UNL     1      22.720  -1.376  55.206  1.00  0.00     0.236 A 
HETATM   13  N3  UNL     1      21.387  -1.432  54.959  1.00  0.00    -0.241 NA
HETATM   14  C9  UNL     1      20.909  -0.875  53.829  1.00  0.00     0.075 A 
HETATM   15  C10 UNL     1      19.567  -0.894  53.513  1.00  0.00     0.072 A 
HETATM   16  C20 UNL     1      21.828  -0.279  52.992  1.00  0.00     0.042 A 
HETATM   17  C11 UNL     1      19.079  -0.334  52.374  1.00  0.00     0.104 A 
HETATM   18  C15 UNL     1      19.978   0.268  51.520  1.00  0.00     0.103 A 
HETATM   19  C19 UNL     1      21.323   0.286  51.840  1.00  0.00     0.057 A 
BRANCH  17  20
HETATM   20  O1  UNL     1      17.753  -0.338  52.036  1.00  0.00    -0.346 OA
BRANCH  20  21
HETATM   21  C12 UNL     1      16.759  -1.163  52.561  1.00  0.00     0.201 C 
BRANCH  21  22
HETATM   22  C13 UNL     1      15.508  -0.284  52.692  1.00  0.00     0.193 C 
BRANCH  22  23
HETATM   23  O2  UNL     1      14.351  -1.028  52.776  1.00  0.00    -0.394 OA
HETATM   24  C14 UNL     1      14.085  -1.770  51.648  1.00  0.00     0.201 C 
ENDBRANCH  22  23
ENDBRANCH  21  22
ENDBRANCH  20  21
ENDBRANCH  17  20
BRANCH  18  25
HETATM   25  O3  UNL     1      19.501   0.850  50.345  1.00  0.00    -0.346 OA
BRANCH  25  26
HETATM   26  C16 UNL     1      19.662   2.273  50.188  1.00  0.00     0.201 C 
BRANCH  26  27
HETATM   27  C17 UNL     1      18.631   3.014  50.971  1.00  0.00     0.193 C 
BRANCH  27  28
HETATM   28  O4  UNL     1      19.142   3.903  51.893  1.00  0.00    -0.394 OA
HETATM   29  C18 UNL     1      20.524   3.874  52.003  1.00  0.00     0.201 C 
ENDBRANCH  27  28
ENDBRANCH  26  27
ENDBRANCH  25  26
ENDBRANCH  18  25
ENDBRANCH   8  10
ENDBRANCH   6   8
TORSDOF 10
ENDMDL
MODEL 4
REMARK VINA RESULT:      -6.4      3.426      7.862
REMARK  10 active torsions:
REMARK  status: ('A' for Active; 'I' for Inactive)
REMARK    1  A    between atoms: C6_6  and  N1_7 
REMARK    2  A    between atoms: N1_7  and  C7_8 
REMARK    3  A    between atoms: C11_14  and  O1_15 
REMARK    4  A    between atoms: O1_15  and  C12_16 
REMARK    5  A    between atoms: C12_16  and  C13_17 
REMARK    6  A    between atoms: C13_17  and  O2_18 
REMARK    7  A    between atoms: C15_20  and  O3_21 
REMARK    8  A    between atoms: O3_21  and  C16_22 
REMARK    9  A    between atoms: C16_22  and  C17_23 
REMARK   10  A    between atoms: C17_23  and  O4_24 
ROOT
HETATM    1  C1  UNL     1      21.930   4.705  45.555  1.00  0.00     0.018 C 
HETATM    2  C2  UNL     1      21.860   3.949  46.504  1.00  0.00    -0.078 C 
HETATM    3  C3  UNL     1      21.788   3.053  47.631  1.00  0.00     0.015 A 
HETATM    4  C4  UNL     1      21.840   1.733  47.658  1.00  0.00    -0.000 A 
HETATM    5  C5  UNL     1      21.729   1.185  49.027  1.00  0.00     0.085 A 
HETATM    6  C6  UNL     1      21.599   2.431  49.854  1.00  0.00     0.015 A 
HETATM    7  C21 UNL     1      21.636   3.472  49.016  1.00  0.00     0.045 A 
ENDROOT
BRANCH   6   8
HETATM    8  N1  UNL     1      21.457   2.521  51.283  1.00  0.00    -0.343 N 
HETATM    9  H5  UNL     1      20.947   3.353  51.647  1.00  0.00     0.167 HD
BRANCH   8  10
HETATM   10  C7  UNL     1      22.026   1.467  52.042  1.00  0.00     0.141 A 
HETATM   11  N2  UNL     1      21.250   0.563  52.622  1.00  0.00    -0.224 NA
HETATM   12  C8  UNL     1      21.755  -0.450  53.349  1.00  0.00     0.236 A 
HETATM   13  N3  UNL     1      23.089  -0.611  53.537  1.00  0.00    -0.241 NA
HETATM   14  C9  UNL     1      23.938   0.272  52.975  1.00  0.00     0.075 A 
HETATM   15  C10 UNL     1      25.306   0.170  53.122  1.00  0.00     0.072 A 
HETATM   16  C20 UNL     1      23.377   1.294  52.239  1.00  0.00     0.042 A 
HETATM   17  C11 UNL     1      26.167   1.059  52.558  1.00  0.00     0.104 A 
HETATM   18  C15 UNL     1      25.630   2.089  51.817  1.00  0.00     0.103 A 
HETATM   19  C19 UNL     1      24.258   2.188  51.671  1.00  0.00     0.057 A 
BRANCH  17  20
HETATM   20  O1  UNL     1      27.527   0.982  52.688  1.00  0.00    -0.346 OA
BRANCH  20  21
HETATM   21  C12 UNL     1      28.303   1.547  53.698  1.00  0.00     0.201 C 
BRANCH  21  22
HETATM   22  C13 UNL     1      28.565   0.424  54.709  1.00  0.00     0.193 C 
BRANCH  22  23
HETATM   23  O2  UNL     1      28.701  -0.807  54.103  1.00  0.00    -0.394 OA
HETATM   24  C14 UNL     1      29.987  -1.091  53.707  1.00  0.00     0.201 C 
ENDBRANCH  22  23
ENDBRANCH  21  22
ENDBRANCH  20  21
ENDBRANCH  17  20
BRANCH  18  25
HETATM   25  O3  UNL     1      26.494   3.013  51.228  1.00  0.00    -0.346 OA
BRANCH  25  26
HETATM   26  C16 UNL     1      26.537   3.069  49.790  1.00  0.00     0.201 C 
BRANCH  26  27
HETATM   27  C17 UNL     1      26.058   4.391  49.293  1.00  0.00     0.193 C 
BRANCH  27  28
HETATM   28  O4  UNL     1      25.488   5.193  50.259  1.00  0.00    -0.394 OA
HETATM   29  C18 UNL     1      25.676   6.551  50.053  1.00  0.00     0.201 C 
ENDBRANCH  27  28
ENDBRANCH  26  27
ENDBRANCH  25  26
ENDBRANCH  18  25
ENDBRANCH   8  10
ENDBRANCH   6   8
TORSDOF 10
ENDMDL
MODEL 5
REMARK VINA RESULT:      -6.4      3.334      8.267
REMARK  10 active torsions:
REMARK  status: ('A' for Active; 'I' for Inactive)
REMARK    1  A    between atoms: C6_6  and  N1_7 
REMARK    2  A    between atoms: N1_7  and  C7_8 
REMARK    3  A    between atoms: C11_14  and  O1_15 
REMARK    4  A    between atoms: O1_15  and  C12_16 
REMARK    5  A    between atoms: C12_16  and  C13_17 
REMARK    6  A    between atoms: C13_17  and  O2_18 
REMARK    7  A    between atoms: C15_20  and  O3_21 
REMARK    8  A    between atoms: O3_21  and  C16_22 
REMARK    9  A    between atoms: C16_22  and  C17_23 
REMARK   10  A    between atoms: C17_23  and  O4_24 
ROOT
HETATM    1  C1  UNL     1      16.134   2.250  51.067  1.00  0.00     0.018 C 
HETATM    2  C2  UNL     1      17.335   2.240  51.253  1.00  0.00    -0.078 C 
HETATM    3  C3  UNL     1      18.758   2.222  51.483  1.00  0.00     0.015 A 
HETATM    4  C4  UNL     1      19.544   3.177  51.949  1.00  0.00    -0.000 A 
HETATM    5  C5  UNL     1      20.959   2.758  52.036  1.00  0.00     0.085 A 
HETATM    6  C6  UNL     1      20.901   1.346  51.531  1.00  0.00     0.015 A 
HETATM    7  C21 UNL     1      19.626   1.084  51.227  1.00  0.00     0.045 A 
ENDROOT
BRANCH   6   8
HETATM    8  N1  UNL     1      21.995   0.423  51.388  1.00  0.00    -0.343 N 
HETATM    9  H5  UNL     1      22.279   0.187  50.415  1.00  0.00     0.167 HD
BRANCH   8  10
HETATM   10  C7  UNL     1      22.568  -0.068  52.589  1.00  0.00     0.141 A 
HETATM   11  N2  UNL     1      21.876  -0.872  53.383  1.00  0.00    -0.224 NA
HETATM   12  C8  UNL     1      22.388  -1.357  54.529  1.00  0.00     0.236 A 
HETATM   13  N3  UNL     1      23.643  -1.054  54.946  1.00  0.00    -0.241 NA
HETATM   14  C9  UNL     1      24.405  -0.242  54.187  1.00  0.00     0.075 A 
HETATM   15  C10 UNL     1      25.689   0.108  54.547  1.00  0.00     0.072 A 
HETATM   16  C20 UNL     1      23.840   0.231  53.021  1.00  0.00     0.042 A 
HETATM   17  C11 UNL     1      26.461   0.928  53.786  1.00  0.00     0.104 A 
HETATM   18  C15 UNL     1      25.919   1.414  52.616  1.00  0.00     0.103 A 
HETATM   19  C19 UNL     1      24.631   1.061  52.256  1.00  0.00     0.057 A 
BRANCH  17  20
HETATM   20  O1  UNL     1      27.737   1.291  54.119  1.00  0.00    -0.346 OA
BRANCH  20  21
HETATM   21  C12 UNL     1      28.689   0.504  54.767  1.00  0.00     0.201 C 
BRANCH  21  22
HETATM   22  C13 UNL     1      29.725   0.130  53.699  1.00  0.00     0.193 C 
BRANCH  22  23
HETATM   23  O2  UNL     1      30.058  -1.207  53.737  1.00  0.00    -0.394 OA
HETATM   24  C14 UNL     1      29.070  -2.039  53.263  1.00  0.00     0.201 C 
ENDBRANCH  22  23
ENDBRANCH  21  22
ENDBRANCH  20  21
ENDBRANCH  17  20
BRANCH  18  25
HETATM   25  O3  UNL     1      26.693   2.257  51.817  1.00  0.00    -0.346 OA
BRANCH  25  26
HETATM   26  C16 UNL     1      26.217   2.545  50.488  1.00  0.00     0.201 C 
BRANCH  26  27
HETATM   27  C17 UNL     1      25.701   3.942  50.399  1.00  0.00     0.193 C 
BRANCH  27  28
HETATM   28  O4  UNL     1      26.012   4.593  49.224  1.00  0.00    -0.394 OA
HETATM   29  C18 UNL     1      27.355   4.536  48.883  1.00  0.00     0.201 C 
ENDBRANCH  27  28
ENDBRANCH  26  27
ENDBRANCH  25  26
ENDBRANCH  18  25
ENDBRANCH   8  10
ENDBRANCH   6   8
TORSDOF 10
ENDMDL
MODEL 6
REMARK VINA RESULT:      -6.4      3.141      7.152
REMARK  10 active torsions:
REMARK  status: ('A' for Active; 'I' for Inactive)
REMARK    1  A    between atoms: C6_6  and  N1_7 
REMARK    2  A    between atoms: N1_7  and  C7_8 
REMARK    3  A    between atoms: C11_14  and  O1_15 
REMARK    4  A    between atoms: O1_15  and  C12_16 
REMARK    5  A    between atoms: C12_16  and  C13_17 
REMARK    6  A    between atoms: C13_17  and  O2_18 
REMARK    7  A    between atoms: C15_20  and  O3_21 
REMARK    8  A    between atoms: O3_21  and  C16_22 
REMARK    9  A    between atoms: C16_22  and  C17_23 
REMARK   10  A    between atoms: C17_23  and  O4_24 
ROOT
HETATM    1  C1  UNL     1      20.963   3.888  44.304  1.00  0.00     0.018 C 
HETATM    2  C2  UNL     1      21.486   4.545  45.182  1.00  0.00    -0.078 C 
HETATM    3  C3  UNL     1      22.096   5.326  46.229  1.00  0.00     0.015 A 
HETATM    4  C4  UNL     1      22.389   6.615  46.252  1.00  0.00    -0.000 A 
HETATM    5  C5  UNL     1      23.015   7.034  47.524  1.00  0.00     0.085 A 
HETATM    6  C6  UNL     1      23.053   5.747  48.296  1.00  0.00     0.015 A 
HETATM    7  C21 UNL     1      22.519   4.800  47.517  1.00  0.00     0.045 A 
ENDROOT
BRANCH   6   8
HETATM    8  N1  UNL     1      23.563   5.539  49.625  1.00  0.00    -0.343 N 
HETATM    9  H5  UNL     1      23.019   5.967  50.403  1.00  0.00     0.167 HD
BRANCH   8  10
HETATM   10  C7  UNL     1      24.752   4.773  49.732  1.00  0.00     0.141 A 
HETATM   11  N2  UNL     1      25.840   5.126  49.063  1.00  0.00    -0.224 NA
HETATM   12  C8  UNL     1      26.984   4.424  49.141  1.00  0.00     0.236 A 
HETATM   13  N3  UNL     1      27.100   3.311  49.909  1.00  0.00    -0.241 NA
HETATM   14  C9  UNL     1      26.033   2.894  50.618  1.00  0.00     0.075 A 
HETATM   15  C10 UNL     1      26.076   1.772  51.419  1.00  0.00     0.072 A 
HETATM   16  C20 UNL     1      24.880   3.644  50.507  1.00  0.00     0.042 A 
HETATM   17  C11 UNL     1      25.002   1.347  52.136  1.00  0.00     0.104 A 
HETATM   18  C15 UNL     1      23.839   2.079  52.043  1.00  0.00     0.103 A 
HETATM   19  C19 UNL     1      23.797   3.204  51.239  1.00  0.00     0.057 A 
BRANCH  17  20
HETATM   20  O1  UNL     1      25.018   0.239  52.938  1.00  0.00    -0.346 OA
BRANCH  20  21
HETATM   21  C12 UNL     1      26.140  -0.479  53.350  1.00  0.00     0.201 C 
BRANCH  21  22
HETATM   22  C13 UNL     1      26.548   0.114  54.705  1.00  0.00     0.193 C 
BRANCH  22  23
HETATM   23  O2  UNL     1      27.875  -0.110  54.999  1.00  0.00    -0.394 OA
HETATM   24  C14 UNL     1      28.730   0.179  53.960  1.00  0.00     0.201 C 
ENDBRANCH  22  23
ENDBRANCH  21  22
ENDBRANCH  20  21
ENDBRANCH  17  20
BRANCH  18  25
HETATM   25  O3  UNL     1      22.723   1.663  52.770  1.00  0.00    -0.346 OA
BRANCH  25  26
HETATM   26  C16 UNL     1      21.515   1.377  52.040  1.00  0.00     0.201 C 
BRANCH  26  27
HETATM   27  C17 UNL     1      20.317   1.871  52.779  1.00  0.00     0.193 C 
BRANCH  27  28
HETATM   28  O4  UNL     1      20.176   3.242  52.790  1.00  0.00    -0.394 OA
HETATM   29  C18 UNL     1      20.022   3.807  51.533  1.00  0.00     0.201 C 
ENDBRANCH  27  28
ENDBRANCH  26  27
ENDBRANCH  25  26
ENDBRANCH  18  25
ENDBRANCH   8  10
ENDBRANCH   6   8
TORSDOF 10
ENDMDL
MODEL 7
REMARK VINA RESULT:      -6.3      2.568      4.311
REMARK  10 active torsions:
REMARK  status: ('A' for Active; 'I' for Inactive)
REMARK    1  A    between atoms: C6_6  and  N1_7 
REMARK    2  A    between atoms: N1_7  and  C7_8 
REMARK    3  A    between atoms: C11_14  and  O1_15 
REMARK    4  A    between atoms: O1_15  and  C12_16 
REMARK    5  A    between atoms: C12_16  and  C13_17 
REMARK    6  A    between atoms: C13_17  and  O2_18 
REMARK    7  A    between atoms: C15_20  and  O3_21 
REMARK    8  A    between atoms: O3_21  and  C16_22 
REMARK    9  A    between atoms: C16_22  and  C17_23 
REMARK   10  A    between atoms: C17_23  and  O4_24 
ROOT
HETATM    1  C1  UNL     1      30.115  -1.824  53.459  1.00  0.00     0.018 C 
HETATM    2  C2  UNL     1      29.144  -1.095  53.519  1.00  0.00    -0.078 C 
HETATM    3  C3  UNL     1      27.998  -0.223  53.583  1.00  0.00     0.015 A 
HETATM    4  C4  UNL     1      27.684   0.684  54.491  1.00  0.00    -0.000 A 
HETATM    5  C5  UNL     1      26.411   1.374  54.192  1.00  0.00     0.085 A 
HETATM    6  C6  UNL     1      25.991   0.716  52.909  1.00  0.00     0.015 A 
HETATM    7  C21 UNL     1      26.926  -0.188  52.600  1.00  0.00     0.045 A 
ENDROOT
BRANCH   6   8
HETATM    8  N1  UNL     1      24.809   0.986  52.134  1.00  0.00    -0.343 N 
HETATM    9  H5  UNL     1      24.956   1.439  51.208  1.00  0.00     0.167 HD
BRANCH   8  10
HETATM   10  C7  UNL     1      23.572   0.605  52.714  1.00  0.00     0.141 A 
HETATM   11  N2  UNL     1      23.489  -0.488  53.459  1.00  0.00    -0.224 NA
HETATM   12  C8  UNL     1      22.333  -0.878  54.025  1.00  0.00     0.236 A 
HETATM   13  N3  UNL     1      21.179  -0.181  53.871  1.00  0.00    -0.241 NA
HETATM   14  C9  UNL     1      21.191   0.942  53.126  1.00  0.00     0.075 A 
HETATM   15  C10 UNL     1      20.057   1.701  52.926  1.00  0.00     0.072 A 
HETATM   16  C20 UNL     1      22.397   1.305  52.565  1.00  0.00     0.042 A 
HETATM   17  C11 UNL     1      20.063   2.835  52.175  1.00  0.00     0.104 A 
HETATM   18  C15 UNL     1      21.256   3.218  51.603  1.00  0.00     0.103 A 
HETATM   19  C19 UNL     1      22.392   2.455  51.806  1.00  0.00     0.057 A 
BRANCH  17  20
HETATM   20  O1  UNL     1      18.954   3.606  51.960  1.00  0.00    -0.346 OA
BRANCH  20  21
HETATM   21  C12 UNL     1      17.698   3.168  51.541  1.00  0.00     0.201 C 
BRANCH  21  22
HETATM   22  C13 UNL     1      17.871   2.725  50.083  1.00  0.00     0.193 C 
BRANCH  22  23
HETATM   23  O2  UNL     1      17.156   1.583  49.792  1.00  0.00    -0.394 OA
HETATM   24  C14 UNL     1      17.616   0.460  50.440  1.00  0.00     0.201 C 
ENDBRANCH  22  23
ENDBRANCH  21  22
ENDBRANCH  20  21
ENDBRANCH  17  20
BRANCH  18  25
HETATM   25  O3  UNL     1      21.288   4.379  50.828  1.00  0.00    -0.346 OA
BRANCH  25  26
HETATM   26  C16 UNL     1      21.924   4.307  49.538  1.00  0.00     0.201 C 
BRANCH  26  27
HETATM   27  C17 UNL     1      20.922   4.038  48.466  1.00  0.00     0.193 C 
BRANCH  27  28
HETATM   28  O4  UNL     1      20.945   2.752  47.970  1.00  0.00    -0.394 OA
HETATM   29  C18 UNL     1      22.183   2.132  48.059  1.00  0.00     0.201 C 
ENDBRANCH  27  28
ENDBRANCH  26  27
ENDBRANCH  25  26
ENDBRANCH  18  25
ENDBRANCH   8  10
ENDBRANCH   6   8
TORSDOF 10
ENDMDL
MODEL 8
REMARK VINA RESULT:      -6.3      3.283      7.269
REMARK  10 active torsions:
REMARK  status: ('A' for Active; 'I' for Inactive)
REMARK    1  A    between atoms: C6_6  and  N1_7 
REMARK    2  A    between atoms: N1_7  and  C7_8 
REMARK    3  A    between atoms: C11_14  and  O1_15 
REMARK    4  A    between atoms: O1_15  and  C12_16 
REMARK    5  A    between atoms: C12_16  and  C13_17 
REMARK    6  A    between atoms: C13_17  and  O2_18 
REMARK    7  A    between atoms: C15_20  and  O3_21 
REMARK    8  A    between atoms: O3_21  and  C16_22 
REMARK    9  A    between atoms: C16_22  and  C17_23 
REMARK   10  A    between atoms: C17_23  and  O4_24 
ROOT
HETATM    1  C1  UNL     1      21.172   6.275  43.377  1.00  0.00     0.018 C 
HETATM    2  C2  UNL     1      21.452   5.654  44.383  1.00  0.00    -0.078 C 
HETATM    3  C3  UNL     1      21.794   4.917  45.575  1.00  0.00     0.015 A 
HETATM    4  C4  UNL     1      21.737   3.617  45.802  1.00  0.00    -0.000 A 
HETATM    5  C5  UNL     1      22.179   3.257  47.166  1.00  0.00     0.085 A 
HETATM    6  C6  UNL     1      22.526   4.596  47.748  1.00  0.00     0.015 A 
HETATM    7  C21 UNL     1      22.290   5.514  46.805  1.00  0.00     0.045 A 
ENDROOT
BRANCH   6   8
HETATM    8  N1  UNL     1      23.022   4.874  49.070  1.00  0.00    -0.343 N 
HETATM    9  H5  UNL     1      22.345   5.296  49.740  1.00  0.00     0.167 HD
BRANCH   8  10
HETATM   10  C7  UNL     1      24.378   4.544  49.319  1.00  0.00     0.141 A 
HETATM   11  N2  UNL     1      25.353   5.275  48.797  1.00  0.00    -0.224 NA
HETATM   12  C8  UNL     1      26.650   4.991  49.012  1.00  0.00     0.236 A 
HETATM   13  N3  UNL     1      27.045   3.941  49.774  1.00  0.00    -0.241 NA
HETATM   14  C9  UNL     1      26.107   3.154  50.337  1.00  0.00     0.075 A 
HETATM   15  C10 UNL     1      26.434   2.070  51.124  1.00  0.00     0.072 A 
HETATM   16  C20 UNL     1      24.790   3.482  50.090  1.00  0.00     0.042 A 
HETATM   17  C11 UNL     1      25.491   1.272  51.694  1.00  0.00     0.104 A 
HETATM   18  C15 UNL     1      24.168   1.579  51.462  1.00  0.00     0.103 A 
HETATM   19  C19 UNL     1      23.842   2.667  50.672  1.00  0.00     0.057 A 
BRANCH  17  20
HETATM   20  O1  UNL     1      25.787   0.192  52.478  1.00  0.00    -0.346 OA
BRANCH  20  21
HETATM   21  C12 UNL     1      27.055  -0.223  52.887  1.00  0.00     0.201 C 
BRANCH  21  22
HETATM   22  C13 UNL     1      27.090  -0.034  54.409  1.00  0.00     0.193 C 
BRANCH  22  23
HETATM   23  O2  UNL     1      28.324  -0.331  54.946  1.00  0.00    -0.394 OA
HETATM   24  C14 UNL     1      29.329  -0.423  54.011  1.00  0.00     0.201 C 
ENDBRANCH  22  23
ENDBRANCH  21  22
ENDBRANCH  20  21
ENDBRANCH  17  20
BRANCH  18  25
HETATM   25  O3  UNL     1      23.182   0.776  52.036  1.00  0.00    -0.346 OA
BRANCH  25  26
HETATM   26  C16 UNL     1      22.362   1.355  53.069  1.00  0.00     0.201 C 
BRANCH  26  27
HETATM   27  C17 UNL     1      21.494   0.320  53.702  1.00  0.00     0.193 C 
BRANCH  27  28
HETATM   28  O4  UNL     1      22.059  -0.935  53.773  1.00  0.00    -0.394 OA
HETATM   29  C18 UNL     1      22.964  -1.093  54.812  1.00  0.00     0.201 C 
ENDBRANCH  27  28
ENDBRANCH  26  27
ENDBRANCH  25  26
ENDBRANCH  18  25
ENDBRANCH   8  10
ENDBRANCH   6   8
TORSDOF 10
ENDMDL
MODEL 9
REMARK VINA RESULT:      -6.2      3.229      7.972
REMARK  10 active torsions:
REMARK  status: ('A' for Active; 'I' for Inactive)
REMARK    1  A    between atoms: C6_6  and  N1_7 
REMARK    2  A    between atoms: N1_7  and  C7_8 
REMARK    3  A    between atoms: C11_14  and  O1_15 
REMARK    4  A    between atoms: O1_15  and  C12_16 
REMARK    5  A    between atoms: C12_16  and  C13_17 
REMARK    6  A    between atoms: C13_17  and  O2_18 
REMARK    7  A    between atoms: C15_20  and  O3_21 
REMARK    8  A    between atoms: O3_21  and  C16_22 
REMARK    9  A    between atoms: C16_22  and  C17_23 
REMARK   10  A    between atoms: C17_23  and  O4_24 
ROOT
HETATM    1  C1  UNL     1      19.412   3.467  46.900  1.00  0.00     0.018 C 
HETATM    2  C2  UNL     1      19.303   3.005  48.018  1.00  0.00    -0.078 C 
HETATM    3  C3  UNL     1      19.182   2.449  49.343  1.00  0.00     0.015 A 
HETATM    4  C4  UNL     1      18.275   1.616  49.823  1.00  0.00    -0.000 A 
HETATM    5  C5  UNL     1      18.503   1.283  51.245  1.00  0.00     0.085 A 
HETATM    6  C6  UNL     1      19.740   2.074  51.559  1.00  0.00     0.015 A 
HETATM    7  C21 UNL     1      20.090   2.724  50.445  1.00  0.00     0.045 A 
ENDROOT
BRANCH   6   8
HETATM    8  N1  UNL     1      20.439   2.142  52.815  1.00  0.00    -0.343 N 
HETATM    9  H5  UNL     1      20.426   3.061  53.303  1.00  0.00     0.167 HD
BRANCH   8  10
HETATM   10  C7  UNL     1      21.072   0.950  53.251  1.00  0.00     0.141 A 
HETATM   11  N2  UNL     1      20.374   0.008  53.870  1.00  0.00    -0.224 NA
HETATM   12  C8  UNL     1      20.941  -1.134  54.297  1.00  0.00     0.236 A 
HETATM   13  N3  UNL     1      22.260  -1.397  54.123  1.00  0.00    -0.241 NA
HETATM   14  C9  UNL     1      23.031  -0.484  53.501  1.00  0.00     0.075 A 
HETATM   15  C10 UNL     1      24.379  -0.682  53.289  1.00  0.00     0.072 A 
HETATM   16  C20 UNL     1      22.408   0.673  53.080  1.00  0.00     0.042 A 
HETATM   17  C11 UNL     1      25.161   0.237  52.663  1.00  0.00     0.104 A 
HETATM   18  C15 UNL     1      24.562   1.401  52.233  1.00  0.00     0.103 A 
HETATM   19  C19 UNL     1      23.210   1.598  52.446  1.00  0.00     0.057 A 
BRANCH  17  20
HETATM   20  O1  UNL     1      26.500   0.065  52.440  1.00  0.00    -0.346 OA
BRANCH  20  21
HETATM   21  C12 UNL     1      27.456  -0.348  53.367  1.00  0.00     0.201 C 
BRANCH  21  22
HETATM   22  C13 UNL     1      27.440   0.702  54.485  1.00  0.00     0.193 C 
BRANCH  22  23
HETATM   23  O2  UNL     1      28.613   1.423  54.545  1.00  0.00    -0.394 OA
HETATM   24  C14 UNL     1      28.673   2.459  53.641  1.00  0.00     0.201 C 
ENDBRANCH  22  23
ENDBRANCH  21  22
ENDBRANCH  20  21
ENDBRANCH  17  20
BRANCH  18  25
HETATM   25  O3  UNL     1      25.344   2.359  51.586  1.00  0.00    -0.346 OA
BRANCH  25  26
HETATM   26  C16 UNL     1      24.786   3.012  50.430  1.00  0.00     0.201 C 
BRANCH  26  27
HETATM   27  C17 UNL     1      24.823   4.495  50.587  1.00  0.00     0.193 C 
BRANCH  27  28
HETATM   28  O4  UNL     1      23.783   5.018  51.326  1.00  0.00    -0.394 OA
HETATM   29  C18 UNL     1      23.587   6.379  51.145  1.00  0.00     0.201 C 
ENDBRANCH  27  28
ENDBRANCH  26  27
ENDBRANCH  25  26
ENDBRANCH  18  25
ENDBRANCH   8  10
ENDBRANCH   6   8
TORSDOF 10
ENDMDL
