MODEL 1
REMARK VINA RESULT:      -7.5      0.000      0.000
REMARK  6 active torsions:
REMARK  status: ('A' for Active; 'I' for Inactive)
REMARK    1  A    between atoms: C1_2  and  C2_3 
REMARK    2  A    between atoms: C2_3  and  C3_4 
REMARK    3  A    between atoms: C3_4  and  C4_5 
REMARK    4  A    between atoms: C5_6  and  N1_7 
REMARK    5  A    between atoms: N1_7  and  C6_8 
REMARK    6  A    between atoms: C7_10  and  N3_11 
ROOT
HETATM    1  C6  UNL     1      25.291   3.346  50.891  1.00  0.00     0.163 A 
HETATM    2  N2  UNL     1      24.711   4.026  52.005  1.00  0.00    -0.375 N 
HETATM    3  C7  UNL     1      23.719   4.995  52.014  1.00  0.00     0.319 C 
HETATM    4  C12 UNL     1      22.384   4.756  52.611  1.00  0.00     0.057 C 
HETATM    5  C13 UNL     1      21.239   4.019  52.129  1.00  0.00     0.004 C 
HETATM    6  O2  UNL     1      21.486   2.569  51.773  1.00  0.00     0.000 OA
HETATM    7  C14 UNL     1      22.614   2.691  50.807  1.00  0.00     0.061 A 
HETATM    8  C15 UNL     1      22.983   2.510  52.158  1.00  0.00     0.003 A 
HETATM    9  C16 UNL     1      23.678   2.784  50.987  1.00  0.00     0.100 A 
HETATM   10  C17 UNL     1      24.322   3.051  49.813  1.00  0.00     0.055 A 
HETATM   11  C18 UNL     1      22.973   2.947  49.550  1.00  0.00     0.108 A 
HETATM   12  C19 UNL     1      21.675   2.747  49.909  1.00  0.00     0.071 A 
HETATM   13  O3  UNL     1      20.544   2.750  49.199  1.00  0.00    -0.353 OA
HETATM   14  C20 UNL     1      20.539   2.472  47.787  1.00  0.00     0.201 C 
HETATM   15  C21 UNL     1      21.958   2.594  47.284  1.00  0.00     0.196 C 
HETATM   16  O4  UNL     1      22.861   3.159  48.165  1.00  0.00    -0.372 OA
HETATM   17  H11 UNL     1      25.241   3.870  52.890  1.00  0.00     0.157 HD
ENDROOT
BRANCH   1  18
HETATM   18  N1  UNL     1      26.071   2.179  51.214  1.00  0.00    -0.381 N 
HETATM   19  H9  UNL     1      25.734   1.324  50.671  1.00  0.00     0.160 HD
BRANCH  18  20
HETATM   20  C5  UNL     1      27.144   2.014  52.106  1.00  0.00     0.080 C 
HETATM   21  C4  UNL     1      27.473   2.230  53.383  1.00  0.00    -0.010 C 
BRANCH  21  22
HETATM   22  C3  UNL     1      28.816   1.858  53.895  1.00  0.00     0.031 C 
BRANCH  22  23
HETATM   23  C2  UNL     1      28.723   0.564  54.667  1.00  0.00     0.035 C 
BRANCH  23  24
HETATM   24  C1  UNL     1      29.347  -0.586  53.917  1.00  0.00     0.222 C 
HETATM   25  F1  UNL     1      30.538  -0.175  53.342  1.00  0.00    -0.255 F 
ENDBRANCH  23  24
ENDBRANCH  22  23
ENDBRANCH  21  22
ENDBRANCH  18  20
ENDBRANCH   1  18
BRANCH   3  26
HETATM   26  N3  UNL     1      23.618   5.735  50.740  1.00  0.00     0.115 NA
HETATM   27  C8  UNL     1      22.414   6.541  50.703  1.00  0.00     0.301 C 
HETATM   28  C9  UNL     1      22.501   7.343  49.418  1.00  0.00     0.198 C 
HETATM   29  O1  UNL     1      23.345   8.421  49.664  1.00  0.00    -0.388 OA
HETATM   30  C10 UNL     1      24.196   8.143  50.695  1.00  0.00     0.198 C 
HETATM   31  C11 UNL     1      24.712   6.724  50.709  1.00  0.00     0.301 C 
ENDBRANCH   3  26
TORSDOF 6
ENDMDL
MODEL 2
REMARK VINA RESULT:      -7.4      1.655      2.037
REMARK  6 active torsions:
REMARK  status: ('A' for Active; 'I' for Inactive)
REMARK    1  A    between atoms: C1_2  and  C2_3 
REMARK    2  A    between atoms: C2_3  and  C3_4 
REMARK    3  A    between atoms: C3_4  and  C4_5 
REMARK    4  A    between atoms: C5_6  and  N1_7 
REMARK    5  A    between atoms: N1_7  and  C6_8 
REMARK    6  A    between atoms: C7_10  and  N3_11 
ROOT
HETATM    1  C6  UNL     1      25.844   4.166  50.223  1.00  0.00     0.163 A 
HETATM    2  N2  UNL     1      25.463   5.453  50.714  1.00  0.00    -0.375 N 
HETATM    3  C7  UNL     1      24.532   6.342  50.200  1.00  0.00     0.319 C 
HETATM    4  C12 UNL     1      23.287   6.691  50.922  1.00  0.00     0.057 C 
HETATM    5  C13 UNL     1      22.049   5.968  51.098  1.00  0.00     0.004 C 
HETATM    6  O2  UNL     1      22.170   4.585  51.704  1.00  0.00     0.000 OA
HETATM    7  C14 UNL     1      23.153   3.947  50.783  1.00  0.00     0.061 A 
HETATM    8  C15 UNL     1      23.702   4.583  51.918  1.00  0.00     0.003 A 
HETATM    9  C16 UNL     1      24.235   3.992  50.779  1.00  0.00     0.100 A 
HETATM   10  C17 UNL     1      24.717   3.402  49.646  1.00  0.00     0.055 A 
HETATM   11  C18 UNL     1      23.340   3.332  49.616  1.00  0.00     0.108 A 
HETATM   12  C19 UNL     1      22.098   3.562  50.127  1.00  0.00     0.071 A 
HETATM   13  O3  UNL     1      20.879   3.275  49.664  1.00  0.00    -0.353 OA
HETATM   14  C20 UNL     1      20.657   2.196  48.738  1.00  0.00     0.201 C 
HETATM   15  C21 UNL     1      21.994   1.802  48.154  1.00  0.00     0.196 C 
HETATM   16  O4  UNL     1      23.041   2.667  48.415  1.00  0.00    -0.372 OA
HETATM   17  H11 UNL     1      26.107   5.804  51.457  1.00  0.00     0.157 HD
ENDROOT
BRANCH   1  18
HETATM   18  N1  UNL     1      26.603   3.353  51.136  1.00  0.00    -0.381 N 
HETATM   19  H9  UNL     1      27.328   3.934  51.663  1.00  0.00     0.160 HD
BRANCH  18  20
HETATM   20  C5  UNL     1      26.539   1.976  51.405  1.00  0.00     0.080 C 
HETATM   21  C4  UNL     1      26.954   1.074  52.300  1.00  0.00    -0.010 C 
BRANCH  21  22
HETATM   22  C3  UNL     1      26.607  -0.362  52.149  1.00  0.00     0.031 C 
BRANCH  22  23
HETATM   23  C2  UNL     1      27.632  -1.208  52.865  1.00  0.00     0.035 C 
BRANCH  23  24
HETATM   24  C1  UNL     1      28.658  -0.365  53.580  1.00  0.00     0.222 C 
HETATM   25  F1  UNL     1      29.930  -0.742  53.181  1.00  0.00    -0.255 F 
ENDBRANCH  23  24
ENDBRANCH  22  23
ENDBRANCH  21  22
ENDBRANCH  18  20
ENDBRANCH   1  18
BRANCH   3  26
HETATM   26  N3  UNL     1      24.287   6.155  48.756  1.00  0.00     0.115 NA
HETATM   27  C8  UNL     1      23.092   6.861  48.338  1.00  0.00     0.301 C 
HETATM   28  C9  UNL     1      23.032   6.701  46.830  1.00  0.00     0.198 C 
HETATM   29  O1  UNL     1      23.905   7.635  46.284  1.00  0.00    -0.388 OA
HETATM   30  C10 UNL     1      24.870   7.981  47.186  1.00  0.00     0.198 C 
HETATM   31  C11 UNL     1      25.375   6.831  48.024  1.00  0.00     0.301 C 
ENDBRANCH   3  26
TORSDOF 6
ENDMDL
MODEL 3
REMARK VINA RESULT:      -7.4      1.792      3.953
REMARK  6 active torsions:
REMARK  status: ('A' for Active; 'I' for Inactive)
REMARK    1  A    between atoms: C1_2  and  C2_3 
REMARK    2  A    between atoms: C2_3  and  C3_4 
REMARK    3  A    between atoms: C3_4  and  C4_5 
REMARK    4  A    between atoms: C5_6  and  N1_7 
REMARK    5  A    between atoms: N1_7  and  C6_8 
REMARK    6  A    between atoms: C7_10  and  N3_11 
ROOT
HETATM    1  C6  UNL     1      23.997   3.049  52.849  1.00  0.00     0.163 A 
HETATM    2  N2  UNL     1      23.500   2.029  51.981  1.00  0.00    -0.375 N 
HETATM    3  C7  UNL     1      22.420   2.072  51.113  1.00  0.00     0.319 C 
HETATM    4  C12 UNL     1      22.581   1.991  49.643  1.00  0.00     0.057 C 
HETATM    5  C13 UNL     1      23.011   2.973  48.674  1.00  0.00     0.004 C 
HETATM    6  O2  UNL     1      24.368   3.598  48.922  1.00  0.00     0.000 OA
HETATM    7  C14 UNL     1      24.205   4.109  50.312  1.00  0.00     0.061 A 
HETATM    8  C15 UNL     1      24.735   2.805  50.198  1.00  0.00     0.003 A 
HETATM    9  C16 UNL     1      24.316   3.597  51.260  1.00  0.00     0.100 A 
HETATM   10  C17 UNL     1      23.896   4.408  52.274  1.00  0.00     0.055 A 
HETATM   11  C18 UNL     1      23.735   5.087  51.085  1.00  0.00     0.108 A 
HETATM   12  C19 UNL     1      23.812   5.204  49.730  1.00  0.00     0.071 A 
HETATM   13  O3  UNL     1      23.482   6.198  48.902  1.00  0.00    -0.353 OA
HETATM   14  C20 UNL     1      23.436   7.566  49.346  1.00  0.00     0.201 C 
HETATM   15  C21 UNL     1      23.421   7.564  50.857  1.00  0.00     0.196 C 
HETATM   16  O4  UNL     1      23.207   6.336  51.454  1.00  0.00    -0.372 OA
HETATM   17  H11 UNL     1      23.926   1.096  52.175  1.00  0.00     0.157 HD
ENDROOT
BRANCH   1  18
HETATM   18  N1  UNL     1      25.309   2.817  53.393  1.00  0.00    -0.381 N 
HETATM   19  H9  UNL     1      25.750   3.724  53.744  1.00  0.00     0.160 HD
BRANCH  18  20
HETATM   20  C5  UNL     1      26.055   1.632  53.508  1.00  0.00     0.080 C 
HETATM   21  C4  UNL     1      26.772   0.783  52.766  1.00  0.00    -0.010 C 
BRANCH  21  22
HETATM   22  C3  UNL     1      27.417  -0.406  53.379  1.00  0.00     0.031 C 
BRANCH  22  23
HETATM   23  C2  UNL     1      28.643   0.024  54.147  1.00  0.00     0.035 C 
BRANCH  23  24
HETATM   24  C1  UNL     1      29.899  -0.613  53.605  1.00  0.00     0.222 C 
HETATM   25  F1  UNL     1      29.593  -1.842  53.046  1.00  0.00    -0.255 F 
ENDBRANCH  23  24
ENDBRANCH  22  23
ENDBRANCH  21  22
ENDBRANCH  18  20
ENDBRANCH   1  18
BRANCH   3  26
HETATM   26  N3  UNL     1      21.409   3.079  51.493  1.00  0.00     0.115 NA
HETATM   27  C8  UNL     1      20.482   3.319  50.406  1.00  0.00     0.301 C 
HETATM   28  C9  UNL     1      19.430   4.258  50.968  1.00  0.00     0.198 C 
HETATM   29  O1  UNL     1      18.539   3.484  51.701  1.00  0.00    -0.388 OA
HETATM   30  C10 UNL     1      19.134   2.329  52.122  1.00  0.00     0.198 C 
HETATM   31  C11 UNL     1      20.570   2.494  52.557  1.00  0.00     0.301 C 
ENDBRANCH   3  26
TORSDOF 6
ENDMDL
MODEL 4
REMARK VINA RESULT:      -7.1      6.902      9.267
REMARK  6 active torsions:
REMARK  status: ('A' for Active; 'I' for Inactive)
REMARK    1  A    between atoms: C1_2  and  C2_3 
REMARK    2  A    between atoms: C2_3  and  C3_4 
REMARK    3  A    between atoms: C3_4  and  C4_5 
REMARK    4  A    between atoms: C5_6  and  N1_7 
REMARK    5  A    between atoms: N1_7  and  C6_8 
REMARK    6  A    between atoms: C7_10  and  N3_11 
ROOT
HETATM    1  C6  UNL     1      29.062   6.039  48.161  1.00  0.00     0.163 A 
HETATM    2  N2  UNL     1      30.234   5.981  48.976  1.00  0.00    -0.375 N 
HETATM    3  C7  UNL     1      31.563   6.103  48.603  1.00  0.00     0.319 C 
HETATM    4  C12 UNL     1      32.408   7.240  49.037  1.00  0.00     0.057 C 
HETATM    5  C13 UNL     1      32.470   8.611  48.585  1.00  0.00     0.004 C 
HETATM    6  O2  UNL     1      31.170   9.385  48.635  1.00  0.00     0.000 OA
HETATM    7  C14 UNL     1      30.270   8.498  47.846  1.00  0.00     0.061 A 
HETATM    8  C15 UNL     1      30.285   8.270  49.240  1.00  0.00     0.003 A 
HETATM    9  C16 UNL     1      29.710   7.622  48.152  1.00  0.00     0.100 A 
HETATM   10  C17 UNL     1      29.163   7.018  47.057  1.00  0.00     0.055 A 
HETATM   11  C18 UNL     1      29.872   8.121  46.631  1.00  0.00     0.108 A 
HETATM   12  C19 UNL     1      30.654   9.218  46.834  1.00  0.00     0.071 A 
HETATM   13  O3  UNL     1      31.175  10.108  45.986  1.00  0.00    -0.353 OA
HETATM   14  C20 UNL     1      30.582  10.363  44.699  1.00  0.00     0.201 C 
HETATM   15  C21 UNL     1      29.626   9.233  44.397  1.00  0.00     0.196 C 
HETATM   16  O4  UNL     1      29.707   8.137  45.236  1.00  0.00    -0.372 OA
HETATM   17  H11 UNL     1      30.033   5.637  49.941  1.00  0.00     0.157 HD
ENDROOT
BRANCH   1  18
HETATM   18  N1  UNL     1      27.819   6.191  48.871  1.00  0.00    -0.381 N 
HETATM   19  H9  UNL     1      27.731   7.166  49.296  1.00  0.00     0.160 HD
BRANCH  18  20
HETATM   20  C5  UNL     1      26.770   5.281  49.083  1.00  0.00     0.080 C 
HETATM   21  C4  UNL     1      26.543   4.055  49.564  1.00  0.00    -0.010 C 
BRANCH  21  22
HETATM   22  C3  UNL     1      25.170   3.488  49.584  1.00  0.00     0.031 C 
BRANCH  22  23
HETATM   23  C2  UNL     1      24.980   2.667  50.836  1.00  0.00     0.035 C 
BRANCH  23  24
HETATM   24  C1  UNL     1      26.288   2.400  51.539  1.00  0.00     0.222 C 
HETATM   25  F1  UNL     1      26.748   1.138  51.202  1.00  0.00    -0.255 F 
ENDBRANCH  23  24
ENDBRANCH  22  23
ENDBRANCH  21  22
ENDBRANCH  18  20
ENDBRANCH   1  18
BRANCH   3  26
HETATM   26  N3  UNL     1      31.802   5.761  47.186  1.00  0.00     0.115 NA
HETATM   27  C8  UNL     1      33.140   6.139  46.779  1.00  0.00     0.301 C 
HETATM   28  C9  UNL     1      33.299   5.616  45.364  1.00  0.00     0.198 C 
HETATM   29  O1  UNL     1      33.594   4.260  45.459  1.00  0.00    -0.388 OA
HETATM   30  C10 UNL     1      33.137   3.747  46.639  1.00  0.00     0.198 C 
HETATM   31  C11 UNL     1      31.796   4.289  47.073  1.00  0.00     0.301 C 
ENDBRANCH   3  26
TORSDOF 6
ENDMDL
MODEL 5
REMARK VINA RESULT:      -7.0      3.206      4.295
REMARK  6 active torsions:
REMARK  status: ('A' for Active; 'I' for Inactive)
REMARK    1  A    between atoms: C1_2  and  C2_3 
REMARK    2  A    between atoms: C2_3  and  C3_4 
REMARK    3  A    between atoms: C3_4  and  C4_5 
REMARK    4  A    between atoms: C5_6  and  N1_7 
REMARK    5  A    between atoms: N1_7  and  C6_8 
REMARK    6  A    between atoms: C7_10  and  N3_11 
ROOT
HETATM    1  C6  UNL     1      25.376   5.127  49.461  1.00  0.00     0.163 A 
HETATM    2  N2  UNL     1      25.055   5.507  50.799  1.00  0.00    -0.375 N 
HETATM    3  C7  UNL     1      23.809   5.630  51.396  1.00  0.00     0.319 C 
HETATM    4  C12 UNL     1      23.366   4.742  52.496  1.00  0.00     0.057 C 
HETATM    5  C13 UNL     1      22.892   3.377  52.491  1.00  0.00     0.004 C 
HETATM    6  O2  UNL     1      23.818   2.357  51.862  1.00  0.00     0.000 OA
HETATM    7  C14 UNL     1      24.043   2.956  50.516  1.00  0.00     0.061 A 
HETATM    8  C15 UNL     1      24.980   3.316  51.510  1.00  0.00     0.003 A 
HETATM    9  C16 UNL     1      24.743   3.720  50.201  1.00  0.00     0.100 A 
HETATM   10  C17 UNL     1      24.477   4.088  48.914  1.00  0.00     0.055 A 
HETATM   11  C18 UNL     1      23.566   3.121  49.283  1.00  0.00     0.108 A 
HETATM   12  C19 UNL     1      23.019   2.237  50.163  1.00  0.00     0.071 A 
HETATM   13  O3  UNL     1      21.986   1.397  50.055  1.00  0.00    -0.353 OA
HETATM   14  C20 UNL     1      21.547   0.900  48.777  1.00  0.00     0.201 C 
HETATM   15  C21 UNL     1      22.160   1.771  47.705  1.00  0.00     0.196 C 
HETATM   16  O4  UNL     1      22.760   2.935  48.147  1.00  0.00    -0.372 OA
HETATM   17  H11 UNL     1      25.876   5.894  51.314  1.00  0.00     0.157 HD
ENDROOT
BRANCH   1  18
HETATM   18  N1  UNL     1      26.756   4.788  49.225  1.00  0.00    -0.381 N 
HETATM   19  H9  UNL     1      26.992   3.824  49.620  1.00  0.00     0.160 HD
BRANCH  18  20
HETATM   20  C5  UNL     1      27.782   5.514  48.598  1.00  0.00     0.080 C 
HETATM   21  C4  UNL     1      29.066   5.402  48.249  1.00  0.00    -0.010 C 
BRANCH  21  22
HETATM   22  C3  UNL     1      29.765   6.512  47.553  1.00  0.00     0.031 C 
BRANCH  22  23
HETATM   23  C2  UNL     1      28.883   7.737  47.542  1.00  0.00     0.035 C 
BRANCH  23  24
HETATM   24  C1  UNL     1      29.475   8.866  48.348  1.00  0.00     0.222 C 
HETATM   25  F1  UNL     1      28.867   8.918  49.591  1.00  0.00    -0.255 F 
ENDBRANCH  23  24
ENDBRANCH  22  23
ENDBRANCH  21  22
ENDBRANCH  18  20
ENDBRANCH   1  18
BRANCH   3  26
HETATM   26  N3  UNL     1      22.723   5.875  50.426  1.00  0.00     0.115 NA
HETATM   27  C8  UNL     1      21.425   5.690  51.044  1.00  0.00     0.301 C 
HETATM   28  C9  UNL     1      20.411   6.100  49.992  1.00  0.00     0.198 C 
HETATM   29  O1  UNL     1      20.342   7.489  50.008  1.00  0.00    -0.388 OA
HETATM   30  C10 UNL     1      21.495   8.025  50.508  1.00  0.00     0.198 C 
HETATM   31  C11 UNL     1      22.751   7.308  50.074  1.00  0.00     0.301 C 
ENDBRANCH   3  26
TORSDOF 6
ENDMDL
MODEL 6
REMARK VINA RESULT:      -7.0      2.258      4.368
REMARK  6 active torsions:
REMARK  status: ('A' for Active; 'I' for Inactive)
REMARK    1  A    between atoms: C1_2  and  C2_3 
REMARK    2  A    between atoms: C2_3  and  C3_4 
REMARK    3  A    between atoms: C3_4  and  C4_5 
REMARK    4  A    between atoms: C5_6  and  N1_7 
REMARK    5  A    between atoms: N1_7  and  C6_8 
REMARK    6  A    between atoms: C7_10  and  N3_11 
ROOT
HETATM    1  C6  UNL     1      23.266   2.275  51.792  1.00  0.00     0.163 A 
HETATM    2  N2  UNL     1      22.793   1.352  50.810  1.00  0.00    -0.375 N 
HETATM    3  C7  UNL     1      21.583   1.342  50.133  1.00  0.00     0.319 C 
HETATM    4  C12 UNL     1      21.491   1.562  48.672  1.00  0.00     0.057 C 
HETATM    5  C13 UNL     1      21.578   2.767  47.879  1.00  0.00     0.004 C 
HETATM    6  O2  UNL     1      22.838   3.587  48.056  1.00  0.00     0.000 OA
HETATM    7  C14 UNL     1      22.846   3.797  49.531  1.00  0.00     0.061 A 
HETATM    8  C15 UNL     1      23.550   2.661  49.071  1.00  0.00     0.003 A 
HETATM    9  C16 UNL     1      23.205   3.152  50.325  1.00  0.00     0.100 A 
HETATM   10  C17 UNL     1      22.847   3.670  51.536  1.00  0.00     0.055 A 
HETATM   11  C18 UNL     1      22.370   4.509  50.552  1.00  0.00     0.108 A 
HETATM   12  C19 UNL     1      22.184   4.881  49.255  1.00  0.00     0.071 A 
HETATM   13  O3  UNL     1      21.556   5.927  48.710  1.00  0.00    -0.353 OA
HETATM   14  C20 UNL     1      21.371   7.157  49.434  1.00  0.00     0.201 C 
HETATM   15  C21 UNL     1      21.626   6.879  50.897  1.00  0.00     0.196 C 
HETATM   16  O4  UNL     1      21.722   5.545  51.246  1.00  0.00    -0.372 OA
HETATM   17  H11 UNL     1      23.392   0.500  50.741  1.00  0.00     0.157 HD
ENDROOT
BRANCH   1  18
HETATM   18  N1  UNL     1      24.675   2.205  52.082  1.00  0.00    -0.381 N 
HETATM   19  H9  UNL     1      25.125   3.174  52.055  1.00  0.00     0.160 HD
BRANCH  18  20
HETATM   20  C5  UNL     1      25.497   1.103  52.365  1.00  0.00     0.080 C 
HETATM   21  C4  UNL     1      26.620   0.513  51.946  1.00  0.00    -0.010 C 
BRANCH  21  22
HETATM   22  C3  UNL     1      27.128  -0.715  52.610  1.00  0.00     0.031 C 
BRANCH  22  23
HETATM   23  C2  UNL     1      28.079  -0.334  53.719  1.00  0.00     0.035 C 
BRANCH  23  24
HETATM   24  C1  UNL     1      29.400  -1.053  53.599  1.00  0.00     0.222 C 
HETATM   25  F1  UNL     1      30.381  -0.160  53.201  1.00  0.00    -0.255 F 
ENDBRANCH  23  24
ENDBRANCH  22  23
ENDBRANCH  21  22
ENDBRANCH  18  20
ENDBRANCH   1  18
BRANCH   3  26
HETATM   26  N3  UNL     1      20.508   2.050  50.857  1.00  0.00     0.115 NA
HETATM   27  C8  UNL     1      19.364   2.273  49.996  1.00  0.00     0.301 C 
HETATM   28  C9  UNL     1      18.295   2.877  50.889  1.00  0.00     0.198 C 
HETATM   29  O1  UNL     1      17.703   1.830  51.586  1.00  0.00    -0.388 OA
HETATM   30  C10 UNL     1      18.554   0.765  51.673  1.00  0.00     0.198 C 
HETATM   31  C11 UNL     1      19.998   1.142  51.903  1.00  0.00     0.301 C 
ENDBRANCH   3  26
TORSDOF 6
ENDMDL
MODEL 7
REMARK VINA RESULT:      -6.6      6.568      9.014
REMARK  6 active torsions:
REMARK  status: ('A' for Active; 'I' for Inactive)
REMARK    1  A    between atoms: C1_2  and  C2_3 
REMARK    2  A    between atoms: C2_3  and  C3_4 
REMARK    3  A    between atoms: C3_4  and  C4_5 
REMARK    4  A    between atoms: C5_6  and  N1_7 
REMARK    5  A    between atoms: N1_7  and  C6_8 
REMARK    6  A    between atoms: C7_10  and  N3_11 
ROOT
HETATM    1  C6  UNL     1      28.391   6.760  47.872  1.00  0.00     0.163 A 
HETATM    2  N2  UNL     1      29.373   6.987  48.885  1.00  0.00    -0.375 N 
HETATM    3  C7  UNL     1      30.616   7.590  48.774  1.00  0.00     0.319 C 
HETATM    4  C12 UNL     1      30.935   8.874  49.439  1.00  0.00     0.057 C 
HETATM    5  C13 UNL     1      30.582  10.236  49.108  1.00  0.00     0.004 C 
HETATM    6  O2  UNL     1      29.102  10.522  48.972  1.00  0.00     0.000 OA
HETATM    7  C14 UNL     1      28.697   9.499  47.966  1.00  0.00     0.061 A 
HETATM    8  C15 UNL     1      28.581   9.107  49.318  1.00  0.00     0.003 A 
HETATM    9  C16 UNL     1      28.439   8.455  48.099  1.00  0.00     0.100 A 
HETATM   10  C17 UNL     1      28.308   7.854  46.881  1.00  0.00     0.055 A 
HETATM   11  C18 UNL     1      28.642   9.176  46.675  1.00  0.00     0.108 A 
HETATM   12  C19 UNL     1      28.953  10.433  47.098  1.00  0.00     0.071 A 
HETATM   13  O3  UNL     1      29.251  11.549  46.429  1.00  0.00    -0.353 OA
HETATM   14  C20 UNL     1      28.806  11.760  45.076  1.00  0.00     0.201 C 
HETATM   15  C21 UNL     1      28.361  10.428  44.520  1.00  0.00     0.196 C 
HETATM   16  O4  UNL     1      28.692   9.320  45.278  1.00  0.00    -0.372 OA
HETATM   17  H11 UNL     1      29.163   6.471  49.768  1.00  0.00     0.157 HD
ENDROOT
BRANCH   1  18
HETATM   18  N1  UNL     1      27.081   6.397  48.347  1.00  0.00    -0.381 N 
HETATM   19  H9  UNL     1      26.360   7.149  48.112  1.00  0.00     0.160 HD
BRANCH  18  20
HETATM   20  C5  UNL     1      26.646   5.262  49.051  1.00  0.00     0.080 C 
HETATM   21  C4  UNL     1      26.959   3.977  49.240  1.00  0.00    -0.010 C 
BRANCH  21  22
HETATM   22  C3  UNL     1      26.146   3.121  50.142  1.00  0.00     0.031 C 
BRANCH  22  23
HETATM   23  C2  UNL     1      24.839   3.809  50.450  1.00  0.00     0.035 C 
BRANCH  23  24
HETATM   24  C1  UNL     1      23.653   3.007  49.975  1.00  0.00     0.222 C 
HETATM   25  F1  UNL     1      23.740   2.816  48.606  1.00  0.00    -0.255 F 
ENDBRANCH  23  24
ENDBRANCH  22  23
ENDBRANCH  21  22
ENDBRANCH  18  20
ENDBRANCH   1  18
BRANCH   3  26
HETATM   26  N3  UNL     1      31.168   7.536  47.406  1.00  0.00     0.115 NA
HETATM   27  C8  UNL     1      32.344   8.375  47.288  1.00  0.00     0.301 C 
HETATM   28  C9  UNL     1      32.883   8.125  45.892  1.00  0.00     0.198 C 
HETATM   29  O1  UNL     1      33.603   6.936  45.937  1.00  0.00    -0.388 OA
HETATM   30  C10 UNL     1      33.174   6.150  46.967  1.00  0.00     0.198 C 
HETATM   31  C11 UNL     1      31.679   6.170  47.182  1.00  0.00     0.301 C 
ENDBRANCH   3  26
TORSDOF 6
ENDMDL
MODEL 8
REMARK VINA RESULT:      -6.4     22.101     24.424
REMARK  6 active torsions:
REMARK  status: ('A' for Active; 'I' for Inactive)
REMARK    1  A    between atoms: C1_2  and  C2_3 
REMARK    2  A    between atoms: C2_3  and  C3_4 
REMARK    3  A    between atoms: C3_4  and  C4_5 
REMARK    4  A    between atoms: C5_6  and  N1_7 
REMARK    5  A    between atoms: N1_7  and  C6_8 
REMARK    6  A    between atoms: C7_10  and  N3_11 
ROOT
HETATM    1  C6  UNL     1      38.257  -0.069  70.157  1.00  0.00     0.163 A 
HETATM    2  N2  UNL     1      38.998   0.353  69.011  1.00  0.00    -0.375 N 
HETATM    3  C7  UNL     1      39.938  -0.349  68.273  1.00  0.00     0.319 C 
HETATM    4  C12 UNL     1      39.707  -0.742  66.864  1.00  0.00     0.057 C 
HETATM    5  C13 UNL     1      38.910  -1.799  66.285  1.00  0.00     0.004 C 
HETATM    6  O2  UNL     1      37.445  -1.808  66.667  1.00  0.00     0.000 OA
HETATM    7  C14 UNL     1      37.529  -1.820  68.155  1.00  0.00     0.061 A 
HETATM    8  C15 UNL     1      37.451  -0.543  67.557  1.00  0.00     0.003 A 
HETATM    9  C16 UNL     1      37.661  -1.001  68.852  1.00  0.00     0.100 A 
HETATM   10  C17 UNL     1      37.863  -1.494  70.109  1.00  0.00     0.055 A 
HETATM   11  C18 UNL     1      37.706  -2.560  69.249  1.00  0.00     0.108 A 
HETATM   12  C19 UNL     1      37.498  -3.113  68.021  1.00  0.00     0.071 A 
HETATM   13  O3  UNL     1      37.423  -4.384  67.619  1.00  0.00    -0.353 OA
HETATM   14  C20 UNL     1      37.048  -5.441  68.522  1.00  0.00     0.201 C 
HETATM   15  C21 UNL     1      37.171  -4.913  69.932  1.00  0.00     0.196 C 
HETATM   16  O4  UNL     1      37.819  -3.699  70.064  1.00  0.00    -0.372 OA
HETATM   17  H11 UNL     1      38.917   1.380  68.838  1.00  0.00     0.157 HD
ENDROOT
BRANCH   1  18
HETATM   18  N1  UNL     1      37.136   0.762  70.513  1.00  0.00    -0.381 N 
HETATM   19  H9  UNL     1      36.265   0.500  69.952  1.00  0.00     0.160 HD
BRANCH  18  20
HETATM   20  C5  UNL     1      37.037   1.820  71.432  1.00  0.00     0.080 C 
HETATM   21  C4  UNL     1      37.608   2.990  71.730  1.00  0.00    -0.010 C 
BRANCH  21  22
HETATM   22  C3  UNL     1      37.117   3.807  72.869  1.00  0.00     0.031 C 
BRANCH  22  23
HETATM   23  C2  UNL     1      37.060   5.259  72.462  1.00  0.00     0.035 C 
BRANCH  23  24
HETATM   24  C1  UNL     1      37.686   5.491  71.110  1.00  0.00     0.222 C 
HETATM   25  F1  UNL     1      36.712   5.889  70.209  1.00  0.00    -0.255 F 
ENDBRANCH  23  24
ENDBRANCH  22  23
ENDBRANCH  21  22
ENDBRANCH  18  20
ENDBRANCH   1  18
BRANCH   3  26
HETATM   26  N3  UNL     1      40.586  -1.432  69.039  1.00  0.00     0.115 NA
HETATM   27  C8  UNL     1      41.318  -2.322  68.161  1.00  0.00     0.301 C 
HETATM   28  C9  UNL     1      42.037  -3.296  69.076  1.00  0.00     0.198 C 
HETATM   29  O1  UNL     1      43.175  -2.651  69.549  1.00  0.00    -0.388 OA
HETATM   30  C10 UNL     1      43.015  -1.296  69.506  1.00  0.00     0.198 C 
HETATM   31  C11 UNL     1      41.631  -0.822  69.884  1.00  0.00     0.301 C 
ENDBRANCH   3  26
TORSDOF 6
ENDMDL
MODEL 9
REMARK VINA RESULT:      -6.4      2.663      3.858
REMARK  6 active torsions:
REMARK  status: ('A' for Active; 'I' for Inactive)
REMARK    1  A    between atoms: C1_2  and  C2_3 
REMARK    2  A    between atoms: C2_3  and  C3_4 
REMARK    3  A    between atoms: C3_4  and  C4_5 
REMARK    4  A    between atoms: C5_6  and  N1_7 
REMARK    5  A    between atoms: N1_7  and  C6_8 
REMARK    6  A    between atoms: C7_10  and  N3_11 
ROOT
HETATM    1  C6  UNL     1      22.724   1.482  50.776  1.00  0.00     0.163 A 
HETATM    2  N2  UNL     1      22.825   2.896  50.602  1.00  0.00    -0.375 N 
HETATM    3  C7  UNL     1      22.016   3.743  49.860  1.00  0.00     0.319 C 
HETATM    4  C12 UNL     1      21.171   4.784  50.489  1.00  0.00     0.057 C 
HETATM    5  C13 UNL     1      19.914   4.697  51.196  1.00  0.00     0.004 C 
HETATM    6  O2  UNL     1      19.889   3.766  52.390  1.00  0.00     0.000 OA
HETATM    7  C14 UNL     1      20.363   2.492  51.780  1.00  0.00     0.061 A 
HETATM    8  C15 UNL     1      21.367   3.315  52.336  1.00  0.00     0.003 A 
HETATM    9  C16 UNL     1      21.371   2.145  51.585  1.00  0.00     0.100 A 
HETATM   10  C17 UNL     1      21.329   0.998  50.848  1.00  0.00     0.055 A 
HETATM   11  C18 UNL     1      20.034   1.413  51.071  1.00  0.00     0.108 A 
HETATM   12  C19 UNL     1      19.098   2.263  51.580  1.00  0.00     0.071 A 
HETATM   13  O3  UNL     1      17.764   2.257  51.522  1.00  0.00    -0.353 OA
HETATM   14  C20 UNL     1      17.023   1.041  51.315  1.00  0.00     0.201 C 
HETATM   15  C21 UNL     1      17.985  -0.010  50.812  1.00  0.00     0.196 C 
HETATM   16  O4  UNL     1      19.233   0.450  50.434  1.00  0.00    -0.372 OA
HETATM   17  H11 UNL     1      23.729   3.280  50.955  1.00  0.00     0.157 HD
ENDROOT
BRANCH   1  18
HETATM   18  N1  UNL     1      23.515   0.931  51.846  1.00  0.00    -0.381 N 
HETATM   19  H9  UNL     1      22.932   0.290  52.470  1.00  0.00     0.160 HD
BRANCH  18  20
HETATM   20  C5  UNL     1      24.868   1.118  52.173  1.00  0.00     0.080 C 
HETATM   21  C4  UNL     1      26.079   0.622  51.901  1.00  0.00    -0.010 C 
BRANCH  21  22
HETATM   22  C3  UNL     1      27.295   1.195  52.533  1.00  0.00     0.031 C 
BRANCH  22  23
HETATM   23  C2  UNL     1      28.012   0.121  53.314  1.00  0.00     0.035 C 
BRANCH  23  24
HETATM   24  C1  UNL     1      27.756   0.236  54.797  1.00  0.00     0.222 C 
HETATM   25  F1  UNL     1      26.487  -0.236  55.087  1.00  0.00    -0.255 F 
ENDBRANCH  23  24
ENDBRANCH  22  23
ENDBRANCH  21  22
ENDBRANCH  18  20
ENDBRANCH   1  18
BRANCH   3  26
HETATM   26  N3  UNL     1      21.302   3.053  48.767  1.00  0.00     0.115 NA
HETATM   27  C8  UNL     1      20.247   3.889  48.229  1.00  0.00     0.301 C 
HETATM   28  C9  UNL     1      19.691   3.127  47.040  1.00  0.00     0.198 C 
HETATM   29  O1  UNL     1      20.555   3.344  45.973  1.00  0.00    -0.388 OA
HETATM   30  C10 UNL     1      21.803   3.669  46.420  1.00  0.00     0.198 C 
HETATM   31  C11 UNL     1      22.245   2.899  47.642  1.00  0.00     0.301 C 
ENDBRANCH   3  26
TORSDOF 6
ENDMDL
