MODEL 1
REMARK VINA RESULT:      -8.6      0.000      0.000
REMARK  7 active torsions:
REMARK  status: ('A' for Active; 'I' for Inactive)
REMARK    1  A    between atoms: N1_2  and  C2_3 
REMARK    2  A    between atoms: C2_3  and  C3_4 
REMARK    3  A    between atoms: C4_5  and  C5_6 
REMARK    4  A    between atoms: C5_6  and  N2_7 
REMARK    5  A    between atoms: C5_6  and  C6_8 
REMARK    6  A    between atoms: C13_17  and  N5_18 
REMARK    7  A    between atoms: N5_18  and  C14_19 
ROOT
HETATM    1  C6  UNL     1      24.210   3.587  49.949  1.00  0.00    -0.021 A 
HETATM    2  C7  UNL     1      23.275   3.276  48.968  1.00  0.00     0.012 A 
HETATM    3  C8  UNL     1      22.309   2.292  49.134  1.00  0.00     0.033 A 
HETATM    4  C9  UNL     1      22.278   1.588  50.332  1.00  0.00     0.069 A 
HETATM    5  N3  UNL     1      21.366   0.623  50.538  1.00  0.00    -0.259 NA
HETATM    6  C10 UNL     1      21.314  -0.081  51.683  1.00  0.00     0.142 A 
HETATM    7  C11 UNL     1      22.247   0.220  52.679  1.00  0.00     0.089 A 
HETATM    8  C12 UNL     1      22.141  -0.562  53.874  1.00  0.00     0.103 C 
HETATM    9  N4  UNL     1      22.071  -1.185  54.847  1.00  0.00    -0.191 NA
HETATM   10  C13 UNL     1      23.194   1.222  52.467  1.00  0.00     0.067 A 
HETATM   11  C20 UNL     1      23.215   1.915  51.289  1.00  0.00     0.021 A 
HETATM   12  C21 UNL     1      24.195   2.898  51.151  1.00  0.00     0.025 A 
ENDROOT
BRANCH  10  13
HETATM   13  N5  UNL     1      24.056   1.384  53.561  1.00  0.00    -0.354 N 
HETATM   14  H15 UNL     1      23.853   1.861  54.491  1.00  0.00     0.166 HD
BRANCH  13  15
HETATM   15  C14 UNL     1      25.368   0.848  53.425  1.00  0.00     0.033 A 
HETATM   16  C15 UNL     1      25.562  -0.412  52.867  1.00  0.00     0.029 A 
HETATM   17  C16 UNL     1      26.792  -0.988  52.694  1.00  0.00     0.004 A 
HETATM   18  C17 UNL     1      27.870  -0.229  53.115  1.00  0.00     0.019 A 
HETATM   19  C18 UNL     1      27.791   1.026  53.678  1.00  0.00     0.013 A 
HETATM   20 BR1  UNL     1      29.327   2.021  54.236  1.00  0.00    -0.051 Br
HETATM   21  C19 UNL     1      26.504   1.519  53.811  1.00  0.00     0.048 A 
ENDBRANCH  13  15
ENDBRANCH  10  13
BRANCH   1  22
HETATM   22  C5  UNL     1      25.206   4.662  49.656  1.00  0.00     0.273 C 
BRANCH  22  23
HETATM   23  C4  UNL     1      26.535   4.074  49.325  1.00  0.00     0.010 C 
HETATM   24  C3  UNL     1      27.582   4.631  48.763  1.00  0.00     0.001 C 
BRANCH  24  25
HETATM   25  C2  UNL     1      28.057   5.901  48.204  1.00  0.00     0.296 C 
BRANCH  25  26
HETATM   26  N1  UNL     1      28.132   6.986  49.145  1.00  0.00     0.082 N 
HETATM   27  C1  UNL     1      27.184   8.036  48.949  1.00  0.00     0.307 C 
HETATM   28  H4  UNL     1      29.093   7.339  49.288  1.00  0.00     0.315 HD
ENDBRANCH  25  26
ENDBRANCH  24  25
ENDBRANCH  22  23
BRANCH  22  29
HETATM   29  N2  UNL     1      25.281   5.525  50.808  1.00  0.00     0.090 N 
HETATM   30  H10 UNL     1      24.450   5.346  51.404  1.00  0.00     0.314 HD
HETATM   31  H11 UNL     1      25.226   6.510  50.492  1.00  0.00     0.314 HD
ENDBRANCH  22  29
ENDBRANCH   1  22
TORSDOF 7
ENDMDL
MODEL 2
REMARK VINA RESULT:      -8.4      2.973      5.677
REMARK  7 active torsions:
REMARK  status: ('A' for Active; 'I' for Inactive)
REMARK    1  A    between atoms: N1_2  and  C2_3 
REMARK    2  A    between atoms: C2_3  and  C3_4 
REMARK    3  A    between atoms: C4_5  and  C5_6 
REMARK    4  A    between atoms: C5_6  and  N2_7 
REMARK    5  A    between atoms: C5_6  and  C6_8 
REMARK    6  A    between atoms: C13_17  and  N5_18 
REMARK    7  A    between atoms: N5_18  and  C14_19 
ROOT
HETATM    1  C6  UNL     1      24.744  -0.533  54.014  1.00  0.00    -0.021 A 
HETATM    2  C7  UNL     1      24.166  -1.138  55.125  1.00  0.00     0.012 A 
HETATM    3  C8  UNL     1      22.792  -1.293  55.268  1.00  0.00     0.033 A 
HETATM    4  C9  UNL     1      21.962  -0.822  54.256  1.00  0.00     0.069 A 
HETATM    5  N3  UNL     1      20.628  -0.943  54.351  1.00  0.00    -0.259 NA
HETATM    6  C10 UNL     1      19.798  -0.492  53.394  1.00  0.00     0.142 A 
HETATM    7  C11 UNL     1      20.364   0.118  52.271  1.00  0.00     0.089 A 
HETATM    8  C12 UNL     1      19.431   0.577  51.288  1.00  0.00     0.103 C 
HETATM    9  N4  UNL     1      18.691   0.956  50.481  1.00  0.00    -0.191 NA
HETATM   10  C13 UNL     1      21.750   0.245  52.172  1.00  0.00     0.067 A 
HETATM   11  C20 UNL     1      22.561  -0.226  53.166  1.00  0.00     0.021 A 
HETATM   12  C21 UNL     1      23.934  -0.058  52.996  1.00  0.00     0.025 A 
ENDROOT
BRANCH  10  13
HETATM   13  N5  UNL     1      22.145   0.890  50.991  1.00  0.00    -0.354 N 
HETATM   14  H15 UNL     1      22.048   0.541  49.990  1.00  0.00     0.166 HD
BRANCH  13  15
HETATM   15  C14 UNL     1      22.750   2.170  51.134  1.00  0.00     0.033 A 
HETATM   16  C15 UNL     1      22.203   3.118  51.992  1.00  0.00     0.029 A 
HETATM   17  C16 UNL     1      22.734   4.365  52.190  1.00  0.00     0.004 A 
HETATM   18  C17 UNL     1      23.881   4.645  51.469  1.00  0.00     0.019 A 
HETATM   19  C18 UNL     1      24.505   3.782  50.595  1.00  0.00     0.013 A 
HETATM   20 BR1  UNL     1      26.093   4.237  49.631  1.00  0.00    -0.051 Br
HETATM   21  C19 UNL     1      23.890   2.548  50.465  1.00  0.00     0.048 A 
ENDBRANCH  13  15
ENDBRANCH  10  13
BRANCH   1  22
HETATM   22  C5  UNL     1      26.233  -0.416  53.973  1.00  0.00     0.273 C 
BRANCH  22  23
HETATM   23  C4  UNL     1      26.645   0.855  53.312  1.00  0.00     0.010 C 
HETATM   24  C3  UNL     1      27.773   1.519  53.402  1.00  0.00     0.001 C 
BRANCH  24  25
HETATM   25  C2  UNL     1      29.087   1.487  54.053  1.00  0.00     0.296 C 
BRANCH  25  26
HETATM   26  N1  UNL     1      30.073   0.681  53.385  1.00  0.00     0.082 N 
HETATM   27  C1  UNL     1      30.046  -0.711  53.702  1.00  0.00     0.307 C 
HETATM   28  H4  UNL     1      31.026   1.080  53.429  1.00  0.00     0.315 HD
ENDBRANCH  25  26
ENDBRANCH  24  25
ENDBRANCH  22  23
BRANCH  22  29
HETATM   29  N2  UNL     1      26.750  -1.567  53.277  1.00  0.00     0.090 N 
HETATM   30  H10 UNL     1      26.186  -2.395  53.551  1.00  0.00     0.314 HD
HETATM   31  H11 UNL     1      27.722  -1.740  53.591  1.00  0.00     0.314 HD
ENDBRANCH  22  29
ENDBRANCH   1  22
TORSDOF 7
ENDMDL
MODEL 3
REMARK VINA RESULT:      -8.3      3.073      5.866
REMARK  7 active torsions:
REMARK  status: ('A' for Active; 'I' for Inactive)
REMARK    1  A    between atoms: N1_2  and  C2_3 
REMARK    2  A    between atoms: C2_3  and  C3_4 
REMARK    3  A    between atoms: C4_5  and  C5_6 
REMARK    4  A    between atoms: C5_6  and  N2_7 
REMARK    5  A    between atoms: C5_6  and  C6_8 
REMARK    6  A    between atoms: C13_17  and  N5_18 
REMARK    7  A    between atoms: N5_18  and  C14_19 
ROOT
HETATM    1  C6  UNL     1      23.683  -0.435  54.034  1.00  0.00    -0.021 A 
HETATM    2  C7  UNL     1      22.780  -1.069  54.880  1.00  0.00     0.012 A 
HETATM    3  C8  UNL     1      21.416  -1.124  54.620  1.00  0.00     0.033 A 
HETATM    4  C9  UNL     1      20.936  -0.517  53.464  1.00  0.00     0.069 A 
HETATM    5  N3  UNL     1      19.625  -0.538  53.172  1.00  0.00    -0.259 NA
HETATM    6  C10 UNL     1      19.128   0.045  52.066  1.00  0.00     0.142 A 
HETATM    7  C11 UNL     1      20.024   0.686  51.205  1.00  0.00     0.089 A 
HETATM    8  C12 UNL     1      19.438   1.286  50.046  1.00  0.00     0.103 C 
HETATM    9  N4  UNL     1      18.980   1.779  49.103  1.00  0.00    -0.191 NA
HETATM   10  C13 UNL     1      21.387   0.708  51.508  1.00  0.00     0.067 A 
HETATM   11  C20 UNL     1      21.853   0.104  52.642  1.00  0.00     0.021 A 
HETATM   12  C21 UNL     1      23.225   0.174  52.878  1.00  0.00     0.025 A 
ENDROOT
BRANCH  10  13
HETATM   13  N5  UNL     1      22.137   1.400  50.547  1.00  0.00    -0.354 N 
HETATM   14  H15 UNL     1      22.426   1.069  49.578  1.00  0.00     0.166 HD
BRANCH  13  15
HETATM   15  C14 UNL     1      22.571   2.710  50.898  1.00  0.00     0.033 A 
HETATM   16  C15 UNL     1      21.922   3.425  51.900  1.00  0.00     0.029 A 
HETATM   17  C16 UNL     1      22.288   4.682  52.299  1.00  0.00     0.004 A 
HETATM   18  C17 UNL     1      23.373   5.226  51.635  1.00  0.00     0.019 A 
HETATM   19  C18 UNL     1      24.087   4.607  50.632  1.00  0.00     0.013 A 
HETATM   20 BR1  UNL     1      25.581   5.420  49.757  1.00  0.00    -0.051 Br
HETATM   21  C19 UNL     1      23.637   3.340  50.301  1.00  0.00     0.048 A 
ENDBRANCH  13  15
ENDBRANCH  10  13
BRANCH   1  22
HETATM   22  C5  UNL     1      25.126  -0.436  54.421  1.00  0.00     0.273 C 
BRANCH  22  23
HETATM   23  C4  UNL     1      25.979  -0.864  53.275  1.00  0.00     0.010 C 
HETATM   24  C3  UNL     1      27.270  -0.713  53.089  1.00  0.00     0.001 C 
BRANCH  24  25
HETATM   25  C2  UNL     1      28.473  -0.157  53.716  1.00  0.00     0.296 C 
BRANCH  25  26
HETATM   26  N1  UNL     1      28.284   1.110  54.370  1.00  0.00     0.082 N 
HETATM   27  C1  UNL     1      28.430   2.260  53.536  1.00  0.00     0.307 C 
HETATM   28  H4  UNL     1      28.805   1.195  55.258  1.00  0.00     0.315 HD
ENDBRANCH  25  26
ENDBRANCH  24  25
ENDBRANCH  22  23
BRANCH  22  29
HETATM   29  N2  UNL     1      25.283  -1.313  55.553  1.00  0.00     0.090 N 
HETATM   30  H10 UNL     1      25.689  -2.208  55.218  1.00  0.00     0.314 HD
HETATM   31  H11 UNL     1      24.348  -1.527  55.943  1.00  0.00     0.314 HD
ENDBRANCH  22  29
ENDBRANCH   1  22
TORSDOF 7
ENDMDL
MODEL 4
REMARK VINA RESULT:      -8.0      3.063      7.325
REMARK  7 active torsions:
REMARK  status: ('A' for Active; 'I' for Inactive)
REMARK    1  A    between atoms: N1_2  and  C2_3 
REMARK    2  A    between atoms: C2_3  and  C3_4 
REMARK    3  A    between atoms: C4_5  and  C5_6 
REMARK    4  A    between atoms: C5_6  and  N2_7 
REMARK    5  A    between atoms: C5_6  and  C6_8 
REMARK    6  A    between atoms: C13_17  and  N5_18 
REMARK    7  A    between atoms: N5_18  and  C14_19 
ROOT
HETATM    1  C6  UNL     1      21.394   0.760  52.953  1.00  0.00    -0.021 A 
HETATM    2  C7  UNL     1      21.538  -0.605  53.174  1.00  0.00     0.012 A 
HETATM    3  C8  UNL     1      22.764  -1.199  53.446  1.00  0.00     0.033 A 
HETATM    4  C9  UNL     1      23.895  -0.391  53.497  1.00  0.00     0.069 A 
HETATM    5  N3  UNL     1      25.104  -0.919  53.750  1.00  0.00    -0.259 NA
HETATM    6  C10 UNL     1      26.218  -0.167  53.800  1.00  0.00     0.142 A 
HETATM    7  C11 UNL     1      26.090   1.208  53.579  1.00  0.00     0.089 A 
HETATM    8  C12 UNL     1      27.309   1.955  53.645  1.00  0.00     0.103 C 
HETATM    9  N4  UNL     1      28.286   2.576  53.694  1.00  0.00    -0.191 NA
HETATM   10  C13 UNL     1      24.834   1.757  53.317  1.00  0.00     0.067 A 
HETATM   11  C20 UNL     1      23.725   0.959  53.274  1.00  0.00     0.021 A 
HETATM   12  C21 UNL     1      22.508   1.581  53.001  1.00  0.00     0.025 A 
ENDROOT
BRANCH  10  13
HETATM   13  N5  UNL     1      24.889   3.143  53.110  1.00  0.00    -0.354 N 
HETATM   14  H15 UNL     1      25.124   3.902  53.817  1.00  0.00     0.166 HD
BRANCH  13  15
HETATM   15  C14 UNL     1      24.599   3.604  51.794  1.00  0.00     0.033 A 
HETATM   16  C15 UNL     1      25.282   3.089  50.698  1.00  0.00     0.029 A 
HETATM   17  C16 UNL     1      25.050   3.475  49.404  1.00  0.00     0.004 A 
HETATM   18  C17 UNL     1      24.067   4.434  49.236  1.00  0.00     0.019 A 
HETATM   19  C18 UNL     1      23.332   5.009  50.249  1.00  0.00     0.013 A 
HETATM   20 BR1  UNL     1      21.985   6.332  49.942  1.00  0.00    -0.051 Br
HETATM   21  C19 UNL     1      23.642   4.553  51.519  1.00  0.00     0.048 A 
ENDBRANCH  13  15
ENDBRANCH  10  13
BRANCH   1  22
HETATM   22  C5  UNL     1      20.025   1.285  52.665  1.00  0.00     0.273 C 
BRANCH  22  23
HETATM   23  C4  UNL     1      19.362   0.473  51.604  1.00  0.00     0.010 C 
HETATM   24  C3  UNL     1      18.301  -0.297  51.678  1.00  0.00     0.001 C 
BRANCH  24  25
HETATM   25  C2  UNL     1      17.284  -0.779  52.618  1.00  0.00     0.296 C 
BRANCH  25  26
HETATM   26  N1  UNL     1      17.800  -1.495  53.754  1.00  0.00     0.082 N 
HETATM   27  C1  UNL     1      17.616  -2.911  53.724  1.00  0.00     0.307 C 
HETATM   28  H4  UNL     1      17.528  -1.078  54.660  1.00  0.00     0.315 HD
ENDBRANCH  25  26
ENDBRANCH  24  25
ENDBRANCH  22  23
BRANCH  22  29
HETATM   29  N2  UNL     1      20.151   2.665  52.272  1.00  0.00     0.090 N 
HETATM   30  H10 UNL     1      20.488   2.696  51.290  1.00  0.00     0.314 HD
HETATM   31  H11 UNL     1      20.876   3.115  52.859  1.00  0.00     0.314 HD
ENDBRANCH  22  29
ENDBRANCH   1  22
TORSDOF 7
ENDMDL
MODEL 5
REMARK VINA RESULT:      -7.9      2.570      5.928
REMARK  7 active torsions:
REMARK  status: ('A' for Active; 'I' for Inactive)
REMARK    1  A    between atoms: N1_2  and  C2_3 
REMARK    2  A    between atoms: C2_3  and  C3_4 
REMARK    3  A    between atoms: C4_5  and  C5_6 
REMARK    4  A    between atoms: C5_6  and  N2_7 
REMARK    5  A    between atoms: C5_6  and  C6_8 
REMARK    6  A    between atoms: C13_17  and  N5_18 
REMARK    7  A    between atoms: N5_18  and  C14_19 
ROOT
HETATM    1  C6  UNL     1      25.791   0.748  52.794  1.00  0.00    -0.021 A 
HETATM    2  C7  UNL     1      25.290  -0.011  53.847  1.00  0.00     0.012 A 
HETATM    3  C8  UNL     1      23.942  -0.326  53.973  1.00  0.00     0.033 A 
HETATM    4  C9  UNL     1      23.059   0.139  53.005  1.00  0.00     0.069 A 
HETATM    5  N3  UNL     1      21.746  -0.134  53.087  1.00  0.00    -0.259 NA
HETATM    6  C10 UNL     1      20.864   0.306  52.171  1.00  0.00     0.142 A 
HETATM    7  C11 UNL     1      21.352   1.069  51.107  1.00  0.00     0.089 A 
HETATM    8  C12 UNL     1      20.368   1.508  50.166  1.00  0.00     0.103 C 
HETATM    9  N4  UNL     1      19.584   1.873  49.394  1.00  0.00    -0.191 NA
HETATM   10  C13 UNL     1      22.716   1.353  51.021  1.00  0.00     0.067 A 
HETATM   11  C20 UNL     1      23.581   0.888  51.972  1.00  0.00     0.021 A 
HETATM   12  C21 UNL     1      24.927   1.219  51.820  1.00  0.00     0.025 A 
ENDROOT
BRANCH  10  13
HETATM   13  N5  UNL     1      23.030   2.137  49.901  1.00  0.00    -0.354 N 
HETATM   14  H15 UNL     1      22.950   1.873  48.873  1.00  0.00     0.166 HD
BRANCH  13  15
HETATM   15  C14 UNL     1      23.514   3.451  50.157  1.00  0.00     0.033 A 
HETATM   16  C15 UNL     1      22.904   4.255  51.114  1.00  0.00     0.029 A 
HETATM   17  C16 UNL     1      23.320   5.523  51.423  1.00  0.00     0.004 A 
HETATM   18  C17 UNL     1      24.415   5.981  50.710  1.00  0.00     0.019 A 
HETATM   19  C18 UNL     1      25.092   5.270  49.744  1.00  0.00     0.013 A 
HETATM   20 BR1  UNL     1      26.602   5.967  48.799  1.00  0.00    -0.051 Br
HETATM   21  C19 UNL     1      24.593   4.000  49.506  1.00  0.00     0.048 A 
ENDBRANCH  13  15
ENDBRANCH  10  13
BRANCH   1  22
HETATM   22  C5  UNL     1      27.258   1.028  52.766  1.00  0.00     0.273 C 
BRANCH  22  23
HETATM   23  C4  UNL     1      27.913   0.534  54.011  1.00  0.00     0.010 C 
HETATM   24  C3  UNL     1      28.798  -0.423  54.170  1.00  0.00     0.001 C 
BRANCH  24  25
HETATM   25  C2  UNL     1      29.566  -1.425  53.424  1.00  0.00     0.296 C 
BRANCH  25  26
HETATM   26  N1  UNL     1      28.921  -2.704  53.289  1.00  0.00     0.082 N 
HETATM   27  C1  UNL     1      27.630  -2.680  52.677  1.00  0.00     0.307 C 
HETATM   28  H4  UNL     1      28.939  -3.265  54.157  1.00  0.00     0.315 HD
ENDBRANCH  25  26
ENDBRANCH  24  25
ENDBRANCH  22  23
BRANCH  22  29
HETATM   29  N2  UNL     1      27.437   2.448  52.602  1.00  0.00     0.090 N 
HETATM   30  H10 UNL     1      28.369   2.612  52.175  1.00  0.00     0.314 HD
HETATM   31  H11 UNL     1      27.445   2.894  53.537  1.00  0.00     0.314 HD
ENDBRANCH  22  29
ENDBRANCH   1  22
TORSDOF 7
ENDMDL
MODEL 6
REMARK VINA RESULT:      -7.9      2.738      5.771
REMARK  7 active torsions:
REMARK  status: ('A' for Active; 'I' for Inactive)
REMARK    1  A    between atoms: N1_2  and  C2_3 
REMARK    2  A    between atoms: C2_3  and  C3_4 
REMARK    3  A    between atoms: C4_5  and  C5_6 
REMARK    4  A    between atoms: C5_6  and  N2_7 
REMARK    5  A    between atoms: C5_6  and  C6_8 
REMARK    6  A    between atoms: C13_17  and  N5_18 
REMARK    7  A    between atoms: N5_18  and  C14_19 
ROOT
HETATM    1  C6  UNL     1      23.795   1.141  53.072  1.00  0.00    -0.021 A 
HETATM    2  C7  UNL     1      22.585   0.478  52.901  1.00  0.00     0.012 A 
HETATM    3  C8  UNL     1      21.455   1.097  52.381  1.00  0.00     0.033 A 
HETATM    4  C9  UNL     1      21.539   2.436  52.018  1.00  0.00     0.069 A 
HETATM    5  N3  UNL     1      20.472   3.080  51.517  1.00  0.00    -0.259 NA
HETATM    6  C10 UNL     1      20.519   4.377  51.163  1.00  0.00     0.142 A 
HETATM    7  C11 UNL     1      21.729   5.057  51.329  1.00  0.00     0.089 A 
HETATM    8  C12 UNL     1      21.717   6.433  50.935  1.00  0.00     0.103 C 
HETATM    9  N4  UNL     1      21.726   7.548  50.622  1.00  0.00    -0.191 NA
HETATM   10  C13 UNL     1      22.838   4.389  51.849  1.00  0.00     0.067 A 
HETATM   11  C20 UNL     1      22.750   3.070  52.198  1.00  0.00     0.021 A 
HETATM   12  C21 UNL     1      23.900   2.475  52.716  1.00  0.00     0.025 A 
ENDROOT
BRANCH  10  13
HETATM   13  N5  UNL     1      23.961   5.222  51.959  1.00  0.00    -0.354 N 
HETATM   14  H15 UNL     1      24.213   5.881  52.755  1.00  0.00     0.166 HD
BRANCH  13  15
HETATM   15  C14 UNL     1      24.887   5.190  50.878  1.00  0.00     0.033 A 
HETATM   16  C15 UNL     1      25.506   3.999  50.513  1.00  0.00     0.029 A 
HETATM   17  C16 UNL     1      26.398   3.889  49.479  1.00  0.00     0.004 A 
HETATM   18  C17 UNL     1      26.661   5.061  48.791  1.00  0.00     0.019 A 
HETATM   19  C18 UNL     1      26.104   6.290  49.068  1.00  0.00     0.013 A 
HETATM   20 BR1  UNL     1      26.514   7.872  48.072  1.00  0.00    -0.051 Br
HETATM   21  C19 UNL     1      25.217   6.297  50.131  1.00  0.00     0.048 A 
ENDBRANCH  13  15
ENDBRANCH  10  13
BRANCH   1  22
HETATM   22  C5  UNL     1      24.942   0.373  53.646  1.00  0.00     0.273 C 
BRANCH  22  23
HETATM   23  C4  UNL     1      25.987   0.134  52.610  1.00  0.00     0.010 C 
HETATM   24  C3  UNL     1      27.035   0.857  52.294  1.00  0.00     0.001 C 
BRANCH  24  25
HETATM   25  C2  UNL     1      27.735   2.097  52.646  1.00  0.00     0.296 C 
BRANCH  25  26
HETATM   26  N1  UNL     1      28.127   2.199  54.026  1.00  0.00     0.082 N 
HETATM   27  C1  UNL     1      29.198   1.343  54.426  1.00  0.00     0.307 C 
HETATM   28  H4  UNL     1      27.329   2.169  54.682  1.00  0.00     0.315 HD
ENDBRANCH  25  26
ENDBRANCH  24  25
ENDBRANCH  22  23
BRANCH  22  29
HETATM   29  N2  UNL     1      24.428  -0.865  54.175  1.00  0.00     0.090 N 
HETATM   30  H10 UNL     1      24.891  -1.047  55.086  1.00  0.00     0.314 HD
HETATM   31  H11 UNL     1      24.692  -1.637  53.536  1.00  0.00     0.314 HD
ENDBRANCH  22  29
ENDBRANCH   1  22
TORSDOF 7
ENDMDL
MODEL 7
REMARK VINA RESULT:      -7.8      3.362      6.144
REMARK  7 active torsions:
REMARK  status: ('A' for Active; 'I' for Inactive)
REMARK    1  A    between atoms: N1_2  and  C2_3 
REMARK    2  A    between atoms: C2_3  and  C3_4 
REMARK    3  A    between atoms: C4_5  and  C5_6 
REMARK    4  A    between atoms: C5_6  and  N2_7 
REMARK    5  A    between atoms: C5_6  and  C6_8 
REMARK    6  A    between atoms: C13_17  and  N5_18 
REMARK    7  A    between atoms: N5_18  and  C14_19 
ROOT
HETATM    1  C6  UNL     1      20.572  -0.116  52.437  1.00  0.00    -0.021 A 
HETATM    2  C7  UNL     1      20.058  -0.817  53.522  1.00  0.00     0.012 A 
HETATM    3  C8  UNL     1      20.852  -1.281  54.563  1.00  0.00     0.033 A 
HETATM    4  C9  UNL     1      22.220  -1.034  54.516  1.00  0.00     0.069 A 
HETATM    5  N3  UNL     1      23.030  -1.468  55.495  1.00  0.00    -0.259 NA
HETATM    6  C10 UNL     1      24.358  -1.252  55.476  1.00  0.00     0.142 A 
HETATM    7  C11 UNL     1      24.890  -0.548  54.391  1.00  0.00     0.089 A 
HETATM    8  C12 UNL     1      26.307  -0.349  54.426  1.00  0.00     0.103 C 
HETATM    9  N4  UNL     1      27.453  -0.179  54.437  1.00  0.00    -0.191 NA
HETATM   10  C13 UNL     1      24.049  -0.097  53.373  1.00  0.00     0.067 A 
HETATM   11  C20 UNL     1      22.704  -0.337  53.429  1.00  0.00     0.021 A 
HETATM   12  C21 UNL     1      21.932   0.141  52.372  1.00  0.00     0.025 A 
ENDROOT
BRANCH  10  13
HETATM   13  N5  UNL     1      24.748   0.577  52.362  1.00  0.00    -0.354 N 
HETATM   14  H15 UNL     1      25.525   0.201  51.740  1.00  0.00     0.166 HD
BRANCH  13  15
HETATM   15  C14 UNL     1      24.381   1.933  52.126  1.00  0.00     0.033 A 
HETATM   16  C15 UNL     1      24.256   2.825  53.186  1.00  0.00     0.029 A 
HETATM   17  C16 UNL     1      23.919   4.144  53.037  1.00  0.00     0.004 A 
HETATM   18  C17 UNL     1      23.702   4.560  51.735  1.00  0.00     0.019 A 
HETATM   19  C18 UNL     1      23.799   3.763  50.616  1.00  0.00     0.013 A 
HETATM   20 BR1  UNL     1      23.486   4.407  48.842  1.00  0.00    -0.051 Br
HETATM   21  C19 UNL     1      24.144   2.447  50.873  1.00  0.00     0.048 A 
ENDBRANCH  13  15
ENDBRANCH  10  13
BRANCH   1  22
HETATM   22  C5  UNL     1      19.622   0.329  51.374  1.00  0.00     0.273 C 
BRANCH  22  23
HETATM   23  C4  UNL     1      19.808   1.777  51.072  1.00  0.00     0.010 C 
HETATM   24  C3  UNL     1      20.168   2.360  49.952  1.00  0.00     0.001 C 
BRANCH  24  25
HETATM   25  C2  UNL     1      20.547   2.071  48.566  1.00  0.00     0.296 C 
BRANCH  25  26
HETATM   26  N1  UNL     1      19.610   2.526  47.575  1.00  0.00     0.082 N 
HETATM   27  C1  UNL     1      18.454   3.195  48.083  1.00  0.00     0.307 C 
HETATM   28  H4  UNL     1      19.374   1.806  46.871  1.00  0.00     0.315 HD
ENDBRANCH  25  26
ENDBRANCH  24  25
ENDBRANCH  22  23
BRANCH  22  29
HETATM   29  N2  UNL     1      18.283   0.053  51.830  1.00  0.00     0.090 N 
HETATM   30  H10 UNL     1      18.289  -0.862  52.322  1.00  0.00     0.314 HD
HETATM   31  H11 UNL     1      17.662  -0.046  51.007  1.00  0.00     0.314 HD
ENDBRANCH  22  29
ENDBRANCH   1  22
TORSDOF 7
ENDMDL
MODEL 8
REMARK VINA RESULT:      -7.8      3.616      7.556
REMARK  7 active torsions:
REMARK  status: ('A' for Active; 'I' for Inactive)
REMARK    1  A    between atoms: N1_2  and  C2_3 
REMARK    2  A    between atoms: C2_3  and  C3_4 
REMARK    3  A    between atoms: C4_5  and  C5_6 
REMARK    4  A    between atoms: C5_6  and  N2_7 
REMARK    5  A    between atoms: C5_6  and  C6_8 
REMARK    6  A    between atoms: C13_17  and  N5_18 
REMARK    7  A    between atoms: N5_18  and  C14_19 
ROOT
HETATM    1  C6  UNL     1      21.462  -0.687  53.472  1.00  0.00    -0.021 A 
HETATM    2  C7  UNL     1      21.732  -1.429  54.616  1.00  0.00     0.012 A 
HETATM    3  C8  UNL     1      22.989  -1.472  55.206  1.00  0.00     0.033 A 
HETATM    4  C9  UNL     1      24.021  -0.742  54.626  1.00  0.00     0.069 A 
HETATM    5  N3  UNL     1      25.255  -0.757  55.155  1.00  0.00    -0.259 NA
HETATM    6  C10 UNL     1      26.275  -0.068  54.614  1.00  0.00     0.142 A 
HETATM    7  C11 UNL     1      26.020   0.683  53.463  1.00  0.00     0.089 A 
HETATM    8  C12 UNL     1      27.143   1.394  52.934  1.00  0.00     0.103 C 
HETATM    9  N4  UNL     1      28.042   1.976  52.491  1.00  0.00    -0.191 NA
HETATM   10  C13 UNL     1      24.738   0.699  52.912  1.00  0.00     0.067 A 
HETATM   11  C20 UNL     1      23.727  -0.015  53.491  1.00  0.00     0.021 A 
HETATM   12  C21 UNL     1      22.476   0.047  52.878  1.00  0.00     0.025 A 
ENDROOT
BRANCH  10  13
HETATM   13  N5  UNL     1      24.662   1.491  51.757  1.00  0.00    -0.354 N 
HETATM   14  H15 UNL     1      25.160   1.345  50.828  1.00  0.00     0.166 HD
BRANCH  13  15
HETATM   15  C14 UNL     1      23.817   2.635  51.822  1.00  0.00     0.033 A 
HETATM   16  C15 UNL     1      24.054   3.637  52.756  1.00  0.00     0.029 A 
HETATM   17  C16 UNL     1      23.293   4.770  52.871  1.00  0.00     0.004 A 
HETATM   18  C17 UNL     1      22.240   4.872  51.979  1.00  0.00     0.019 A 
HETATM   19  C18 UNL     1      21.917   3.941  51.016  1.00  0.00     0.013 A 
HETATM   20 BR1  UNL     1      20.444   4.150  49.813  1.00  0.00    -0.051 Br
HETATM   21  C19 UNL     1      22.746   2.833  50.983  1.00  0.00     0.048 A 
ENDBRANCH  13  15
ENDBRANCH  10  13
BRANCH   1  22
HETATM   22  C5  UNL     1      20.073  -0.721  52.923  1.00  0.00     0.273 C 
BRANCH  22  23
HETATM   23  C4  UNL     1      19.727   0.579  52.282  1.00  0.00     0.010 C 
HETATM   24  C3  UNL     1      18.858   0.841  51.333  1.00  0.00     0.001 C 
BRANCH  24  25
HETATM   25  C2  UNL     1      17.872   0.200  50.457  1.00  0.00     0.296 C 
BRANCH  25  26
HETATM   26  N1  UNL     1      16.862  -0.562  51.140  1.00  0.00     0.082 N 
HETATM   27  C1  UNL     1      15.682  -0.836  50.383  1.00  0.00     0.307 C 
HETATM   28  H4  UNL     1      16.652  -0.208  52.088  1.00  0.00     0.315 HD
ENDBRANCH  25  26
ENDBRANCH  24  25
ENDBRANCH  22  23
BRANCH  22  29
HETATM   29  N2  UNL     1      19.175  -1.032  54.006  1.00  0.00     0.090 N 
HETATM   30  H10 UNL     1      19.726  -1.466  54.772  1.00  0.00     0.314 HD
HETATM   31  H11 UNL     1      18.491  -1.739  53.682  1.00  0.00     0.314 HD
ENDBRANCH  22  29
ENDBRANCH   1  22
TORSDOF 7
ENDMDL
MODEL 9
REMARK VINA RESULT:      -7.7      2.591      4.477
REMARK  7 active torsions:
REMARK  status: ('A' for Active; 'I' for Inactive)
REMARK    1  A    between atoms: N1_2  and  C2_3 
REMARK    2  A    between atoms: C2_3  and  C3_4 
REMARK    3  A    between atoms: C4_5  and  C5_6 
REMARK    4  A    between atoms: C5_6  and  N2_7 
REMARK    5  A    between atoms: C5_6  and  C6_8 
REMARK    6  A    between atoms: C13_17  and  N5_18 
REMARK    7  A    between atoms: N5_18  and  C14_19 
ROOT
HETATM    1  C6  UNL     1      25.230   3.241  50.808  1.00  0.00    -0.021 A 
HETATM    2  C7  UNL     1      26.437   2.553  50.775  1.00  0.00     0.012 A 
HETATM    3  C8  UNL     1      26.638   1.353  51.447  1.00  0.00     0.033 A 
HETATM    4  C9  UNL     1      25.586   0.820  52.183  1.00  0.00     0.069 A 
HETATM    5  N3  UNL     1      25.734  -0.334  52.855  1.00  0.00    -0.259 NA
HETATM    6  C10 UNL     1      24.738  -0.872  53.582  1.00  0.00     0.142 A 
HETATM    7  C11 UNL     1      23.518  -0.192  53.625  1.00  0.00     0.089 A 
HETATM    8  C12 UNL     1      22.497  -0.812  54.413  1.00  0.00     0.103 C 
HETATM    9  N4  UNL     1      21.660  -1.300  55.048  1.00  0.00    -0.191 NA
HETATM   10  C13 UNL     1      23.364   1.007  52.927  1.00  0.00     0.067 A 
HETATM   11  C20 UNL     1      24.400   1.522  52.200  1.00  0.00     0.021 A 
HETATM   12  C21 UNL     1      24.169   2.727  51.536  1.00  0.00     0.025 A 
ENDROOT
BRANCH  10  13
HETATM   13  N5  UNL     1      22.085   1.559  53.089  1.00  0.00    -0.354 N 
HETATM   14  H15 UNL     1      21.722   2.147  53.899  1.00  0.00     0.166 HD
BRANCH  13  15
HETATM   15  C14 UNL     1      21.146   1.312  52.047  1.00  0.00     0.033 A 
HETATM   16  C15 UNL     1      20.066   0.461  52.257  1.00  0.00     0.029 A 
HETATM   17  C16 UNL     1      19.117   0.184  51.309  1.00  0.00     0.004 A 
HETATM   18  C17 UNL     1      19.293   0.814  50.089  1.00  0.00     0.019 A 
HETATM   19  C18 UNL     1      20.323   1.672  49.776  1.00  0.00     0.013 A 
HETATM   20 BR1  UNL     1      20.503   2.511  48.065  1.00  0.00    -0.051 Br
HETATM   21  C19 UNL     1      21.229   1.886  50.801  1.00  0.00     0.048 A 
ENDBRANCH  13  15
ENDBRANCH  10  13
BRANCH   1  22
HETATM   22  C5  UNL     1      25.132   4.525  50.051  1.00  0.00     0.273 C 
BRANCH  22  23
HETATM   23  C4  UNL     1      26.350   4.740  49.218  1.00  0.00     0.010 C 
HETATM   24  C3  UNL     1      26.878   5.858  48.778  1.00  0.00     0.001 C 
BRANCH  24  25
HETATM   25  C2  UNL     1      26.688   7.312  48.791  1.00  0.00     0.296 C 
BRANCH  25  26
HETATM   26  N1  UNL     1      27.216   7.982  49.949  1.00  0.00     0.082 N 
HETATM   27  C1  UNL     1      27.791   9.267  49.707  1.00  0.00     0.307 C 
HETATM   28  H4  UNL     1      27.822   7.379  50.530  1.00  0.00     0.315 HD
ENDBRANCH  25  26
ENDBRANCH  24  25
ENDBRANCH  22  23
BRANCH  22  29
HETATM   29  N2  UNL     1      24.949   5.591  51.004  1.00  0.00     0.090 N 
HETATM   30  H10 UNL     1      25.670   5.493  51.745  1.00  0.00     0.314 HD
HETATM   31  H11 UNL     1      24.025   5.478  51.458  1.00  0.00     0.314 HD
ENDBRANCH  22  29
ENDBRANCH   1  22
TORSDOF 7
ENDMDL
