MODEL 1
REMARK VINA RESULT:      -8.5      0.000      0.000
REMARK  9 active torsions:
REMARK  status: ('A' for Active; 'I' for Inactive)
REMARK    1  A    between atoms: C2_2  and  C3_3 
REMARK    2  A    between atoms: C4_4  and  C5_5 
REMARK    3  A    between atoms: C6_6  and  C7_7 
REMARK    4  A    between atoms: C8_9  and  C9_10 
REMARK    5  A    between atoms: C12_13  and  N2_14 
REMARK    6  A    between atoms: C18_20  and  O1_21 
REMARK    7  A    between atoms: O1_21  and  C19_22 
REMARK    8  A    between atoms: C19_22  and  C20_23 
REMARK    9  A    between atoms: C20_23  and  O2_24 
ROOT
HETATM    1  C7  UNL     1      20.520   0.478  52.445  1.00  0.00     0.146 A 
HETATM    2  N1  UNL     1      21.456   1.231  52.834  1.00  0.00    -0.245 NA
HETATM    3  C8  UNL     1      22.228   1.659  51.640  1.00  0.00     0.142 A 
HETATM    4  C16 UNL     1      22.096   3.153  51.534  1.00  0.00     0.028 C 
HETATM    5  C17 UNL     1      22.369   3.475  50.240  1.00  0.00    -0.017 C 
HETATM    6  C18 UNL     1      22.235   4.928  50.109  1.00  0.00     0.075 C 
HETATM    7  C21 UNL     1      22.296   5.496  48.881  1.00  0.00     0.037 C 
HETATM    8  C22 UNL     1      22.520   4.647  47.718  1.00  0.00    -0.001 C 
HETATM    9  C23 UNL     1      22.692   3.346  47.856  1.00  0.00    -0.017 C 
HETATM   10  C24 UNL     1      22.707   2.597  49.104  1.00  0.00     0.049 C 
HETATM   11  C25 UNL     1      22.010   1.273  49.150  1.00  0.00     0.071 C 
HETATM   12  C26 UNL     1      21.509   1.027  50.552  1.00  0.00     0.054 A 
HETATM   13  N3  UNL     1      20.536   0.338  51.030  1.00  0.00    -0.235 NA
ENDROOT
BRANCH   3  14
HETATM   14  C9  UNL     1      23.586   1.215  51.975  1.00  0.00    -0.018 A 
HETATM   15  C10 UNL     1      23.763   0.139  52.871  1.00  0.00     0.012 A 
HETATM   16  C11 UNL     1      24.967  -0.345  53.329  1.00  0.00     0.030 A 
HETATM   17  C12 UNL     1      26.111   0.245  52.896  1.00  0.00     0.027 A 
HETATM   18  C14 UNL     1      26.082   1.308  52.019  1.00  0.00     0.030 A 
HETATM   19  C15 UNL     1      24.826   1.710  51.629  1.00  0.00     0.012 A 
BRANCH  17  20
HETATM   20  N2  UNL     1      27.384  -0.192  53.329  1.00  0.00    -0.394 N 
HETATM   21  C13 UNL     1      28.196   0.195  54.458  1.00  0.00     0.146 C 
HETATM   22  H10 UNL     1      27.945  -0.928  52.823  1.00  0.00     0.159 HD
ENDBRANCH  17  20
ENDBRANCH   3  14
BRANCH   1  23
HETATM   23  C6  UNL     1      19.512  -0.179  53.309  1.00  0.00     0.052 C 
HETATM   24  C5  UNL     1      18.616  -0.929  52.723  1.00  0.00     0.004 C 
BRANCH  24  25
HETATM   25  C4  UNL     1      17.694  -1.511  53.677  1.00  0.00     0.000 C 
HETATM   26  C3  UNL     1      17.527  -2.832  53.449  1.00  0.00    -0.001 C 
BRANCH  26  27
HETATM   27  C2  UNL     1      16.998  -4.161  53.672  1.00  0.00    -0.010 C 
HETATM   28  C1  UNL     1      16.261  -5.210  53.819  1.00  0.00     0.011 C 
ENDBRANCH  26  27
ENDBRANCH  24  25
ENDBRANCH   1  23
BRANCH   6  29
HETATM   29  O1  UNL     1      22.043   5.959  51.014  1.00  0.00    -0.348 OA
BRANCH  29  30
HETATM   30  C19 UNL     1      22.627   7.239  50.762  1.00  0.00     0.201 C 
BRANCH  30  31
HETATM   31  C20 UNL     1      24.092   7.300  51.103  1.00  0.00     0.190 C 
BRANCH  31  32
HETATM   32  O2  UNL     1      24.297   6.628  52.302  1.00  0.00    -0.399 OA
HETATM   33  H21 UNL     1      24.317   5.654  52.213  1.00  0.00     0.209 HD
ENDBRANCH  31  32
ENDBRANCH  30  31
ENDBRANCH  29  30
ENDBRANCH   6  29
TORSDOF 9
ENDMDL
MODEL 2
REMARK VINA RESULT:      -8.2      2.316      6.562
REMARK  9 active torsions:
REMARK  status: ('A' for Active; 'I' for Inactive)
REMARK    1  A    between atoms: C2_2  and  C3_3 
REMARK    2  A    between atoms: C4_4  and  C5_5 
REMARK    3  A    between atoms: C6_6  and  C7_7 
REMARK    4  A    between atoms: C8_9  and  C9_10 
REMARK    5  A    between atoms: C12_13  and  N2_14 
REMARK    6  A    between atoms: C18_20  and  O1_21 
REMARK    7  A    between atoms: O1_21  and  C19_22 
REMARK    8  A    between atoms: C19_22  and  C20_23 
REMARK    9  A    between atoms: C20_23  and  O2_24 
ROOT
HETATM    1  C7  UNL     1      25.114   1.896  52.457  1.00  0.00     0.146 A 
HETATM    2  N1  UNL     1      24.242   1.336  51.735  1.00  0.00    -0.245 NA
HETATM    3  C8  UNL     1      23.075   2.248  51.635  1.00  0.00     0.142 A 
HETATM    4  C16 UNL     1      22.927   2.629  50.188  1.00  0.00     0.028 C 
HETATM    5  C17 UNL     1      22.211   3.786  50.163  1.00  0.00    -0.017 C 
HETATM    6  C18 UNL     1      22.063   4.184  48.760  1.00  0.00     0.075 C 
HETATM    7  C21 UNL     1      21.527   5.392  48.462  1.00  0.00     0.037 C 
HETATM    8  C22 UNL     1      21.085   6.258  49.547  1.00  0.00    -0.001 C 
HETATM    9  C23 UNL     1      21.174   5.865  50.804  1.00  0.00    -0.017 C 
HETATM   10  C24 UNL     1      21.674   4.584  51.281  1.00  0.00     0.049 C 
HETATM   11  C25 UNL     1      22.551   4.568  52.495  1.00  0.00     0.071 C 
HETATM   12  C26 UNL     1      23.503   3.401  52.401  1.00  0.00     0.054 A 
HETATM   13  N3  UNL     1      24.674   3.179  52.881  1.00  0.00    -0.235 NA
ENDROOT
BRANCH   3  14
HETATM   14  C9  UNL     1      21.981   1.404  52.131  1.00  0.00    -0.018 A 
HETATM   15  C10 UNL     1      22.029   0.912  53.453  1.00  0.00     0.012 A 
HETATM   16  C11 UNL     1      21.117   0.062  54.035  1.00  0.00     0.030 A 
HETATM   17  C12 UNL     1      20.060  -0.361  53.296  1.00  0.00     0.027 A 
HETATM   18  C14 UNL     1      19.892   0.043  51.989  1.00  0.00     0.030 A 
HETATM   19  C15 UNL     1      20.863   0.890  51.509  1.00  0.00     0.012 A 
BRANCH  17  20
HETATM   20  N2  UNL     1      19.087  -1.240  53.824  1.00  0.00    -0.394 N 
HETATM   21  C13 UNL     1      17.809  -1.673  53.312  1.00  0.00     0.146 C 
HETATM   22  H10 UNL     1      19.195  -1.733  54.751  1.00  0.00     0.159 HD
ENDBRANCH  17  20
ENDBRANCH   3  14
BRANCH   1  23
HETATM   23  C6  UNL     1      26.435   1.334  52.823  1.00  0.00     0.052 C 
HETATM   24  C5  UNL     1      27.280   2.129  53.426  1.00  0.00     0.004 C 
BRANCH  24  25
HETATM   25  C4  UNL     1      28.527   1.460  53.729  1.00  0.00     0.000 C 
HETATM   26  C3  UNL     1      28.442   0.135  53.477  1.00  0.00    -0.001 C 
BRANCH  26  27
HETATM   27  C2  UNL     1      28.907  -1.234  53.399  1.00  0.00    -0.010 C 
HETATM   28  C1  UNL     1      29.076  -2.490  53.158  1.00  0.00     0.011 C 
ENDBRANCH  26  27
ENDBRANCH  24  25
ENDBRANCH   1  23
BRANCH   6  29
HETATM   29  O1  UNL     1      22.365   3.574  47.554  1.00  0.00    -0.348 OA
BRANCH  29  30
HETATM   30  C19 UNL     1      21.396   3.568  46.503  1.00  0.00     0.201 C 
BRANCH  30  31
HETATM   31  C20 UNL     1      21.931   4.099  45.201  1.00  0.00     0.190 C 
BRANCH  31  32
HETATM   32  O2  UNL     1      21.192   3.550  44.159  1.00  0.00    -0.399 OA
HETATM   33  H21 UNL     1      20.457   2.976  44.454  1.00  0.00     0.209 HD
ENDBRANCH  31  32
ENDBRANCH  30  31
ENDBRANCH  29  30
ENDBRANCH   6  29
TORSDOF 9
ENDMDL
MODEL 3
REMARK VINA RESULT:      -8.0      4.222      7.995
REMARK  9 active torsions:
REMARK  status: ('A' for Active; 'I' for Inactive)
REMARK    1  A    between atoms: C2_2  and  C3_3 
REMARK    2  A    between atoms: C4_4  and  C5_5 
REMARK    3  A    between atoms: C6_6  and  C7_7 
REMARK    4  A    between atoms: C8_9  and  C9_10 
REMARK    5  A    between atoms: C12_13  and  N2_14 
REMARK    6  A    between atoms: C18_20  and  O1_21 
REMARK    7  A    between atoms: O1_21  and  C19_22 
REMARK    8  A    between atoms: C19_22  and  C20_23 
REMARK    9  A    between atoms: C20_23  and  O2_24 
ROOT
HETATM    1  C7  UNL     1      26.510   4.728  49.217  1.00  0.00     0.146 A 
HETATM    2  N1  UNL     1      25.980   3.582  49.205  1.00  0.00    -0.245 NA
HETATM    3  C8  UNL     1      24.735   3.644  50.013  1.00  0.00     0.142 A 
HETATM    4  C16 UNL     1      23.587   3.348  49.089  1.00  0.00     0.028 C 
HETATM    5  C17 UNL     1      22.473   3.863  49.679  1.00  0.00    -0.017 C 
HETATM    6  C18 UNL     1      21.339   3.596  48.790  1.00  0.00     0.075 C 
HETATM    7  C21 UNL     1      20.132   4.147  49.063  1.00  0.00     0.037 C 
HETATM    8  C22 UNL     1      19.985   4.973  50.255  1.00  0.00    -0.001 C 
HETATM    9  C23 UNL     1      21.001   5.162  51.076  1.00  0.00    -0.017 C 
HETATM   10  C24 UNL     1      22.337   4.599  50.950  1.00  0.00     0.049 C 
HETATM   11  C25 UNL     1      23.511   5.476  51.255  1.00  0.00     0.071 C 
HETATM   12  C26 UNL     1      24.688   5.034  50.420  1.00  0.00     0.054 A 
HETATM   13  N3  UNL     1      25.724   5.644  49.966  1.00  0.00    -0.235 NA
ENDROOT
BRANCH   3  14
HETATM   14  C9  UNL     1      24.966   2.595  51.014  1.00  0.00    -0.018 A 
HETATM   15  C10 UNL     1      26.285   2.297  51.415  1.00  0.00     0.012 A 
HETATM   16  C11 UNL     1      26.661   1.302  52.289  1.00  0.00     0.030 A 
HETATM   17  C12 UNL     1      25.696   0.518  52.835  1.00  0.00     0.027 A 
HETATM   18  C14 UNL     1      24.365   0.702  52.529  1.00  0.00     0.030 A 
HETATM   19  C15 UNL     1      24.104   1.722  51.644  1.00  0.00     0.012 A 
BRANCH  17  20
HETATM   20  N2  UNL     1      26.007  -0.527  53.734  1.00  0.00    -0.394 N 
HETATM   21  C13 UNL     1      25.618  -0.758  55.105  1.00  0.00     0.146 C 
HETATM   22  H10 UNL     1      26.626  -1.343  53.481  1.00  0.00     0.159 HD
ENDBRANCH  17  20
ENDBRANCH   3  14
BRANCH   1  23
HETATM   23  C6  UNL     1      27.772   5.112  48.541  1.00  0.00     0.052 C 
HETATM   24  C5  UNL     1      27.984   6.386  48.345  1.00  0.00     0.004 C 
BRANCH  24  25
HETATM   25  C4  UNL     1      29.248   6.625  47.680  1.00  0.00     0.000 C 
HETATM   26  C3  UNL     1      30.071   5.560  47.800  1.00  0.00    -0.001 C 
BRANCH  26  27
HETATM   27  C2  UNL     1      31.283   4.792  47.612  1.00  0.00    -0.010 C 
HETATM   28  C1  UNL     1      32.209   3.893  47.593  1.00  0.00     0.011 C 
ENDBRANCH  26  27
ENDBRANCH  24  25
ENDBRANCH   1  23
BRANCH   6  29
HETATM   29  O1  UNL     1      21.183   2.852  47.632  1.00  0.00    -0.348 OA
BRANCH  29  30
HETATM   30  C19 UNL     1      20.673   3.478  46.453  1.00  0.00     0.201 C 
BRANCH  30  31
HETATM   31  C20 UNL     1      21.750   3.871  45.478  1.00  0.00     0.190 C 
BRANCH  31  32
HETATM   32  O2  UNL     1      21.305   3.596  44.190  1.00  0.00    -0.399 OA
HETATM   33  H21 UNL     1      21.040   4.389  43.683  1.00  0.00     0.209 HD
ENDBRANCH  31  32
ENDBRANCH  30  31
ENDBRANCH  29  30
ENDBRANCH   6  29
TORSDOF 9
ENDMDL
MODEL 4
REMARK VINA RESULT:      -8.0      4.096      7.029
REMARK  9 active torsions:
REMARK  status: ('A' for Active; 'I' for Inactive)
REMARK    1  A    between atoms: C2_2  and  C3_3 
REMARK    2  A    between atoms: C4_4  and  C5_5 
REMARK    3  A    between atoms: C6_6  and  C7_7 
REMARK    4  A    between atoms: C8_9  and  C9_10 
REMARK    5  A    between atoms: C12_13  and  N2_14 
REMARK    6  A    between atoms: C18_20  and  O1_21 
REMARK    7  A    between atoms: O1_21  and  C19_22 
REMARK    8  A    between atoms: C19_22  and  C20_23 
REMARK    9  A    between atoms: C20_23  and  O2_24 
ROOT
HETATM    1  C7  UNL     1      24.441   2.065  51.774  1.00  0.00     0.146 A 
HETATM    2  N1  UNL     1      24.316   2.262  50.533  1.00  0.00    -0.245 NA
HETATM    3  C8  UNL     1      23.766   3.628  50.339  1.00  0.00     0.142 A 
HETATM    4  C16 UNL     1      24.797   4.423  49.588  1.00  0.00     0.028 C 
HETATM    5  C17 UNL     1      24.525   5.734  49.828  1.00  0.00    -0.017 C 
HETATM    6  C18 UNL     1      25.526   6.531  49.114  1.00  0.00     0.075 C 
HETATM    7  C21 UNL     1      25.583   7.869  49.315  1.00  0.00     0.037 C 
HETATM    8  C22 UNL     1      24.625   8.490  50.222  1.00  0.00    -0.001 C 
HETATM    9  C23 UNL     1      23.695   7.768  50.818  1.00  0.00    -0.017 C 
HETATM   10  C24 UNL     1      23.471   6.338  50.664  1.00  0.00     0.049 C 
HETATM   11  C25 UNL     1      23.147   5.532  51.884  1.00  0.00     0.071 C 
HETATM   12  C26 UNL     1      23.660   4.125  51.696  1.00  0.00     0.054 A 
HETATM   13  N3  UNL     1      24.039   3.210  52.513  1.00  0.00    -0.235 NA
ENDROOT
BRANCH   3  14
HETATM   14  C9  UNL     1      22.551   3.362  49.559  1.00  0.00    -0.018 A 
HETATM   15  C10 UNL     1      22.653   3.138  48.170  1.00  0.00     0.012 A 
HETATM   16  C11 UNL     1      21.604   2.942  47.301  1.00  0.00     0.030 A 
HETATM   17  C12 UNL     1      20.339   2.957  47.795  1.00  0.00     0.027 A 
HETATM   18  C14 UNL     1      20.097   3.165  49.135  1.00  0.00     0.030 A 
HETATM   19  C15 UNL     1      21.217   3.352  49.911  1.00  0.00     0.012 A 
BRANCH  17  20
HETATM   20  N2  UNL     1      19.213   2.770  46.963  1.00  0.00    -0.394 N 
HETATM   21  C13 UNL     1      18.756   3.486  45.796  1.00  0.00     0.146 C 
HETATM   22  H10 UNL     1      18.501   2.006  47.115  1.00  0.00     0.159 HD
ENDBRANCH  17  20
ENDBRANCH   3  14
BRANCH   1  23
HETATM   23  C6  UNL     1      24.949   0.829  52.414  1.00  0.00     0.052 C 
HETATM   24  C5  UNL     1      26.166   0.455  52.116  1.00  0.00     0.004 C 
BRANCH  24  25
HETATM   25  C4  UNL     1      26.539  -0.762  52.807  1.00  0.00     0.000 C 
HETATM   26  C3  UNL     1      27.878  -0.836  52.974  1.00  0.00    -0.001 C 
BRANCH  26  27
HETATM   27  C2  UNL     1      29.131  -1.415  53.408  1.00  0.00    -0.010 C 
HETATM   28  C1  UNL     1      30.293  -1.659  53.916  1.00  0.00     0.011 C 
ENDBRANCH  26  27
ENDBRANCH  24  25
ENDBRANCH   1  23
BRANCH   6  29
HETATM   29  O1  UNL     1      26.521   6.225  48.200  1.00  0.00    -0.348 OA
BRANCH  29  30
HETATM   30  C19 UNL     1      27.719   7.004  48.171  1.00  0.00     0.201 C 
BRANCH  30  31
HETATM   31  C20 UNL     1      28.969   6.166  48.126  1.00  0.00     0.190 C 
BRANCH  31  32
HETATM   32  O2  UNL     1      28.880   5.182  49.104  1.00  0.00    -0.399 OA
HETATM   33  H21 UNL     1      28.423   5.472  49.918  1.00  0.00     0.209 HD
ENDBRANCH  31  32
ENDBRANCH  30  31
ENDBRANCH  29  30
ENDBRANCH   6  29
TORSDOF 9
ENDMDL
MODEL 5
REMARK VINA RESULT:      -8.0      3.480      6.672
REMARK  9 active torsions:
REMARK  status: ('A' for Active; 'I' for Inactive)
REMARK    1  A    between atoms: C2_2  and  C3_3 
REMARK    2  A    between atoms: C4_4  and  C5_5 
REMARK    3  A    between atoms: C6_6  and  C7_7 
REMARK    4  A    between atoms: C8_9  and  C9_10 
REMARK    5  A    between atoms: C12_13  and  N2_14 
REMARK    6  A    between atoms: C18_20  and  O1_21 
REMARK    7  A    between atoms: O1_21  and  C19_22 
REMARK    8  A    between atoms: C19_22  and  C20_23 
REMARK    9  A    between atoms: C20_23  and  O2_24 
ROOT
HETATM    1  C7  UNL     1      24.072   2.980  51.394  1.00  0.00     0.146 A 
HETATM    2  N1  UNL     1      24.316   2.998  50.155  1.00  0.00    -0.245 NA
HETATM    3  C8  UNL     1      24.294   4.413  49.703  1.00  0.00     0.142 A 
HETATM    4  C16 UNL     1      25.673   4.745  49.205  1.00  0.00     0.028 C 
HETATM    5  C17 UNL     1      25.786   6.100  49.252  1.00  0.00    -0.017 C 
HETATM    6  C18 UNL     1      27.129   6.448  48.780  1.00  0.00     0.075 C 
HETATM    7  C21 UNL     1      27.560   7.729  48.878  1.00  0.00     0.037 C 
HETATM    8  C22 UNL     1      26.664   8.737  49.429  1.00  0.00    -0.001 C 
HETATM    9  C23 UNL     1      25.438   8.421  49.800  1.00  0.00    -0.017 C 
HETATM   10  C24 UNL     1      24.812   7.110  49.709  1.00  0.00     0.049 C 
HETATM   11  C25 UNL     1      23.967   6.642  50.853  1.00  0.00     0.071 C 
HETATM   12  C26 UNL     1      24.032   5.136  50.931  1.00  0.00     0.054 A 
HETATM   13  N3  UNL     1      23.892   4.298  51.895  1.00  0.00    -0.235 NA
ENDROOT
BRANCH   3  14
HETATM   14  C9  UNL     1      23.281   4.381  48.642  1.00  0.00    -0.018 A 
HETATM   15  C10 UNL     1      22.818   3.138  48.161  1.00  0.00     0.012 A 
HETATM   16  C11 UNL     1      21.925   2.949  47.131  1.00  0.00     0.030 A 
HETATM   17  C12 UNL     1      21.422   4.040  46.498  1.00  0.00     0.027 A 
HETATM   18  C14 UNL     1      21.790   5.315  46.868  1.00  0.00     0.030 A 
HETATM   19  C15 UNL     1      22.689   5.387  47.906  1.00  0.00     0.012 A 
BRANCH  17  20
HETATM   20  N2  UNL     1      20.507   3.923  45.428  1.00  0.00    -0.394 N 
HETATM   21  C13 UNL     1      20.698   3.950  43.998  1.00  0.00     0.146 C 
HETATM   22  H10 UNL     1      19.469   3.791  45.566  1.00  0.00     0.159 HD
ENDBRANCH  17  20
ENDBRANCH   3  14
BRANCH   1  23
HETATM   23  C6  UNL     1      23.990   1.773  52.250  1.00  0.00     0.052 C 
HETATM   24  C5  UNL     1      25.109   1.155  52.523  1.00  0.00     0.004 C 
BRANCH  24  25
HETATM   25  C4  UNL     1      24.891  -0.003  53.365  1.00  0.00     0.000 C 
HETATM   26  C3  UNL     1      23.578  -0.310  53.441  1.00  0.00    -0.001 C 
BRANCH  26  27
HETATM   27  C2  UNL     1      22.412  -1.057  53.862  1.00  0.00    -0.010 C 
HETATM   28  C1  UNL     1      21.434  -1.600  54.507  1.00  0.00     0.011 C 
ENDBRANCH  26  27
ENDBRANCH  24  25
ENDBRANCH   1  23
BRANCH   6  29
HETATM   29  O1  UNL     1      28.161   5.724  48.206  1.00  0.00    -0.348 OA
BRANCH  29  30
HETATM   30  C19 UNL     1      29.374   6.388  47.844  1.00  0.00     0.201 C 
BRANCH  30  31
HETATM   31  C20 UNL     1      30.609   5.634  48.259  1.00  0.00     0.190 C 
BRANCH  31  32
HETATM   32  O2  UNL     1      30.713   5.680  49.644  1.00  0.00    -0.399 OA
HETATM   33  H21 UNL     1      31.134   4.890  50.037  1.00  0.00     0.209 HD
ENDBRANCH  31  32
ENDBRANCH  30  31
ENDBRANCH  29  30
ENDBRANCH   6  29
TORSDOF 9
ENDMDL
MODEL 6
REMARK VINA RESULT:      -7.3      6.362     10.277
REMARK  9 active torsions:
REMARK  status: ('A' for Active; 'I' for Inactive)
REMARK    1  A    between atoms: C2_2  and  C3_3 
REMARK    2  A    between atoms: C4_4  and  C5_5 
REMARK    3  A    between atoms: C6_6  and  C7_7 
REMARK    4  A    between atoms: C8_9  and  C9_10 
REMARK    5  A    between atoms: C12_13  and  N2_14 
REMARK    6  A    between atoms: C18_20  and  O1_21 
REMARK    7  A    between atoms: O1_21  and  C19_22 
REMARK    8  A    between atoms: C19_22  and  C20_23 
REMARK    9  A    between atoms: C20_23  and  O2_24 
ROOT
HETATM    1  C7  UNL     1      26.257   6.401  49.316  1.00  0.00     0.146 A 
HETATM    2  N1  UNL     1      26.858   6.414  48.206  1.00  0.00    -0.245 NA
HETATM    3  C8  UNL     1      27.342   7.797  47.963  1.00  0.00     0.142 A 
HETATM    4  C16 UNL     1      28.844   7.742  47.911  1.00  0.00     0.028 C 
HETATM    5  C17 UNL     1      29.286   9.003  48.170  1.00  0.00    -0.017 C 
HETATM    6  C18 UNL     1      30.751   8.972  48.136  1.00  0.00     0.075 C 
HETATM    7  C21 UNL     1      31.451  10.066  48.522  1.00  0.00     0.037 C 
HETATM    8  C22 UNL     1      30.726  11.260  48.939  1.00  0.00    -0.001 C 
HETATM    9  C23 UNL     1      29.407  11.292  48.913  1.00  0.00    -0.017 C 
HETATM   10  C24 UNL     1      28.519  10.224  48.477  1.00  0.00     0.049 C 
HETATM   11  C25 UNL     1      27.278   9.960  49.271  1.00  0.00     0.071 C 
HETATM   12  C26 UNL     1      26.921   8.497  49.159  1.00  0.00     0.054 A 
HETATM   13  N3  UNL     1      26.285   7.685  49.924  1.00  0.00    -0.235 NA
ENDROOT
BRANCH   3  14
HETATM   14  C9  UNL     1      26.724   8.116  46.670  1.00  0.00    -0.018 A 
HETATM   15  C10 UNL     1      25.320   8.075  46.543  1.00  0.00     0.012 A 
HETATM   16  C11 UNL     1      24.604   8.284  45.387  1.00  0.00     0.030 A 
HETATM   17  C12 UNL     1      25.282   8.560  44.243  1.00  0.00     0.027 A 
HETATM   18  C14 UNL     1      26.658   8.631  44.226  1.00  0.00     0.030 A 
HETATM   19  C15 UNL     1      27.271   8.403  45.436  1.00  0.00     0.012 A 
BRANCH  17  20
HETATM   20  N2  UNL     1      24.615   8.779  43.017  1.00  0.00    -0.394 N 
HETATM   21  C13 UNL     1      24.751   9.820  42.026  1.00  0.00     0.146 C 
HETATM   22  H10 UNL     1      23.861   8.141  42.646  1.00  0.00     0.159 HD
ENDBRANCH  17  20
ENDBRANCH   3  14
BRANCH   1  23
HETATM   23  C6  UNL     1      25.610   5.225  49.944  1.00  0.00     0.052 C 
HETATM   24  C5  UNL     1      26.180   4.061  49.769  1.00  0.00     0.004 C 
BRANCH  24  25
HETATM   25  C4  UNL     1      25.451   3.001  50.433  1.00  0.00     0.000 C 
HETATM   26  C3  UNL     1      26.295   2.139  51.044  1.00  0.00    -0.001 C 
BRANCH  26  27
HETATM   27  C2  UNL     1      26.672   0.983  51.829  1.00  0.00    -0.010 C 
HETATM   28  C1  UNL     1      26.840  -0.197  52.325  1.00  0.00     0.011 C 
ENDBRANCH  26  27
ENDBRANCH  24  25
ENDBRANCH   1  23
BRANCH   6  29
HETATM   29  O1  UNL     1      31.682   8.013  47.774  1.00  0.00    -0.348 OA
BRANCH  29  30
HETATM   30  C19 UNL     1      32.414   7.320  48.787  1.00  0.00     0.201 C 
BRANCH  30  31
HETATM   31  C20 UNL     1      31.993   5.883  48.945  1.00  0.00     0.190 C 
BRANCH  31  32
HETATM   32  O2  UNL     1      31.055   5.804  49.967  1.00  0.00    -0.399 OA
HETATM   33  H21 UNL     1      30.167   5.524  49.670  1.00  0.00     0.209 HD
ENDBRANCH  31  32
ENDBRANCH  30  31
ENDBRANCH  29  30
ENDBRANCH   6  29
TORSDOF 9
ENDMDL
MODEL 7
REMARK VINA RESULT:      -7.3      3.928      8.184
REMARK  9 active torsions:
REMARK  status: ('A' for Active; 'I' for Inactive)
REMARK    1  A    between atoms: C2_2  and  C3_3 
REMARK    2  A    between atoms: C4_4  and  C5_5 
REMARK    3  A    between atoms: C6_6  and  C7_7 
REMARK    4  A    between atoms: C8_9  and  C9_10 
REMARK    5  A    between atoms: C12_13  and  N2_14 
REMARK    6  A    between atoms: C18_20  and  O1_21 
REMARK    7  A    between atoms: O1_21  and  C19_22 
REMARK    8  A    between atoms: C19_22  and  C20_23 
REMARK    9  A    between atoms: C20_23  and  O2_24 
ROOT
HETATM    1  C7  UNL     1      25.414   5.381  49.301  1.00  0.00     0.146 A 
HETATM    2  N1  UNL     1      24.923   4.222  49.197  1.00  0.00    -0.245 NA
HETATM    3  C8  UNL     1      23.540   4.260  49.737  1.00  0.00     0.142 A 
HETATM    4  C16 UNL     1      22.609   3.928  48.604  1.00  0.00     0.028 C 
HETATM    5  C17 UNL     1      21.388   4.419  48.950  1.00  0.00    -0.017 C 
HETATM    6  C18 UNL     1      20.463   4.116  47.854  1.00  0.00     0.075 C 
HETATM    7  C21 UNL     1      19.213   4.638  47.871  1.00  0.00     0.037 C 
HETATM    8  C22 UNL     1      18.809   5.470  48.998  1.00  0.00    -0.001 C 
HETATM    9  C23 UNL     1      19.633   5.691  50.004  1.00  0.00    -0.017 C 
HETATM   10  C24 UNL     1      20.980   5.162  50.158  1.00  0.00     0.049 C 
HETATM   11  C25 UNL     1      22.048   6.070  50.683  1.00  0.00     0.071 C 
HETATM   12  C26 UNL     1      23.380   5.651  50.108  1.00  0.00     0.054 A 
HETATM   13  N3  UNL     1      24.471   6.283  49.865  1.00  0.00    -0.235 NA
ENDROOT
BRANCH   3  14
HETATM   14  C9  UNL     1      23.588   3.225  50.777  1.00  0.00    -0.018 A 
HETATM   15  C10 UNL     1      22.947   1.988  50.555  1.00  0.00     0.012 A 
HETATM   16  C11 UNL     1      22.851   0.951  51.455  1.00  0.00     0.030 A 
HETATM   17  C12 UNL     1      23.415   1.101  52.681  1.00  0.00     0.027 A 
HETATM   18  C14 UNL     1      24.072   2.261  53.030  1.00  0.00     0.030 A 
HETATM   19  C15 UNL     1      24.106   3.230  52.055  1.00  0.00     0.012 A 
BRANCH  17  20
HETATM   20  N2  UNL     1      23.350   0.084  53.659  1.00  0.00    -0.394 N 
HETATM   21  C13 UNL     1      22.243  -0.700  54.152  1.00  0.00     0.146 C 
HETATM   22  H10 UNL     1      24.191  -0.254  54.200  1.00  0.00     0.159 HD
ENDBRANCH  17  20
ENDBRANCH   3  14
BRANCH   1  23
HETATM   23  C6  UNL     1      26.777   5.792  48.890  1.00  0.00     0.052 C 
HETATM   24  C5  UNL     1      27.646   4.843  48.660  1.00  0.00     0.004 C 
BRANCH  24  25
HETATM   25  C4  UNL     1      28.933   5.376  48.266  1.00  0.00     0.000 C 
HETATM   26  C3  UNL     1      28.796   6.561  47.631  1.00  0.00    -0.001 C 
BRANCH  26  27
HETATM   27  C2  UNL     1      29.235   7.758  46.945  1.00  0.00    -0.010 C 
HETATM   28  C1  UNL     1      29.337   8.909  46.370  1.00  0.00     0.011 C 
ENDBRANCH  26  27
ENDBRANCH  24  25
ENDBRANCH   1  23
BRANCH   6  29
HETATM   29  O1  UNL     1      20.561   3.359  46.699  1.00  0.00    -0.348 OA
BRANCH  29  30
HETATM   30  C19 UNL     1      20.033   3.869  45.472  1.00  0.00     0.201 C 
BRANCH  30  31
HETATM   31  C20 UNL     1      21.093   4.130  44.435  1.00  0.00     0.190 C 
BRANCH  31  32
HETATM   32  O2  UNL     1      20.738   3.473  43.262  1.00  0.00    -0.399 OA
HETATM   33  H21 UNL     1      21.052   3.916  42.449  1.00  0.00     0.209 HD
ENDBRANCH  31  32
ENDBRANCH  30  31
ENDBRANCH  29  30
ENDBRANCH   6  29
TORSDOF 9
ENDMDL
MODEL 8
REMARK VINA RESULT:      -7.2      4.043      8.466
REMARK  9 active torsions:
REMARK  status: ('A' for Active; 'I' for Inactive)
REMARK    1  A    between atoms: C2_2  and  C3_3 
REMARK    2  A    between atoms: C4_4  and  C5_5 
REMARK    3  A    between atoms: C6_6  and  C7_7 
REMARK    4  A    between atoms: C8_9  and  C9_10 
REMARK    5  A    between atoms: C12_13  and  N2_14 
REMARK    6  A    between atoms: C18_20  and  O1_21 
REMARK    7  A    between atoms: O1_21  and  C19_22 
REMARK    8  A    between atoms: C19_22  and  C20_23 
REMARK    9  A    between atoms: C20_23  and  O2_24 
ROOT
HETATM    1  C7  UNL     1      26.202   4.850  49.276  1.00  0.00     0.146 A 
HETATM    2  N1  UNL     1      25.248   4.042  49.100  1.00  0.00    -0.245 NA
HETATM    3  C8  UNL     1      24.055   4.583  49.800  1.00  0.00     0.142 A 
HETATM    4  C16 UNL     1      23.009   4.858  48.755  1.00  0.00     0.028 C 
HETATM    5  C17 UNL     1      22.149   5.763  49.297  1.00  0.00    -0.017 C 
HETATM    6  C18 UNL     1      21.125   6.056  48.290  1.00  0.00     0.075 C 
HETATM    7  C21 UNL     1      20.235   7.052  48.514  1.00  0.00     0.037 C 
HETATM    8  C22 UNL     1      20.301   7.792  49.768  1.00  0.00    -0.001 C 
HETATM    9  C23 UNL     1      21.194   7.482  50.688  1.00  0.00    -0.017 C 
HETATM   10  C24 UNL     1      22.179   6.413  50.621  1.00  0.00     0.049 C 
HETATM   11  C25 UNL     1      23.565   6.686  51.115  1.00  0.00     0.071 C 
HETATM   12  C26 UNL     1      24.542   5.834  50.343  1.00  0.00     0.054 A 
HETATM   13  N3  UNL     1      25.785   5.969  50.046  1.00  0.00    -0.235 NA
ENDROOT
BRANCH   3  14
HETATM   14  C9  UNL     1      23.702   3.480  50.702  1.00  0.00    -0.018 A 
HETATM   15  C10 UNL     1      24.293   3.414  51.982  1.00  0.00     0.012 A 
HETATM   16  C11 UNL     1      24.112   2.413  52.908  1.00  0.00     0.030 A 
HETATM   17  C12 UNL     1      23.294   1.376  52.593  1.00  0.00     0.027 A 
HETATM   18  C14 UNL     1      22.653   1.314  51.374  1.00  0.00     0.030 A 
HETATM   19  C15 UNL     1      22.907   2.367  50.526  1.00  0.00     0.012 A 
BRANCH  17  20
HETATM   20  N2  UNL     1      23.067   0.308  53.490  1.00  0.00    -0.394 N 
HETATM   21  C13 UNL     1      22.045  -0.711  53.525  1.00  0.00     0.146 C 
HETATM   22  H10 UNL     1      23.682   0.113  54.325  1.00  0.00     0.159 HD
ENDBRANCH  17  20
ENDBRANCH   3  14
BRANCH   1  23
HETATM   23  C6  UNL     1      27.581   4.698  48.756  1.00  0.00     0.052 C 
HETATM   24  C5  UNL     1      28.210   5.786  48.393  1.00  0.00     0.004 C 
BRANCH  24  25
HETATM   25  C4  UNL     1      29.543   5.500  47.906  1.00  0.00     0.000 C 
HETATM   26  C3  UNL     1      30.426   6.430  48.330  1.00  0.00    -0.001 C 
BRANCH  26  27
HETATM   27  C2  UNL     1      31.718   7.067  48.470  1.00  0.00    -0.010 C 
HETATM   28  C1  UNL     1      32.811   7.610  48.890  1.00  0.00     0.011 C 
ENDBRANCH  26  27
ENDBRANCH  24  25
ENDBRANCH   1  23
BRANCH   6  29
HETATM   29  O1  UNL     1      20.815   5.517  47.052  1.00  0.00    -0.348 OA
BRANCH  29  30
HETATM   30  C19 UNL     1      19.580   4.820  46.874  1.00  0.00     0.201 C 
BRANCH  30  31
HETATM   31  C20 UNL     1      19.764   3.353  46.589  1.00  0.00     0.190 C 
BRANCH  31  32
HETATM   32  O2  UNL     1      18.718   2.652  47.178  1.00  0.00    -0.399 OA
HETATM   33  H21 UNL     1      18.507   1.807  46.733  1.00  0.00     0.209 HD
ENDBRANCH  31  32
ENDBRANCH  30  31
ENDBRANCH  29  30
ENDBRANCH   6  29
TORSDOF 9
ENDMDL
MODEL 9
REMARK VINA RESULT:      -7.0      2.820      6.906
REMARK  9 active torsions:
REMARK  status: ('A' for Active; 'I' for Inactive)
REMARK    1  A    between atoms: C2_2  and  C3_3 
REMARK    2  A    between atoms: C4_4  and  C5_5 
REMARK    3  A    between atoms: C6_6  and  C7_7 
REMARK    4  A    between atoms: C8_9  and  C9_10 
REMARK    5  A    between atoms: C12_13  and  N2_14 
REMARK    6  A    between atoms: C18_20  and  O1_21 
REMARK    7  A    between atoms: O1_21  and  C19_22 
REMARK    8  A    between atoms: C19_22  and  C20_23 
REMARK    9  A    between atoms: C20_23  and  O2_24 
ROOT
HETATM    1  C7  UNL     1      23.012   1.128  52.123  1.00  0.00     0.146 A 
HETATM    2  N1  UNL     1      22.172   0.570  51.362  1.00  0.00    -0.245 NA
HETATM    3  C8  UNL     1      20.991   1.463  51.250  1.00  0.00     0.142 A 
HETATM    4  C16 UNL     1      20.877   1.876  49.809  1.00  0.00     0.028 C 
HETATM    5  C17 UNL     1      20.140   3.020  49.791  1.00  0.00    -0.017 C 
HETATM    6  C18 UNL     1      20.026   3.449  48.395  1.00  0.00     0.075 C 
HETATM    7  C21 UNL     1      19.475   4.654  48.109  1.00  0.00     0.037 C 
HETATM    8  C22 UNL     1      18.986   5.485  49.202  1.00  0.00    -0.001 C 
HETATM    9  C23 UNL     1      19.046   5.063  50.451  1.00  0.00    -0.017 C 
HETATM   10  C24 UNL     1      19.557   3.780  50.912  1.00  0.00     0.049 C 
HETATM   11  C25 UNL     1      20.399   3.751  52.150  1.00  0.00     0.071 C 
HETATM   12  C26 UNL     1      21.375   2.604  52.056  1.00  0.00     0.054 A 
HETATM   13  N3  UNL     1      22.535   2.392  52.564  1.00  0.00    -0.235 NA
ENDROOT
BRANCH   3  14
HETATM   14  C9  UNL     1      19.900   0.587  51.694  1.00  0.00    -0.018 A 
HETATM   15  C10 UNL     1      18.772   0.408  50.866  1.00  0.00     0.012 A 
HETATM   16  C11 UNL     1      17.649  -0.326  51.172  1.00  0.00     0.030 A 
HETATM   17  C12 UNL     1      17.589  -0.950  52.376  1.00  0.00     0.027 A 
HETATM   18  C14 UNL     1      18.623  -0.859  53.282  1.00  0.00     0.030 A 
HETATM   19  C15 UNL     1      19.694  -0.099  52.874  1.00  0.00     0.012 A 
BRANCH  17  20
HETATM   20  N2  UNL     1      16.465  -1.715  52.763  1.00  0.00    -0.394 N 
HETATM   21  C13 UNL     1      15.364  -2.250  52.000  1.00  0.00     0.146 C 
HETATM   22  H10 UNL     1      16.283  -2.012  53.759  1.00  0.00     0.159 HD
ENDBRANCH  17  20
ENDBRANCH   3  14
BRANCH   1  23
HETATM   23  C6  UNL     1      24.332   0.582  52.515  1.00  0.00     0.052 C 
HETATM   24  C5  UNL     1      24.343  -0.422  53.352  1.00  0.00     0.004 C 
BRANCH  24  25
HETATM   25  C4  UNL     1      25.690  -0.860  53.650  1.00  0.00     0.000 C 
HETATM   26  C3  UNL     1      26.570   0.160  53.538  1.00  0.00    -0.001 C 
BRANCH  26  27
HETATM   27  C2  UNL     1      27.864   0.806  53.576  1.00  0.00    -0.010 C 
HETATM   28  C1  UNL     1      29.121   1.100  53.577  1.00  0.00     0.011 C 
ENDBRANCH  26  27
ENDBRANCH  24  25
ENDBRANCH   1  23
BRANCH   6  29
HETATM   29  O1  UNL     1      20.373   2.875  47.183  1.00  0.00    -0.348 OA
BRANCH  29  30
HETATM   30  C19 UNL     1      20.974   3.679  46.166  1.00  0.00     0.201 C 
BRANCH  30  31
HETATM   31  C20 UNL     1      20.194   3.686  44.879  1.00  0.00     0.190 C 
BRANCH  31  32
HETATM   32  O2  UNL     1      21.087   3.605  43.817  1.00  0.00    -0.399 OA
HETATM   33  H21 UNL     1      22.009   3.823  44.057  1.00  0.00     0.209 HD
ENDBRANCH  31  32
ENDBRANCH  30  31
ENDBRANCH  29  30
ENDBRANCH   6  29
TORSDOF 9
ENDMDL
