MODEL 1
REMARK VINA RESULT:      -9.8      0.000      0.000
REMARK  4 active torsions:
REMARK  status: ('A' for Active; 'I' for Inactive)
REMARK    1  A    between atoms: C2_4  and  C3_5 
REMARK       I    between atoms: C3_5  and  N3_6 
REMARK    2  A    between atoms: C7_12  and  N5_13 
REMARK    3  A    between atoms: N5_13  and  C8_14 
REMARK       I    between atoms: N6_17  and  C11_18 
REMARK    4  A    between atoms: C11_18  and  C12_20 
ROOT
HETATM    1  C1  UNL     1      23.249  -0.739  54.200  1.00  0.00     0.180 C 
HETATM    2  N1  UNL     1      24.619  -0.513  53.770  1.00  0.00    -0.271 N 
HETATM    3  N2  UNL     1      25.742  -1.167  54.011  1.00  0.00    -0.166 NA
HETATM    4  C2  UNL     1      26.766  -0.569  53.393  1.00  0.00     0.153 A 
HETATM    5  C4  UNL     1      26.265   0.541  52.712  1.00  0.00     0.009 A 
HETATM    6  C5  UNL     1      24.909   0.519  52.989  1.00  0.00     0.091 A 
HETATM    7  C6  UNL     1      24.170   1.616  52.367  1.00  0.00     0.112 A 
HETATM    8  N4  UNL     1      22.853   1.734  52.534  1.00  0.00    -0.060 NA
HETATM    9  C7  UNL     1      22.158   2.736  51.968  1.00  0.00     0.723 A 
HETATM   10  N7  UNL     1      22.834   3.618  51.222  1.00  0.00    -0.075 NA
HETATM   11  C20 UNL     1      24.159   3.499  51.052  1.00  0.00     0.146 A 
HETATM   12  C21 UNL     1      24.912   2.493  51.612  1.00  0.00    -0.008 A 
HETATM   13  C22 UNL     1      26.335   2.588  51.276  1.00  0.00     0.047 A 
HETATM   14  C23 UNL     1      27.097   1.469  51.906  1.00  0.00     0.048 A 
ENDROOT
BRANCH   9  15
HETATM   15  N5  UNL     1      20.752   2.864  52.135  1.00  0.00    -0.218 N 
HETATM   16  H6  UNL     1      20.431   3.537  52.896  1.00  0.00     0.178 HD
BRANCH  15  17
HETATM   17  C8  UNL     1      19.724   2.168  51.372  1.00  0.00     0.102 C 
HETATM   18  C9  UNL     1      19.634   0.735  51.888  1.00  0.00     0.045 C 
HETATM   19  C10 UNL     1      18.558   0.036  51.087  1.00  0.00     0.128 C 
HETATM   20  N6  UNL     1      17.299   0.607  51.560  1.00  0.00    -0.348 N 
HETATM   21  C11 UNL     1      16.323  -0.099  52.304  1.00  0.00     0.253 C 
HETATM   22  C18 UNL     1      17.255   1.970  51.140  1.00  0.00     0.128 C 
HETATM   23  O2  UNL     1      15.286   0.517  52.645  1.00  0.00    -0.267 OA
HETATM   24  C19 UNL     1      18.386   2.828  51.591  1.00  0.00     0.045 C 
BRANCH  21  25
HETATM   25  C12 UNL     1      16.480  -1.490  52.683  1.00  0.00     0.032 A 
HETATM   26  C13 UNL     1      15.459  -2.324  52.233  1.00  0.00     0.017 A 
HETATM   27  C14 UNL     1      15.538  -3.683  52.559  1.00  0.00     0.001 A 
HETATM   28  C15 UNL     1      16.565  -4.224  53.292  1.00  0.00     0.000 A 
HETATM   29  C16 UNL     1      17.582  -3.378  53.739  1.00  0.00     0.001 A 
HETATM   30  C17 UNL     1      17.528  -2.018  53.428  1.00  0.00     0.017 A 
ENDBRANCH  21  25
ENDBRANCH  15  17
ENDBRANCH   9  15
BRANCH   4  31
HETATM   31  C3  UNL     1      28.131  -1.042  53.462  1.00  0.00     0.270 C 
HETATM   32  N3  UNL     1      28.500  -2.363  53.095  1.00  0.00    -0.365 N 
HETATM   33  H4  UNL     1      28.595  -3.055  52.289  1.00  0.00     0.159 HD
HETATM   34  H5  UNL     1      28.835  -3.047  53.820  1.00  0.00     0.159 HD
HETATM   35  O1  UNL     1      29.150  -0.438  53.825  1.00  0.00    -0.266 OA
ENDBRANCH   4  31
TORSDOF 4
ENDMDL
MODEL 2
REMARK VINA RESULT:      -9.8      5.708      8.784
REMARK  4 active torsions:
REMARK  status: ('A' for Active; 'I' for Inactive)
REMARK    1  A    between atoms: C2_4  and  C3_5 
REMARK       I    between atoms: C3_5  and  N3_6 
REMARK    2  A    between atoms: C7_12  and  N5_13 
REMARK    3  A    between atoms: N5_13  and  C8_14 
REMARK       I    between atoms: N6_17  and  C11_18 
REMARK    4  A    between atoms: C11_18  and  C12_20 
ROOT
HETATM    1  C1  UNL     1      24.916   8.557  50.087  1.00  0.00     0.180 C 
HETATM    2  N1  UNL     1      26.057   9.222  49.481  1.00  0.00    -0.271 N 
HETATM    3  N2  UNL     1      26.346  10.499  49.304  1.00  0.00    -0.166 NA
HETATM    4  C2  UNL     1      27.525  10.624  48.684  1.00  0.00     0.153 A 
HETATM    5  C4  UNL     1      28.022   9.341  48.449  1.00  0.00     0.009 A 
HETATM    6  C5  UNL     1      27.052   8.505  48.975  1.00  0.00     0.091 A 
HETATM    7  C6  UNL     1      27.368   7.086  48.833  1.00  0.00     0.112 A 
HETATM    8  N4  UNL     1      26.536   6.151  49.292  1.00  0.00    -0.060 NA
HETATM    9  C7  UNL     1      26.812   4.841  49.171  1.00  0.00     0.723 A 
HETATM   10  N7  UNL     1      27.961   4.500  48.572  1.00  0.00    -0.075 NA
HETATM   11  C20 UNL     1      28.798   5.440  48.112  1.00  0.00     0.146 A 
HETATM   12  C21 UNL     1      28.558   6.790  48.211  1.00  0.00    -0.008 A 
HETATM   13  C22 UNL     1      29.627   7.606  47.630  1.00  0.00     0.047 A 
HETATM   14  C23 UNL     1      29.313   9.059  47.772  1.00  0.00     0.048 A 
ENDROOT
BRANCH   9  15
HETATM   15  N5  UNL     1      25.934   3.838  49.665  1.00  0.00    -0.218 N 
HETATM   16  H6  UNL     1      25.347   3.330  48.936  1.00  0.00     0.178 HD
BRANCH  15  17
HETATM   17  C8  UNL     1      25.765   3.448  51.059  1.00  0.00     0.102 C 
HETATM   18  C9  UNL     1      24.336   2.943  51.244  1.00  0.00     0.045 C 
HETATM   19  C10 UNL     1      24.188   2.538  52.694  1.00  0.00     0.128 C 
HETATM   20  N6  UNL     1      24.963   1.307  52.827  1.00  0.00    -0.348 N 
HETATM   21  C11 UNL     1      24.407   0.026  53.066  1.00  0.00     0.253 C 
HETATM   22  C18 UNL     1      26.341   1.642  52.670  1.00  0.00     0.128 C 
HETATM   23  O2  UNL     1      25.193  -0.946  53.160  1.00  0.00    -0.267 OA
HETATM   24  C19 UNL     1      26.706   2.319  51.394  1.00  0.00     0.045 C 
BRANCH  21  25
HETATM   25  C12 UNL     1      22.981  -0.197  53.201  1.00  0.00     0.032 A 
HETATM   26  C13 UNL     1      22.614  -0.845  54.379  1.00  0.00     0.017 A 
HETATM   27  C14 UNL     1      21.252  -1.098  54.583  1.00  0.00     0.001 A 
HETATM   28  C15 UNL     1      20.276  -0.741  53.687  1.00  0.00     0.000 A 
HETATM   29  C16 UNL     1      20.657  -0.094  52.510  1.00  0.00     0.001 A 
HETATM   30  C17 UNL     1      22.008   0.171  52.280  1.00  0.00     0.017 A 
ENDBRANCH  21  25
ENDBRANCH  15  17
ENDBRANCH   9  15
BRANCH   4  31
HETATM   31  C3  UNL     1      28.122  11.896  48.345  1.00  0.00     0.270 C 
HETATM   32  N3  UNL     1      28.732  12.736  49.314  1.00  0.00    -0.365 N 
HETATM   33  H4  UNL     1      29.552  12.846  49.987  1.00  0.00     0.159 HD
HETATM   34  H5  UNL     1      28.300  13.659  49.571  1.00  0.00     0.159 HD
HETATM   35  O1  UNL     1      28.207  12.450  47.240  1.00  0.00    -0.266 OA
ENDBRANCH   4  31
TORSDOF 4
ENDMDL
MODEL 3
REMARK VINA RESULT:      -9.5      4.813     10.676
REMARK  4 active torsions:
REMARK  status: ('A' for Active; 'I' for Inactive)
REMARK    1  A    between atoms: C2_4  and  C3_5 
REMARK       I    between atoms: C3_5  and  N3_6 
REMARK    2  A    between atoms: C7_12  and  N5_13 
REMARK    3  A    between atoms: N5_13  and  C8_14 
REMARK       I    between atoms: N6_17  and  C11_18 
REMARK    4  A    between atoms: C11_18  and  C12_20 
ROOT
HETATM    1  C1  UNL     1      25.527   1.364  52.988  1.00  0.00     0.180 C 
HETATM    2  N1  UNL     1      24.186   0.880  53.271  1.00  0.00    -0.271 N 
HETATM    3  N2  UNL     1      23.746  -0.235  53.825  1.00  0.00    -0.166 NA
HETATM    4  C2  UNL     1      22.409  -0.233  53.869  1.00  0.00     0.153 A 
HETATM    5  C4  UNL     1      21.965   0.964  53.306  1.00  0.00     0.009 A 
HETATM    6  C5  UNL     1      23.132   1.619  52.950  1.00  0.00     0.091 A 
HETATM    7  C6  UNL     1      22.902   2.920  52.325  1.00  0.00     0.112 A 
HETATM    8  N4  UNL     1      23.924   3.678  51.930  1.00  0.00    -0.060 NA
HETATM    9  C7  UNL     1      23.730   4.878  51.354  1.00  0.00     0.723 A 
HETATM   10  N7  UNL     1      22.467   5.293  51.191  1.00  0.00    -0.075 NA
HETATM   11  C20 UNL     1      21.439   4.531  51.591  1.00  0.00     0.146 A 
HETATM   12  C21 UNL     1      21.588   3.298  52.182  1.00  0.00    -0.008 A 
HETATM   13  C22 UNL     1      20.310   2.669  52.525  1.00  0.00     0.047 A 
HETATM   14  C23 UNL     1      20.536   1.340  53.166  1.00  0.00     0.048 A 
ENDROOT
BRANCH   9  15
HETATM   15  N5  UNL     1      24.815   5.695  50.935  1.00  0.00    -0.218 N 
HETATM   16  H6  UNL     1      25.129   6.445  51.624  1.00  0.00     0.178 HD
BRANCH  15  17
HETATM   17  C8  UNL     1      25.527   5.603  49.667  1.00  0.00     0.102 C 
HETATM   18  C9  UNL     1      26.270   6.918  49.440  1.00  0.00     0.045 C 
HETATM   19  C10 UNL     1      27.006   6.795  48.124  1.00  0.00     0.128 C 
HETATM   20  N6  UNL     1      28.104   5.869  48.386  1.00  0.00    -0.348 N 
HETATM   21  C11 UNL     1      29.475   6.227  48.399  1.00  0.00     0.253 C 
HETATM   22  C18 UNL     1      27.539   4.580  48.621  1.00  0.00     0.128 C 
HETATM   23  O2  UNL     1      30.314   5.326  48.638  1.00  0.00    -0.267 OA
HETATM   24  C19 UNL     1      26.548   4.496  49.730  1.00  0.00     0.045 C 
BRANCH  21  25
HETATM   25  C12 UNL     1      29.935   7.580  48.152  1.00  0.00     0.032 A 
HETATM   26  C13 UNL     1      30.242   7.843  46.819  1.00  0.00     0.017 A 
HETATM   27  C14 UNL     1      30.694   9.129  46.499  1.00  0.00     0.001 A 
HETATM   28  C15 UNL     1      30.846  10.128  47.428  1.00  0.00     0.000 A 
HETATM   29  C16 UNL     1      30.536   9.851  48.761  1.00  0.00     0.001 A 
HETATM   30  C17 UNL     1      30.082   8.577  49.108  1.00  0.00     0.017 A 
ENDBRANCH  21  25
ENDBRANCH  15  17
ENDBRANCH   9  15
BRANCH   4  31
HETATM   31  C3  UNL     1      21.623  -1.315  54.417  1.00  0.00     0.270 C 
HETATM   32  N3  UNL     1      20.255  -1.509  54.085  1.00  0.00    -0.365 N 
HETATM   33  H4  UNL     1      19.569  -1.772  53.311  1.00  0.00     0.159 HD
HETATM   34  H5  UNL     1      19.503  -1.365  54.806  1.00  0.00     0.159 HD
HETATM   35  O1  UNL     1      21.961  -2.203  55.212  1.00  0.00    -0.266 OA
ENDBRANCH   4  31
TORSDOF 4
ENDMDL
MODEL 4
REMARK VINA RESULT:      -9.5      4.609      8.411
REMARK  4 active torsions:
REMARK  status: ('A' for Active; 'I' for Inactive)
REMARK    1  A    between atoms: C2_4  and  C3_5 
REMARK       I    between atoms: C3_5  and  N3_6 
REMARK    2  A    between atoms: C7_12  and  N5_13 
REMARK    3  A    between atoms: N5_13  and  C8_14 
REMARK       I    between atoms: N6_17  and  C11_18 
REMARK    4  A    between atoms: C11_18  and  C12_20 
ROOT
HETATM    1  C1  UNL     1      26.785   3.523  49.593  1.00  0.00     0.180 C 
HETATM    2  N1  UNL     1      26.889   4.884  49.093  1.00  0.00    -0.271 N 
HETATM    3  N2  UNL     1      27.791   5.482  48.335  1.00  0.00    -0.166 NA
HETATM    4  C2  UNL     1      27.455   6.763  48.143  1.00  0.00     0.153 A 
HETATM    5  C4  UNL     1      26.260   6.998  48.822  1.00  0.00     0.009 A 
HETATM    6  C5  UNL     1      25.956   5.776  49.398  1.00  0.00     0.091 A 
HETATM    7  C6  UNL     1      24.720   5.791  50.178  1.00  0.00     0.112 A 
HETATM    8  N4  UNL     1      24.287   4.692  50.792  1.00  0.00    -0.060 NA
HETATM    9  C7  UNL     1      23.151   4.687  51.512  1.00  0.00     0.723 A 
HETATM   10  N7  UNL     1      22.460   5.832  51.591  1.00  0.00    -0.075 NA
HETATM   11  C20 UNL     1      22.895   6.938  50.971  1.00  0.00     0.146 A 
HETATM   12  C21 UNL     1      24.050   6.991  50.226  1.00  0.00    -0.008 A 
HETATM   13  C22 UNL     1      24.303   8.316  49.654  1.00  0.00     0.047 A 
HETATM   14  C23 UNL     1      25.564   8.309  48.855  1.00  0.00     0.048 A 
ENDROOT
BRANCH   9  15
HETATM   15  N5  UNL     1      22.679   3.516  52.165  1.00  0.00    -0.218 N 
HETATM   16  H6  UNL     1      21.892   3.658  52.869  1.00  0.00     0.178 HD
BRANCH  15  17
HETATM   17  C8  UNL     1      23.165   2.158  51.961  1.00  0.00     0.102 C 
HETATM   18  C9  UNL     1      24.685   2.168  52.110  1.00  0.00     0.045 C 
HETATM   19  C10 UNL     1      25.164   0.748  51.902  1.00  0.00     0.128 C 
HETATM   20  N6  UNL     1      24.748   0.025  53.102  1.00  0.00    -0.348 N 
HETATM   21  C11 UNL     1      25.632  -0.487  54.082  1.00  0.00     0.253 C 
HETATM   22  C18 UNL     1      23.324  -0.055  53.088  1.00  0.00     0.128 C 
HETATM   23  O2  UNL     1      25.136  -1.090  55.063  1.00  0.00    -0.267 OA
HETATM   24  C19 UNL     1      22.599   1.245  53.019  1.00  0.00     0.045 C 
BRANCH  21  25
HETATM   25  C12 UNL     1      27.072  -0.338  53.994  1.00  0.00     0.032 A 
HETATM   26  C13 UNL     1      27.705  -1.338  53.258  1.00  0.00     0.017 A 
HETATM   27  C14 UNL     1      29.097  -1.265  53.127  1.00  0.00     0.001 A 
HETATM   28  C15 UNL     1      29.856  -0.266  53.684  1.00  0.00     0.000 A 
HETATM   29  C16 UNL     1      29.210   0.729  54.421  1.00  0.00     0.001 A 
HETATM   30  C17 UNL     1      27.822   0.681  54.567  1.00  0.00     0.017 A 
ENDBRANCH  21  25
ENDBRANCH  15  17
ENDBRANCH   9  15
BRANCH   4  31
HETATM   31  C3  UNL     1      28.241   7.688  47.357  1.00  0.00     0.270 C 
HETATM   32  N3  UNL     1      29.362   8.379  47.889  1.00  0.00    -0.365 N 
HETATM   33  H4  UNL     1      30.358   8.282  48.260  1.00  0.00     0.159 HD
HETATM   34  H5  UNL     1      29.332   9.421  48.029  1.00  0.00     0.159 HD
HETATM   35  O1  UNL     1      28.099   8.026  46.174  1.00  0.00    -0.266 OA
ENDBRANCH   4  31
TORSDOF 4
ENDMDL
MODEL 5
REMARK VINA RESULT:      -9.4      4.428      9.633
REMARK  4 active torsions:
REMARK  status: ('A' for Active; 'I' for Inactive)
REMARK    1  A    between atoms: C2_4  and  C3_5 
REMARK       I    between atoms: C3_5  and  N3_6 
REMARK    2  A    between atoms: C7_12  and  N5_13 
REMARK    3  A    between atoms: N5_13  and  C8_14 
REMARK       I    between atoms: N6_17  and  C11_18 
REMARK    4  A    between atoms: C11_18  and  C12_20 
ROOT
HETATM    1  C1  UNL     1      25.970   1.940  52.204  1.00  0.00     0.180 C 
HETATM    2  N1  UNL     1      25.029   1.059  52.876  1.00  0.00    -0.271 N 
HETATM    3  N2  UNL     1      25.152   0.266  53.926  1.00  0.00    -0.166 NA
HETATM    4  C2  UNL     1      23.996  -0.358  54.171  1.00  0.00     0.153 A 
HETATM    5  C4  UNL     1      23.071   0.063  53.215  1.00  0.00     0.009 A 
HETATM    6  C5  UNL     1      23.784   0.955  52.431  1.00  0.00     0.091 A 
HETATM    7  C6  UNL     1      22.998   1.529  51.341  1.00  0.00     0.112 A 
HETATM    8  N4  UNL     1      23.538   2.409  50.499  1.00  0.00    -0.060 NA
HETATM    9  C7  UNL     1      22.829   2.948  49.492  1.00  0.00     0.723 A 
HETATM   10  N7  UNL     1      21.550   2.574  49.361  1.00  0.00    -0.075 NA
HETATM   11  C20 UNL     1      21.005   1.690  50.210  1.00  0.00     0.146 A 
HETATM   12  C21 UNL     1      21.691   1.111  51.252  1.00  0.00    -0.008 A 
HETATM   13  C22 UNL     1      20.871   0.179  52.030  1.00  0.00     0.047 A 
HETATM   14  C23 UNL     1      21.666  -0.411  53.147  1.00  0.00     0.048 A 
ENDROOT
BRANCH   9  15
HETATM   15  N5  UNL     1      23.396   3.893  48.594  1.00  0.00    -0.218 N 
HETATM   16  H6  UNL     1      23.425   3.605  47.568  1.00  0.00     0.178 HD
BRANCH  15  17
HETATM   17  C8  UNL     1      23.935   5.201  48.942  1.00  0.00     0.102 C 
HETATM   18  C9  UNL     1      25.437   5.053  49.173  1.00  0.00     0.045 C 
HETATM   19  C10 UNL     1      25.973   6.423  49.526  1.00  0.00     0.128 C 
HETATM   20  N6  UNL     1      25.932   7.182  48.278  1.00  0.00    -0.348 N 
HETATM   21  C11 UNL     1      27.074   7.612  47.558  1.00  0.00     0.253 C 
HETATM   22  C18 UNL     1      24.562   7.391  47.941  1.00  0.00     0.128 C 
HETATM   23  O2  UNL     1      26.891   8.258  46.500  1.00  0.00    -0.267 OA
HETATM   24  C19 UNL     1      23.731   6.162  47.799  1.00  0.00     0.045 C 
BRANCH  21  25
HETATM   25  C12 UNL     1      28.428   7.333  47.996  1.00  0.00     0.032 A 
HETATM   26  C13 UNL     1      29.078   8.423  48.570  1.00  0.00     0.017 A 
HETATM   27  C14 UNL     1      30.391   8.234  49.018  1.00  0.00     0.001 A 
HETATM   28  C15 UNL     1      31.057   7.038  48.917  1.00  0.00     0.000 A 
HETATM   29  C16 UNL     1      30.395   5.953  48.338  1.00  0.00     0.001 A 
HETATM   30  C17 UNL     1      29.085   6.114  47.883  1.00  0.00     0.017 A 
ENDBRANCH  21  25
ENDBRANCH  15  17
ENDBRANCH   9  15
BRANCH   4  31
HETATM   31  C3  UNL     1      23.805  -1.297  55.254  1.00  0.00     0.270 C 
HETATM   32  N3  UNL     1      24.850  -1.654  56.147  1.00  0.00    -0.365 N 
HETATM   33  H4  UNL     1      25.492  -1.312  56.927  1.00  0.00     0.159 HD
HETATM   34  H5  UNL     1      25.250  -2.626  56.141  1.00  0.00     0.159 HD
HETATM   35  O1  UNL     1      22.783  -1.916  55.581  1.00  0.00    -0.266 OA
ENDBRANCH   4  31
TORSDOF 4
ENDMDL
MODEL 6
REMARK VINA RESULT:      -9.3      4.038      6.960
REMARK  4 active torsions:
REMARK  status: ('A' for Active; 'I' for Inactive)
REMARK    1  A    between atoms: C2_4  and  C3_5 
REMARK       I    between atoms: C3_5  and  N3_6 
REMARK    2  A    between atoms: C7_12  and  N5_13 
REMARK    3  A    between atoms: N5_13  and  C8_14 
REMARK       I    between atoms: N6_17  and  C11_18 
REMARK    4  A    between atoms: C11_18  and  C12_20 
ROOT
HETATM    1  C1  UNL     1      25.560   2.831  50.716  1.00  0.00     0.180 C 
HETATM    2  N1  UNL     1      26.299   2.211  51.804  1.00  0.00    -0.271 N 
HETATM    3  N2  UNL     1      27.543   2.355  52.224  1.00  0.00    -0.166 NA
HETATM    4  C2  UNL     1      27.771   1.556  53.272  1.00  0.00     0.153 A 
HETATM    5  C4  UNL     1      26.595   0.855  53.540  1.00  0.00     0.009 A 
HETATM    6  C5  UNL     1      25.707   1.313  52.580  1.00  0.00     0.091 A 
HETATM    7  C6  UNL     1      24.385   0.698  52.670  1.00  0.00     0.112 A 
HETATM    8  N4  UNL     1      23.415   1.035  51.821  1.00  0.00    -0.060 NA
HETATM    9  C7  UNL     1      22.192   0.480  51.890  1.00  0.00     0.723 A 
HETATM   10  N7  UNL     1      21.975  -0.428  52.850  1.00  0.00    -0.075 NA
HETATM   11  C20 UNL     1      22.950  -0.766  53.706  1.00  0.00     0.146 A 
HETATM   12  C21 UNL     1      24.215  -0.228  53.672  1.00  0.00    -0.008 A 
HETATM   13  C22 UNL     1      25.094  -0.765  54.714  1.00  0.00     0.047 A 
HETATM   14  C23 UNL     1      26.447  -0.141  54.631  1.00  0.00     0.048 A 
ENDROOT
BRANCH   9  15
HETATM   15  N5  UNL     1      21.151   0.840  50.992  1.00  0.00    -0.218 N 
HETATM   16  H6  UNL     1      20.627   0.033  50.535  1.00  0.00     0.178 HD
BRANCH  15  17
HETATM   17  C8  UNL     1      20.740   2.195  50.644  1.00  0.00     0.102 C 
HETATM   18  C9  UNL     1      21.855   3.152  51.056  1.00  0.00     0.045 C 
HETATM   19  C10 UNL     1      21.409   4.548  50.678  1.00  0.00     0.128 C 
HETATM   20  N6  UNL     1      21.495   4.594  49.221  1.00  0.00    -0.348 N 
HETATM   21  C11 UNL     1      22.427   5.374  48.492  1.00  0.00     0.253 C 
HETATM   22  C18 UNL     1      20.491   3.726  48.699  1.00  0.00     0.128 C 
HETATM   23  O2  UNL     1      22.386   5.318  47.241  1.00  0.00    -0.267 OA
HETATM   24  C19 UNL     1      20.556   2.308  49.152  1.00  0.00     0.045 C 
BRANCH  21  25
HETATM   25  C12 UNL     1      23.414   6.220  49.135  1.00  0.00     0.032 A 
HETATM   26  C13 UNL     1      24.730   5.798  48.957  1.00  0.00     0.017 A 
HETATM   27  C14 UNL     1      25.742   6.563  49.549  1.00  0.00     0.001 A 
HETATM   28  C15 UNL     1      25.499   7.696  50.286  1.00  0.00     0.000 A 
HETATM   29  C16 UNL     1      24.176   8.107  50.458  1.00  0.00     0.001 A 
HETATM   30  C17 UNL     1      23.146   7.363  49.878  1.00  0.00     0.017 A 
ENDBRANCH  21  25
ENDBRANCH  15  17
ENDBRANCH   9  15
BRANCH   4  31
HETATM   31  C3  UNL     1      29.040   1.480  53.961  1.00  0.00     0.270 C 
HETATM   32  N3  UNL     1      30.082   0.608  53.548  1.00  0.00    -0.365 N 
HETATM   33  H4  UNL     1      30.798   0.396  52.786  1.00  0.00     0.159 HD
HETATM   34  H5  UNL     1      30.362  -0.211  54.144  1.00  0.00     0.159 HD
HETATM   35  O1  UNL     1      29.427   2.106  54.958  1.00  0.00    -0.266 OA
ENDBRANCH   4  31
TORSDOF 4
ENDMDL
MODEL 7
REMARK VINA RESULT:      -9.3      4.311      8.486
REMARK  4 active torsions:
REMARK  status: ('A' for Active; 'I' for Inactive)
REMARK    1  A    between atoms: C2_4  and  C3_5 
REMARK       I    between atoms: C3_5  and  N3_6 
REMARK    2  A    between atoms: C7_12  and  N5_13 
REMARK    3  A    between atoms: N5_13  and  C8_14 
REMARK       I    between atoms: N6_17  and  C11_18 
REMARK    4  A    between atoms: C11_18  and  C12_20 
ROOT
HETATM    1  C1  UNL     1      26.386   2.824  50.850  1.00  0.00     0.180 C 
HETATM    2  N1  UNL     1      26.409   1.602  51.637  1.00  0.00    -0.271 N 
HETATM    3  N2  UNL     1      27.385   0.768  51.948  1.00  0.00    -0.166 NA
HETATM    4  C2  UNL     1      26.915  -0.232  52.702  1.00  0.00     0.153 A 
HETATM    5  C4  UNL     1      25.547  -0.023  52.884  1.00  0.00     0.009 A 
HETATM    6  C5  UNL     1      25.292   1.148  52.189  1.00  0.00     0.091 A 
HETATM    7  C6  UNL     1      23.892   1.562  52.242  1.00  0.00     0.112 A 
HETATM    8  N4  UNL     1      23.485   2.672  51.627  1.00  0.00    -0.060 NA
HETATM    9  C7  UNL     1      22.200   3.069  51.666  1.00  0.00     0.723 A 
HETATM   10  N7  UNL     1      21.336   2.310  52.352  1.00  0.00    -0.075 NA
HETATM   11  C20 UNL     1      21.746   1.194  52.972  1.00  0.00     0.146 A 
HETATM   12  C21 UNL     1      23.046   0.748  52.958  1.00  0.00    -0.008 A 
HETATM   13  C22 UNL     1      23.234  -0.495  53.710  1.00  0.00     0.047 A 
HETATM   14  C23 UNL     1      24.663  -0.926  53.663  1.00  0.00     0.048 A 
ENDROOT
BRANCH   9  15
HETATM   15  N5  UNL     1      21.760   4.255  51.019  1.00  0.00    -0.218 N 
HETATM   16  H6  UNL     1      21.015   4.129  50.268  1.00  0.00     0.178 HD
BRANCH  15  17
HETATM   17  C8  UNL     1      22.226   5.610  51.286  1.00  0.00     0.102 C 
HETATM   18  C9  UNL     1      23.709   5.682  50.929  1.00  0.00     0.045 C 
HETATM   19  C10 UNL     1      24.168   7.097  51.208  1.00  0.00     0.128 C 
HETATM   20  N6  UNL     1      23.562   7.908  50.154  1.00  0.00    -0.348 N 
HETATM   21  C11 UNL     1      24.283   8.549  49.116  1.00  0.00     0.253 C 
HETATM   22  C18 UNL     1      22.153   7.922  50.371  1.00  0.00     0.128 C 
HETATM   23  O2  UNL     1      23.633   9.217  48.277  1.00  0.00    -0.267 OA
HETATM   24  C19 UNL     1      21.487   6.589  50.412  1.00  0.00     0.045 C 
BRANCH  21  25
HETATM   25  C12 UNL     1      25.725   8.459  48.990  1.00  0.00     0.032 A 
HETATM   26  C13 UNL     1      26.160   7.452  48.131  1.00  0.00     0.017 A 
HETATM   27  C14 UNL     1      27.541   7.300  47.957  1.00  0.00     0.001 A 
HETATM   28  C15 UNL     1      28.472   8.088  48.585  1.00  0.00     0.000 A 
HETATM   29  C16 UNL     1      28.023   9.093  49.445  1.00  0.00     0.001 A 
HETATM   30  C17 UNL     1      26.651   9.267  49.637  1.00  0.00     0.017 A 
ENDBRANCH  21  25
ENDBRANCH  15  17
ENDBRANCH   9  15
BRANCH   4  31
HETATM   31  C3  UNL     1      27.735  -1.311  53.205  1.00  0.00     0.270 C 
HETATM   32  N3  UNL     1      27.543  -2.662  52.813  1.00  0.00    -0.365 N 
HETATM   33  H4  UNL     1      27.607  -3.360  52.008  1.00  0.00     0.159 HD
HETATM   34  H5  UNL     1      27.193  -3.375  53.502  1.00  0.00     0.159 HD
HETATM   35  O1  UNL     1      28.680  -1.267  54.005  1.00  0.00    -0.266 OA
ENDBRANCH   4  31
TORSDOF 4
ENDMDL
MODEL 8
REMARK VINA RESULT:      -9.2      5.501     10.443
REMARK  4 active torsions:
REMARK  status: ('A' for Active; 'I' for Inactive)
REMARK    1  A    between atoms: C2_4  and  C3_5 
REMARK       I    between atoms: C3_5  and  N3_6 
REMARK    2  A    between atoms: C7_12  and  N5_13 
REMARK    3  A    between atoms: N5_13  and  C8_14 
REMARK       I    between atoms: N6_17  and  C11_18 
REMARK    4  A    between atoms: C11_18  and  C12_20 
ROOT
HETATM    1  C1  UNL     1      21.959   1.937  50.518  1.00  0.00     0.180 C 
HETATM    2  N1  UNL     1      22.220   1.078  51.660  1.00  0.00    -0.271 N 
HETATM    3  N2  UNL     1      21.429   0.313  52.392  1.00  0.00    -0.166 NA
HETATM    4  C2  UNL     1      22.135  -0.295  53.352  1.00  0.00     0.153 A 
HETATM    5  C4  UNL     1      23.465   0.107  53.226  1.00  0.00     0.009 A 
HETATM    6  C5  UNL     1      23.451   0.970  52.142  1.00  0.00     0.091 A 
HETATM    7  C6  UNL     1      24.765   1.526  51.824  1.00  0.00     0.112 A 
HETATM    8  N4  UNL     1      24.921   2.370  50.806  1.00  0.00    -0.060 NA
HETATM    9  C7  UNL     1      26.123   2.890  50.498  1.00  0.00     0.723 A 
HETATM   10  N7  UNL     1      27.168   2.527  51.253  1.00  0.00    -0.075 NA
HETATM   11  C20 UNL     1      27.012   1.677  52.277  1.00  0.00     0.146 A 
HETATM   12  C21 UNL     1      25.804   1.122  52.630  1.00  0.00    -0.008 A 
HETATM   13  C22 UNL     1      25.900   0.226  53.785  1.00  0.00     0.047 A 
HETATM   14  C23 UNL     1      24.562  -0.348  54.116  1.00  0.00     0.048 A 
ENDROOT
BRANCH   9  15
HETATM   15  N5  UNL     1      26.299   3.785  49.409  1.00  0.00    -0.218 N 
HETATM   16  H6  UNL     1      26.595   3.345  48.485  1.00  0.00     0.178 HD
BRANCH  15  17
HETATM   17  C8  UNL     1      26.114   5.231  49.440  1.00  0.00     0.102 C 
HETATM   18  C9  UNL     1      27.301   5.878  48.731  1.00  0.00     0.045 C 
HETATM   19  C10 UNL     1      27.084   7.375  48.770  1.00  0.00     0.128 C 
HETATM   20  N6  UNL     1      25.996   7.627  47.828  1.00  0.00    -0.348 N 
HETATM   21  C11 UNL     1      26.138   8.312  46.597  1.00  0.00     0.253 C 
HETATM   22  C18 UNL     1      24.807   7.061  48.377  1.00  0.00     0.128 C 
HETATM   23  O2  UNL     1      25.116   8.459  45.886  1.00  0.00    -0.267 OA
HETATM   24  C19 UNL     1      24.862   5.605  48.689  1.00  0.00     0.045 C 
BRANCH  21  25
HETATM   25  C12 UNL     1      27.407   8.842  46.135  1.00  0.00     0.032 A 
HETATM   26  C13 UNL     1      27.603  10.189  46.429  1.00  0.00     0.017 A 
HETATM   27  C14 UNL     1      28.806  10.775  46.015  1.00  0.00     0.001 A 
HETATM   28  C15 UNL     1      29.786  10.089  45.342  1.00  0.00     0.000 A 
HETATM   29  C16 UNL     1      29.577   8.739  45.053  1.00  0.00     0.001 A 
HETATM   30  C17 UNL     1      28.386   8.130  45.455  1.00  0.00     0.017 A 
ENDBRANCH  21  25
ENDBRANCH  15  17
ENDBRANCH   9  15
BRANCH   4  31
HETATM   31  C3  UNL     1      21.557  -1.198  54.322  1.00  0.00     0.270 C 
HETATM   32  N3  UNL     1      20.209  -1.639  54.246  1.00  0.00    -0.365 N 
HETATM   33  H4  UNL     1      19.507  -2.224  53.696  1.00  0.00     0.159 HD
HETATM   34  H5  UNL     1      19.505  -1.335  54.966  1.00  0.00     0.159 HD
HETATM   35  O1  UNL     1      22.081  -1.715  55.318  1.00  0.00    -0.266 OA
ENDBRANCH   4  31
TORSDOF 4
ENDMDL
MODEL 9
REMARK VINA RESULT:      -9.2      3.031      4.881
REMARK  4 active torsions:
REMARK  status: ('A' for Active; 'I' for Inactive)
REMARK    1  A    between atoms: C2_4  and  C3_5 
REMARK       I    between atoms: C3_5  and  N3_6 
REMARK    2  A    between atoms: C7_12  and  N5_13 
REMARK    3  A    between atoms: N5_13  and  C8_14 
REMARK       I    between atoms: N6_17  and  C11_18 
REMARK    4  A    between atoms: C11_18  and  C12_20 
ROOT
HETATM    1  C1  UNL     1      23.258   1.919  50.683  1.00  0.00     0.180 C 
HETATM    2  N1  UNL     1      23.827   1.183  51.799  1.00  0.00    -0.271 N 
HETATM    3  N2  UNL     1      25.061   1.088  52.261  1.00  0.00    -0.166 NA
HETATM    4  C2  UNL     1      25.096   0.276  53.322  1.00  0.00     0.153 A 
HETATM    5  C4  UNL     1      23.797  -0.179  53.556  1.00  0.00     0.009 A 
HETATM    6  C5  UNL     1      23.047   0.429  52.563  1.00  0.00     0.091 A 
HETATM    7  C6  UNL     1      21.628   0.086  52.614  1.00  0.00     0.112 A 
HETATM    8  N4  UNL     1      20.770   0.593  51.730  1.00  0.00    -0.060 NA
HETATM    9  C7  UNL     1      19.461   0.289  51.762  1.00  0.00     0.723 A 
HETATM   10  N7  UNL     1      19.040  -0.545  52.722  1.00  0.00    -0.075 NA
HETATM   11  C20 UNL     1      19.902  -1.055  53.613  1.00  0.00     0.146 A 
HETATM   12  C21 UNL     1      21.249  -0.774  53.618  1.00  0.00    -0.008 A 
HETATM   13  C22 UNL     1      21.973  -1.456  54.694  1.00  0.00     0.047 A 
HETATM   14  C23 UNL     1      23.424  -1.110  54.650  1.00  0.00     0.048 A 
ENDROOT
BRANCH   9  15
HETATM   15  N5  UNL     1      18.539   0.831  50.827  1.00  0.00    -0.218 N 
HETATM   16  H6  UNL     1      18.927   1.563  50.157  1.00  0.00     0.178 HD
BRANCH  15  17
HETATM   17  C8  UNL     1      17.129   0.482  50.701  1.00  0.00     0.102 C 
HETATM   18  C9  UNL     1      16.388   1.049  51.910  1.00  0.00     0.045 C 
HETATM   19  C10 UNL     1      14.929   0.681  51.754  1.00  0.00     0.128 C 
HETATM   20  N6  UNL     1      14.435   1.529  50.671  1.00  0.00    -0.348 N 
HETATM   21  C11 UNL     1      13.503   2.583  50.834  1.00  0.00     0.253 C 
HETATM   22  C18 UNL     1      15.062   1.100  49.463  1.00  0.00     0.128 C 
HETATM   23  O2  UNL     1      13.165   3.230  49.815  1.00  0.00    -0.267 OA
HETATM   24  C19 UNL     1      16.551   1.115  49.461  1.00  0.00     0.045 C 
BRANCH  21  25
HETATM   25  C12 UNL     1      12.934   2.936  52.121  1.00  0.00     0.032 A 
HETATM   26  C13 UNL     1      13.554   4.019  52.741  1.00  0.00     0.017 A 
HETATM   27  C14 UNL     1      13.063   4.421  53.989  1.00  0.00     0.001 A 
HETATM   28  C15 UNL     1      12.011   3.804  54.619  1.00  0.00     0.000 A 
HETATM   29  C16 UNL     1      11.400   2.719  53.988  1.00  0.00     0.001 A 
HETATM   30  C17 UNL     1      11.869   2.297  52.743  1.00  0.00     0.017 A 
ENDBRANCH  21  25
ENDBRANCH  15  17
ENDBRANCH   9  15
BRANCH   4  31
HETATM   31  C3  UNL     1      26.303  -0.036  54.054  1.00  0.00     0.270 C 
HETATM   32  N3  UNL     1      26.825   0.815  55.064  1.00  0.00    -0.365 N 
HETATM   33  H4  UNL     1      26.670   1.217  56.040  1.00  0.00     0.159 HD
HETATM   34  H5  UNL     1      27.733   1.325  54.917  1.00  0.00     0.159 HD
HETATM   35  O1  UNL     1      27.049  -1.020  53.950  1.00  0.00    -0.266 OA
ENDBRANCH   4  31
TORSDOF 4
ENDMDL
