MODEL 1
REMARK VINA RESULT:      -6.6      0.000      0.000
REMARK  4 active torsions:
REMARK  status: ('A' for Active; 'I' for Inactive)
REMARK    1  A    between atoms: C2_2  and  C3_3 
REMARK    2  A    between atoms: C3_3  and  C4_5 
REMARK    3  A    between atoms: C4_5  and  C5_6 
REMARK    4  A    between atoms: C15_20  and  N3_21 
ROOT
HETATM    1  C5  UNL     1      24.972   2.945  50.232  1.00  0.00     0.032 C 
HETATM    2  C6  UNL     1      25.020   3.053  51.561  1.00  0.00     0.069 C 
HETATM    3  N1  UNL     1      26.393   2.884  51.508  1.00  0.00    -0.247 NA
HETATM    4  C7  UNL     1      27.160   1.969  51.931  1.00  0.00     0.193 C 
HETATM    5  N2  UNL     1      26.211   1.133  52.495  1.00  0.00    -0.399 NA
HETATM    6  C8  UNL     1      26.386   0.021  53.067  1.00  0.00     0.329 C 
HETATM    7  C9  UNL     1      25.046  -0.480  53.504  1.00  0.00     0.040 C 
HETATM    8  C10 UNL     1      23.700  -0.370  53.652  1.00  0.00     0.078 C 
HETATM    9  O1  UNL     1      22.826  -1.261  54.195  1.00  0.00    -0.343 OA
HETATM   10  C11 UNL     1      21.636  -1.092  53.387  1.00  0.00     0.259 C 
HETATM   11  C12 UNL     1      21.548   0.415  53.609  1.00  0.00     0.182 C 
HETATM   12  O2  UNL     1      20.723   1.308  53.994  1.00  0.00    -0.290 OA
HETATM   13  C13 UNL     1      22.921   0.836  53.216  1.00  0.00     0.030 C 
HETATM   14  C14 UNL     1      22.973   2.109  52.728  1.00  0.00     0.075 C 
HETATM   15  C15 UNL     1      23.722   3.251  52.276  1.00  0.00     0.278 C 
ENDROOT
BRANCH   1  16
HETATM   16  C4  UNL     1      23.926   2.984  49.258  1.00  0.00     0.044 C 
BRANCH  16  17
HETATM   17  C3  UNL     1      22.907   2.916  48.430  1.00  0.00     0.115 C 
HETATM   18  F1  UNL     1      23.376   4.172  48.227  1.00  0.00    -0.206 F 
BRANCH  17  19
HETATM   19  C2  UNL     1      21.804   2.239  47.825  1.00  0.00     0.032 C 
HETATM   20  C1  UNL     1      21.436   1.238  48.592  1.00  0.00     0.014 C 
ENDBRANCH  17  19
ENDBRANCH  16  17
ENDBRANCH   1  16
BRANCH  15  21
HETATM   21  N3  UNL     1      24.032   4.230  53.349  1.00  0.00     0.089 N 
HETATM   22  H13 UNL     1      23.152   4.687  53.683  1.00  0.00     0.313 HD
HETATM   23  H14 UNL     1      24.638   4.965  52.944  1.00  0.00     0.313 HD
ENDBRANCH  15  21
TORSDOF 4
ENDMDL
MODEL 2
REMARK VINA RESULT:      -6.6      2.933      4.614
REMARK  4 active torsions:
REMARK  status: ('A' for Active; 'I' for Inactive)
REMARK    1  A    between atoms: C2_2  and  C3_3 
REMARK    2  A    between atoms: C3_3  and  C4_5 
REMARK    3  A    between atoms: C4_5  and  C5_6 
REMARK    4  A    between atoms: C15_20  and  N3_21 
ROOT
HETATM    1  C5  UNL     1      21.821   3.596  51.564  1.00  0.00     0.032 C 
HETATM    2  C6  UNL     1      22.904   4.314  51.869  1.00  0.00     0.069 C 
HETATM    3  N1  UNL     1      22.776   4.986  50.665  1.00  0.00    -0.247 NA
HETATM    4  C7  UNL     1      23.502   5.029  49.628  1.00  0.00     0.193 C 
HETATM    5  N2  UNL     1      24.517   4.179  50.036  1.00  0.00    -0.399 NA
HETATM    6  C8  UNL     1      25.539   3.811  49.393  1.00  0.00     0.329 C 
HETATM    7  C9  UNL     1      26.324   2.895  50.275  1.00  0.00     0.040 C 
HETATM    8  C10 UNL     1      26.560   2.244  51.444  1.00  0.00     0.078 C 
HETATM    9  O1  UNL     1      27.574   1.391  51.757  1.00  0.00    -0.343 OA
HETATM   10  C11 UNL     1      26.939   0.427  52.631  1.00  0.00     0.259 C 
HETATM   11  C12 UNL     1      26.393   1.477  53.596  1.00  0.00     0.182 C 
HETATM   12  O2  UNL     1      26.380   1.759  54.839  1.00  0.00    -0.290 OA
HETATM   13  C13 UNL     1      25.680   2.380  52.652  1.00  0.00     0.030 C 
HETATM   14  C14 UNL     1      24.622   3.026  53.222  1.00  0.00     0.075 C 
HETATM   15  C15 UNL     1      23.577   4.013  53.170  1.00  0.00     0.278 C 
ENDROOT
BRANCH   1  16
HETATM   16  C4  UNL     1      21.091   2.554  52.215  1.00  0.00     0.044 C 
BRANCH  16  17
HETATM   17  C3  UNL     1      20.520   1.590  52.904  1.00  0.00     0.115 C 
HETATM   18  F1  UNL     1      19.459   2.280  52.420  1.00  0.00    -0.206 F 
BRANCH  17  19
HETATM   19  C2  UNL     1      20.558   0.427  53.733  1.00  0.00     0.032 C 
HETATM   20  C1  UNL     1      21.808   0.139  54.020  1.00  0.00     0.014 C 
ENDBRANCH  17  19
ENDBRANCH  16  17
ENDBRANCH   1  16
BRANCH  15  21
HETATM   21  N3  UNL     1      23.976   5.342  53.700  1.00  0.00     0.089 N 
HETATM   22  H13 UNL     1      24.830   5.247  54.297  1.00  0.00     0.313 HD
HETATM   23  H14 UNL     1      23.206   5.690  54.298  1.00  0.00     0.313 HD
ENDBRANCH  15  21
TORSDOF 4
ENDMDL
MODEL 3
REMARK VINA RESULT:      -6.5      8.242     10.428
REMARK  4 active torsions:
REMARK  status: ('A' for Active; 'I' for Inactive)
REMARK    1  A    between atoms: C2_2  and  C3_3 
REMARK    2  A    between atoms: C3_3  and  C4_5 
REMARK    3  A    between atoms: C4_5  and  C5_6 
REMARK    4  A    between atoms: C15_20  and  N3_21 
ROOT
HETATM    1  C5  UNL     1      28.371   7.369  48.080  1.00  0.00     0.032 C 
HETATM    2  C6  UNL     1      29.605   7.848  48.250  1.00  0.00     0.069 C 
HETATM    3  N1  UNL     1      29.206   9.039  47.669  1.00  0.00    -0.247 NA
HETATM    4  C7  UNL     1      29.536   9.618  46.592  1.00  0.00     0.193 C 
HETATM    5  N2  UNL     1      30.455   8.696  46.121  1.00  0.00    -0.399 NA
HETATM    6  C8  UNL     1      31.117   8.726  45.046  1.00  0.00     0.329 C 
HETATM    7  C9  UNL     1      31.972   7.501  45.005  1.00  0.00     0.040 C 
HETATM    8  C10 UNL     1      32.464   6.347  45.528  1.00  0.00     0.078 C 
HETATM    9  O1  UNL     1      33.350   5.471  44.980  1.00  0.00    -0.343 OA
HETATM   10  C11 UNL     1      32.881   4.185  45.453  1.00  0.00     0.259 C 
HETATM   11  C12 UNL     1      32.892   4.584  46.926  1.00  0.00     0.182 C 
HETATM   12  O2  UNL     1      33.349   4.190  48.050  1.00  0.00    -0.290 OA
HETATM   13  C13 UNL     1      32.081   5.831  46.884  1.00  0.00     0.030 C 
HETATM   14  C14 UNL     1      31.413   6.077  48.048  1.00  0.00     0.075 C 
HETATM   15  C15 UNL     1      30.609   6.934  48.878  1.00  0.00     0.278 C 
ENDROOT
BRANCH   1  16
HETATM   16  C4  UNL     1      27.725   6.129  48.375  1.00  0.00     0.044 C 
BRANCH  16  17
HETATM   17  C3  UNL     1      27.145   5.019  48.777  1.00  0.00     0.115 C 
HETATM   18  F1  UNL     1      28.313   4.574  48.252  1.00  0.00    -0.206 F 
BRANCH  17  19
HETATM   19  C2  UNL     1      26.073   4.292  49.379  1.00  0.00     0.032 C 
HETATM   20  C1  UNL     1      26.496   3.094  49.717  1.00  0.00     0.014 C 
ENDBRANCH  17  19
ENDBRANCH  16  17
ENDBRANCH   1  16
BRANCH  15  21
HETATM   21  N3  UNL     1      31.398   7.811  49.781  1.00  0.00     0.089 N 
HETATM   22  H13 UNL     1      31.119   8.810  49.644  1.00  0.00     0.313 HD
HETATM   23  H14 UNL     1      32.396   7.720  49.521  1.00  0.00     0.313 HD
ENDBRANCH  15  21
TORSDOF 4
ENDMDL
MODEL 4
REMARK VINA RESULT:      -6.1      2.777      4.564
REMARK  4 active torsions:
REMARK  status: ('A' for Active; 'I' for Inactive)
REMARK    1  A    between atoms: C2_2  and  C3_3 
REMARK    2  A    between atoms: C3_3  and  C4_5 
REMARK    3  A    between atoms: C4_5  and  C5_6 
REMARK    4  A    between atoms: C15_20  and  N3_21 
ROOT
HETATM    1  C5  UNL     1      25.326   3.042  51.375  1.00  0.00     0.032 C 
HETATM    2  C6  UNL     1      24.175   3.279  52.008  1.00  0.00     0.069 C 
HETATM    3  N1  UNL     1      24.458   2.238  52.876  1.00  0.00    -0.247 NA
HETATM    4  C7  UNL     1      23.903   1.117  53.078  1.00  0.00     0.193 C 
HETATM    5  N2  UNL     1      22.879   1.210  52.150  1.00  0.00    -0.399 NA
HETATM    6  C8  UNL     1      21.990   0.358  51.874  1.00  0.00     0.329 C 
HETATM    7  C9  UNL     1      21.121   0.938  50.805  1.00  0.00     0.040 C 
HETATM    8  C10 UNL     1      20.736   1.931  49.961  1.00  0.00     0.078 C 
HETATM    9  O1  UNL     1      19.728   1.931  49.046  1.00  0.00    -0.343 OA
HETATM   10  C11 UNL     1      20.263   2.728  47.963  1.00  0.00     0.259 C 
HETATM   11  C12 UNL     1      20.600   3.927  48.845  1.00  0.00     0.182 C 
HETATM   12  O2  UNL     1      20.404   5.185  48.914  1.00  0.00    -0.290 OA
HETATM   13  C13 UNL     1      21.407   3.272  49.910  1.00  0.00     0.030 C 
HETATM   14  C14 UNL     1      22.330   4.105  50.473  1.00  0.00     0.075 C 
HETATM   15  C15 UNL     1      23.322   4.385  51.477  1.00  0.00     0.278 C 
ENDROOT
BRANCH   1  16
HETATM   16  C4  UNL     1      25.995   3.624  50.254  1.00  0.00     0.044 C 
BRANCH  16  17
HETATM   17  C3  UNL     1      26.595   4.280  49.285  1.00  0.00     0.115 C 
HETATM   18  F1  UNL     1      25.295   4.303  48.903  1.00  0.00    -0.206 F 
BRANCH  17  19
HETATM   19  C2  UNL     1      27.750   4.826  48.646  1.00  0.00     0.032 C 
HETATM   20  C1  UNL     1      27.528   6.089  48.355  1.00  0.00     0.014 C 
ENDBRANCH  17  19
ENDBRANCH  16  17
ENDBRANCH   1  16
BRANCH  15  21
HETATM   21  N3  UNL     1      22.781   5.054  52.688  1.00  0.00     0.089 N 
HETATM   22  H13 UNL     1      23.132   4.573  53.549  1.00  0.00     0.313 HD
HETATM   23  H14 UNL     1      21.750   4.961  52.669  1.00  0.00     0.313 HD
ENDBRANCH  15  21
TORSDOF 4
ENDMDL
MODEL 5
REMARK VINA RESULT:      -6.0      1.924      2.317
REMARK  4 active torsions:
REMARK  status: ('A' for Active; 'I' for Inactive)
REMARK    1  A    between atoms: C2_2  and  C3_3 
REMARK    2  A    between atoms: C3_3  and  C4_5 
REMARK    3  A    between atoms: C4_5  and  C5_6 
REMARK    4  A    between atoms: C15_20  and  N3_21 
ROOT
HETATM    1  C5  UNL     1      24.535   4.251  49.352  1.00  0.00     0.032 C 
HETATM    2  C6  UNL     1      24.581   4.281  50.686  1.00  0.00     0.069 C 
HETATM    3  N1  UNL     1      25.909   3.893  50.632  1.00  0.00    -0.247 NA
HETATM    4  C7  UNL     1      26.511   2.844  51.010  1.00  0.00     0.193 C 
HETATM    5  N2  UNL     1      25.430   2.146  51.522  1.00  0.00    -0.399 NA
HETATM    6  C8  UNL     1      25.413   0.992  52.034  1.00  0.00     0.329 C 
HETATM    7  C9  UNL     1      24.004   0.694  52.435  1.00  0.00     0.040 C 
HETATM    8  C10 UNL     1      22.691   1.014  52.581  1.00  0.00     0.078 C 
HETATM    9  O1  UNL     1      21.676   0.250  53.069  1.00  0.00    -0.343 OA
HETATM   10  C11 UNL     1      20.542   0.653  52.264  1.00  0.00     0.259 C 
HETATM   11  C12 UNL     1      20.697   2.141  52.567  1.00  0.00     0.182 C 
HETATM   12  O2  UNL     1      20.022   3.135  52.994  1.00  0.00    -0.290 OA
HETATM   13  C13 UNL     1      22.125   2.352  52.205  1.00  0.00     0.030 C 
HETATM   14  C14 UNL     1      22.390   3.623  51.787  1.00  0.00     0.075 C 
HETATM   15  C15 UNL     1      23.322   4.650  51.402  1.00  0.00     0.278 C 
ENDROOT
BRANCH   1  16
HETATM   16  C4  UNL     1      23.524   4.511  48.375  1.00  0.00     0.044 C 
BRANCH  16  17
HETATM   17  C3  UNL     1      22.513   4.784  47.581  1.00  0.00     0.115 C 
HETATM   18  F1  UNL     1      22.083   3.684  48.246  1.00  0.00    -0.206 F 
BRANCH  17  19
HETATM   19  C2  UNL     1      21.863   5.559  46.572  1.00  0.00     0.032 C 
HETATM   20  C1  UNL     1      22.614   6.594  46.269  1.00  0.00     0.014 C 
ENDBRANCH  17  19
ENDBRANCH  16  17
ENDBRANCH   1  16
BRANCH  15  21
HETATM   21  N3  UNL     1      23.771   5.508  52.528  1.00  0.00     0.089 N 
HETATM   22  H13 UNL     1      24.497   6.185  52.195  1.00  0.00     0.313 HD
HETATM   23  H14 UNL     1      24.208   4.897  53.240  1.00  0.00     0.313 HD
ENDBRANCH  15  21
TORSDOF 4
ENDMDL
MODEL 6
REMARK VINA RESULT:      -6.0     10.128     12.467
REMARK  4 active torsions:
REMARK  status: ('A' for Active; 'I' for Inactive)
REMARK    1  A    between atoms: C2_2  and  C3_3 
REMARK    2  A    between atoms: C3_3  and  C4_5 
REMARK    3  A    between atoms: C4_5  and  C5_6 
REMARK    4  A    between atoms: C15_20  and  N3_21 
ROOT
HETATM    1  C5  UNL     1      30.744   5.340  47.614  1.00  0.00     0.032 C 
HETATM    2  C6  UNL     1      30.766   6.529  48.220  1.00  0.00     0.069 C 
HETATM    3  N1  UNL     1      29.446   6.722  47.850  1.00  0.00    -0.247 NA
HETATM    4  C7  UNL     1      28.888   7.551  47.071  1.00  0.00     0.193 C 
HETATM    5  N2  UNL     1      30.009   8.255  46.662  1.00  0.00    -0.399 NA
HETATM    6  C8  UNL     1      30.079   9.214  45.845  1.00  0.00     0.329 C 
HETATM    7  C9  UNL     1      31.513   9.625  45.749  1.00  0.00     0.040 C 
HETATM    8  C10 UNL     1      32.824   9.545  46.098  1.00  0.00     0.078 C 
HETATM    9  O1  UNL     1      33.880  10.258  45.620  1.00  0.00    -0.343 OA
HETATM   10  C11 UNL     1      34.962   9.296  45.631  1.00  0.00     0.259 C 
HETATM   11  C12 UNL     1      34.789   8.932  47.104  1.00  0.00     0.182 C 
HETATM   12  O2  UNL     1      35.462   8.847  48.183  1.00  0.00    -0.290 OA
HETATM   13  C13 UNL     1      33.340   8.595  47.139  1.00  0.00     0.030 C 
HETATM   14  C14 UNL     1      33.024   7.682  48.103  1.00  0.00     0.075 C 
HETATM   15  C15 UNL     1      32.051   6.942  48.862  1.00  0.00     0.278 C 
ENDROOT
BRANCH   1  16
HETATM   16  C4  UNL     1      31.698   4.292  47.422  1.00  0.00     0.044 C 
BRANCH  16  17
HETATM   17  C3  UNL     1      32.663   3.425  47.209  1.00  0.00     0.115 C 
HETATM   18  F1  UNL     1      31.613   2.872  46.554  1.00  0.00    -0.206 F 
BRANCH  17  19
HETATM   19  C2  UNL     1      34.006   2.958  47.352  1.00  0.00     0.032 C 
HETATM   20  C1  UNL     1      34.736   3.899  47.907  1.00  0.00     0.014 C 
ENDBRANCH  17  19
ENDBRANCH  16  17
ENDBRANCH   1  16
BRANCH  15  21
HETATM   21  N3  UNL     1      31.640   7.608  50.125  1.00  0.00     0.089 N 
HETATM   22  H13 UNL     1      30.939   8.358  49.923  1.00  0.00     0.313 HD
HETATM   23  H14 UNL     1      32.478   8.057  50.535  1.00  0.00     0.313 HD
ENDBRANCH  15  21
TORSDOF 4
ENDMDL
MODEL 7
REMARK VINA RESULT:      -6.0      3.545      6.107
REMARK  4 active torsions:
REMARK  status: ('A' for Active; 'I' for Inactive)
REMARK    1  A    between atoms: C2_2  and  C3_3 
REMARK    2  A    between atoms: C3_3  and  C4_5 
REMARK    3  A    between atoms: C4_5  and  C5_6 
REMARK    4  A    between atoms: C15_20  and  N3_21 
ROOT
HETATM    1  C5  UNL     1      23.225   1.042  52.028  1.00  0.00     0.032 C 
HETATM    2  C6  UNL     1      22.325   1.959  51.666  1.00  0.00     0.069 C 
HETATM    3  N1  UNL     1      21.688   1.004  50.892  1.00  0.00    -0.247 NA
HETATM    4  C7  UNL     1      21.517   0.889  49.642  1.00  0.00     0.193 C 
HETATM    5  N2  UNL     1      22.172   2.037  49.227  1.00  0.00    -0.399 NA
HETATM    6  C8  UNL     1      22.352   2.455  48.049  1.00  0.00     0.329 C 
HETATM    7  C9  UNL     1      23.112   3.739  48.135  1.00  0.00     0.040 C 
HETATM    8  C10 UNL     1      23.710   4.752  48.817  1.00  0.00     0.078 C 
HETATM    9  O1  UNL     1      24.367   5.839  48.327  1.00  0.00    -0.343 OA
HETATM   10  C11 UNL     1      25.428   6.046  49.291  1.00  0.00     0.259 C 
HETATM   11  C12 UNL     1      24.492   6.099  50.496  1.00  0.00     0.182 C 
HETATM   12  O2  UNL     1      24.215   6.841  51.495  1.00  0.00    -0.290 OA
HETATM   13  C13 UNL     1      23.732   4.833  50.315  1.00  0.00     0.030 C 
HETATM   14  C14 UNL     1      23.284   4.303  51.490  1.00  0.00     0.075 C 
HETATM   15  C15 UNL     1      22.500   3.339  52.215  1.00  0.00     0.278 C 
ENDROOT
BRANCH   1  16
HETATM   16  C4  UNL     1      24.380   1.046  52.870  1.00  0.00     0.044 C 
BRANCH  16  17
HETATM   17  C3  UNL     1      25.475   0.929  53.589  1.00  0.00     0.115 C 
HETATM   18  F1  UNL     1      25.150   2.235  53.747  1.00  0.00    -0.206 F 
BRANCH  17  19
HETATM   19  C2  UNL     1      26.570   0.184  54.123  1.00  0.00     0.032 C 
HETATM   20  C1  UNL     1      26.969  -0.698  53.235  1.00  0.00     0.014 C 
ENDBRANCH  17  19
ENDBRANCH  16  17
ENDBRANCH   1  16
BRANCH  15  21
HETATM   21  N3  UNL     1      21.120   3.795  52.524  1.00  0.00     0.089 N 
HETATM   22  H13 UNL     1      20.617   4.040  51.640  1.00  0.00     0.313 HD
HETATM   23  H14 UNL     1      21.190   4.652  53.099  1.00  0.00     0.313 HD
ENDBRANCH  15  21
TORSDOF 4
ENDMDL
MODEL 8
REMARK VINA RESULT:      -5.8      9.986     12.085
REMARK  4 active torsions:
REMARK  status: ('A' for Active; 'I' for Inactive)
REMARK    1  A    between atoms: C2_2  and  C3_3 
REMARK    2  A    between atoms: C3_3  and  C4_5 
REMARK    3  A    between atoms: C4_5  and  C5_6 
REMARK    4  A    between atoms: C15_20  and  N3_21 
ROOT
HETATM    1  C5  UNL     1      31.045   7.594  45.573  1.00  0.00     0.032 C 
HETATM    2  C6  UNL     1      32.360   7.772  45.425  1.00  0.00     0.069 C 
HETATM    3  N1  UNL     1      32.180   7.835  44.054  1.00  0.00    -0.247 NA
HETATM    4  C7  UNL     1      32.556   7.084  43.106  1.00  0.00     0.193 C 
HETATM    5  N2  UNL     1      33.235   6.128  43.842  1.00  0.00    -0.399 NA
HETATM    6  C8  UNL     1      33.822   5.089  43.427  1.00  0.00     0.329 C 
HETATM    7  C9  UNL     1      34.402   4.391  44.616  1.00  0.00     0.040 C 
HETATM    8  C10 UNL     1      34.676   4.279  45.942  1.00  0.00     0.078 C 
HETATM    9  O1  UNL     1      35.328   3.280  46.597  1.00  0.00    -0.343 OA
HETATM   10  C11 UNL     1      34.634   3.207  47.866  1.00  0.00     0.259 C 
HETATM   11  C12 UNL     1      34.815   4.687  48.192  1.00  0.00     0.182 C 
HETATM   12  O2  UNL     1      35.249   5.445  49.121  1.00  0.00    -0.290 OA
HETATM   13  C13 UNL     1      34.278   5.314  46.954  1.00  0.00     0.030 C 
HETATM   14  C14 UNL     1      33.748   6.553  47.166  1.00  0.00     0.075 C 
HETATM   15  C15 UNL     1      33.190   7.782  46.669  1.00  0.00     0.278 C 
ENDROOT
BRANCH   1  16
HETATM   16  C4  UNL     1      30.176   7.409  46.693  1.00  0.00     0.044 C 
BRANCH  16  17
HETATM   17  C3  UNL     1      29.286   7.316  47.656  1.00  0.00     0.115 C 
HETATM   18  F1  UNL     1      29.907   8.489  47.934  1.00  0.00    -0.206 F 
BRANCH  17  19
HETATM   19  C2  UNL     1      28.221   6.656  48.342  1.00  0.00     0.032 C 
HETATM   20  C1  UNL     1      28.443   5.361  48.346  1.00  0.00     0.014 C 
ENDBRANCH  17  19
ENDBRANCH  16  17
ENDBRANCH   1  16
BRANCH  15  21
HETATM   21  N3  UNL     1      34.196   8.850  46.437  1.00  0.00     0.089 N 
HETATM   22  H13 UNL     1      33.889   9.467  45.650  1.00  0.00     0.313 HD
HETATM   23  H14 UNL     1      35.083   8.396  46.158  1.00  0.00     0.313 HD
ENDBRANCH  15  21
TORSDOF 4
ENDMDL
MODEL 9
REMARK VINA RESULT:      -5.6      8.766     11.102
REMARK  4 active torsions:
REMARK  status: ('A' for Active; 'I' for Inactive)
REMARK    1  A    between atoms: C2_2  and  C3_3 
REMARK    2  A    between atoms: C3_3  and  C4_5 
REMARK    3  A    between atoms: C4_5  and  C5_6 
REMARK    4  A    between atoms: C15_20  and  N3_21 
ROOT
HETATM    1  C5  UNL     1      27.305   7.074  48.331  1.00  0.00     0.032 C 
HETATM    2  C6  UNL     1      27.013   8.196  48.991  1.00  0.00     0.069 C 
HETATM    3  N1  UNL     1      25.686   8.045  48.628  1.00  0.00    -0.247 NA
HETATM    4  C7  UNL     1      24.918   8.727  47.887  1.00  0.00     0.193 C 
HETATM    5  N2  UNL     1      25.805   9.724  47.513  1.00  0.00    -0.399 NA
HETATM    6  C8  UNL     1      25.605  10.703  46.741  1.00  0.00     0.329 C 
HETATM    7  C9  UNL     1      26.875  11.488  46.667  1.00  0.00     0.040 C 
HETATM    8  C10 UNL     1      28.164  11.747  47.015  1.00  0.00     0.078 C 
HETATM    9  O1  UNL     1      28.984  12.739  46.573  1.00  0.00    -0.343 OA
HETATM   10  C11 UNL     1      30.285  12.104  46.541  1.00  0.00     0.259 C 
HETATM   11  C12 UNL     1      30.231  11.640  47.995  1.00  0.00     0.182 C 
HETATM   12  O2  UNL     1      30.914  11.691  49.070  1.00  0.00    -0.290 OA
HETATM   13  C13 UNL     1      28.926  10.925  48.012  1.00  0.00     0.030 C 
HETATM   14  C14 UNL     1      28.878   9.918  48.932  1.00  0.00     0.075 C 
HETATM   15  C15 UNL     1      28.147   8.911  49.654  1.00  0.00     0.278 C 
ENDROOT
BRANCH   1  16
HETATM   16  C4  UNL     1      28.503   6.331  48.092  1.00  0.00     0.044 C 
BRANCH  16  17
HETATM   17  C3  UNL     1      29.672   5.750  47.933  1.00  0.00     0.115 C 
HETATM   18  F1  UNL     1      28.829   4.697  48.065  1.00  0.00    -0.206 F 
BRANCH  17  19
HETATM   19  C2  UNL     1      31.086   5.774  47.734  1.00  0.00     0.032 C 
HETATM   20  C1  UNL     1      31.514   4.552  47.508  1.00  0.00     0.014 C 
ENDBRANCH  17  19
ENDBRANCH  16  17
ENDBRANCH   1  16
BRANCH  15  21
HETATM   21  N3  UNL     1      27.587   9.384  50.945  1.00  0.00     0.089 N 
HETATM   22  H13 UNL     1      26.693   8.880  51.154  1.00  0.00     0.313 HD
HETATM   23  H14 UNL     1      27.370  10.391  50.849  1.00  0.00     0.313 HD
ENDBRANCH  15  21
TORSDOF 4
ENDMDL
