MODEL 1
REMARK VINA RESULT:      -8.9      0.000      0.000
REMARK  1 active torsions:
REMARK  status: ('A' for Active; 'I' for Inactive)
REMARK    1  A    between atoms: O1_1  and  C1_2 
ROOT
HETATM    1  C1  UNL     1      24.060   2.188  51.119  1.00  0.00     0.126 C 
HETATM    2  C2  UNL     1      25.204   2.817  51.294  1.00  0.00     0.262 C 
HETATM    3  N1  UNL     1      26.444   2.595  51.925  1.00  0.00    -0.410 N 
HETATM    4  C3  UNL     1      27.283   2.132  53.044  1.00  0.00     0.121 C 
HETATM    5  C4  UNL     1      27.240   0.650  53.205  1.00  0.00     0.086 C 
HETATM    6  C5  UNL     1      25.860   0.210  53.482  1.00  0.00     0.092 A 
HETATM    7  F1  UNL     1      24.568  -0.088  53.517  1.00  0.00    -0.338 F 
HETATM    8  C6  UNL     1      25.667  -0.429  54.659  1.00  0.00     0.336 A 
HETATM    9  O2  UNL     1      25.178  -1.113  55.800  1.00  0.00    -0.306 OA
HETATM   10  C7  UNL     1      23.856  -1.588  55.717  1.00  0.00     0.256 C 
HETATM   11  N2  UNL     1      22.590  -1.834  55.538  1.00  0.00    -0.230 NA
HETATM   12  C8  UNL     1      21.783  -0.864  54.884  1.00  0.00     0.235 C 
HETATM   13  N3  UNL     1      21.109   0.202  54.524  1.00  0.00    -0.242 NA
HETATM   14  C9  UNL     1      20.368   0.245  53.309  1.00  0.00     0.066 A 
HETATM   15  C10 UNL     1      19.178  -0.441  53.203  1.00  0.00     0.032 A 
HETATM   16  C11 UNL     1      18.385  -0.460  52.057  1.00  0.00     0.002 A 
HETATM   17  C12 UNL     1      18.852   0.265  50.978  1.00  0.00     0.001 A 
HETATM   18  C13 UNL     1      20.040   0.958  51.066  1.00  0.00     0.011 A 
HETATM   19  C14 UNL     1      20.797   0.956  52.210  1.00  0.00    -0.012 A 
HETATM   20  C15 UNL     1      22.053   1.747  52.164  1.00  0.00     0.157 C 
HETATM   21  N4  UNL     1      22.885   1.344  51.036  1.00  0.00    -0.391 N 
HETATM   22  H3  UNL     1      26.966   3.015  51.085  1.00  0.00     0.153 HD
HETATM   23  H17 UNL     1      22.962   0.705  50.220  1.00  0.00     0.156 HD
ENDROOT
BRANCH   1  24
HETATM   24  O1  UNL     1      23.624   3.311  50.385  1.00  0.00    -0.374 OA
HETATM   25  H1  UNL     1      23.837   3.350  49.397  1.00  0.00     0.212 HD
ENDBRANCH   1  24
TORSDOF 1
ENDMDL
MODEL 2
REMARK VINA RESULT:      -8.6      1.691      5.680
REMARK  1 active torsions:
REMARK  status: ('A' for Active; 'I' for Inactive)
REMARK    1  A    between atoms: O1_1  and  C1_2 
ROOT
HETATM    1  C1  UNL     1      23.662   2.331  51.154  1.00  0.00     0.126 C 
HETATM    2  C2  UNL     1      22.553   2.137  50.470  1.00  0.00     0.262 C 
HETATM    3  N1  UNL     1      21.249   1.652  50.690  1.00  0.00    -0.410 N 
HETATM    4  C3  UNL     1      20.282   0.700  51.264  1.00  0.00     0.121 C 
HETATM    5  C4  UNL     1      20.207   0.799  52.749  1.00  0.00     0.086 C 
HETATM    6  C5  UNL     1      21.522   0.498  53.345  1.00  0.00     0.092 A 
HETATM    7  F1  UNL     1      22.782   0.416  53.752  1.00  0.00    -0.338 F 
HETATM    8  C6  UNL     1      21.562  -0.560  54.187  1.00  0.00     0.336 A 
HETATM    9  O2  UNL     1      21.897  -1.597  55.094  1.00  0.00    -0.306 OA
HETATM   10  C7  UNL     1      23.185  -1.534  55.658  1.00  0.00     0.256 C 
HETATM   11  N2  UNL     1      24.442  -1.413  55.976  1.00  0.00    -0.230 NA
HETATM   12  C8  UNL     1      25.370  -1.004  54.981  1.00  0.00     0.235 C 
HETATM   13  N3  UNL     1      26.147  -0.890  53.930  1.00  0.00    -0.242 NA
HETATM   14  C9  UNL     1      26.997   0.237  53.744  1.00  0.00     0.066 A 
HETATM   15  C10 UNL     1      28.140   0.370  54.500  1.00  0.00     0.032 A 
HETATM   16  C11 UNL     1      29.030   1.437  54.392  1.00  0.00     0.002 A 
HETATM   17  C12 UNL     1      28.715   2.405  53.458  1.00  0.00     0.001 A 
HETATM   18  C13 UNL     1      27.576   2.288  52.693  1.00  0.00     0.011 A 
HETATM   19  C14 UNL     1      26.720   1.225  52.824  1.00  0.00    -0.012 A 
HETATM   20  C15 UNL     1      25.531   1.228  51.934  1.00  0.00     0.157 C 
HETATM   21  N4  UNL     1      24.778   2.470  52.068  1.00  0.00    -0.391 N 
HETATM   22  H3  UNL     1      20.836   2.443  50.091  1.00  0.00     0.153 HD
HETATM   23  H17 UNL     1      24.732   3.389  52.552  1.00  0.00     0.156 HD
ENDROOT
BRANCH   1  24
HETATM   24  O1  UNL     1      24.240   2.820  49.965  1.00  0.00    -0.374 OA
HETATM   25  H1  UNL     1      25.110   2.410  49.651  1.00  0.00     0.212 HD
ENDBRANCH   1  24
TORSDOF 1
ENDMDL
MODEL 3
REMARK VINA RESULT:      -8.3      2.593      4.981
REMARK  1 active torsions:
REMARK  status: ('A' for Active; 'I' for Inactive)
REMARK    1  A    between atoms: O1_1  and  C1_2 
ROOT
HETATM    1  C1  UNL     1      26.117   2.480  51.808  1.00  0.00     0.126 C 
HETATM    2  C2  UNL     1      26.603   3.216  50.829  1.00  0.00     0.262 C 
HETATM    3  N1  UNL     1      26.295   4.417  50.159  1.00  0.00    -0.410 N 
HETATM    4  C3  UNL     1      25.361   5.363  49.524  1.00  0.00     0.121 C 
HETATM    5  C4  UNL     1      24.438   5.991  50.512  1.00  0.00     0.086 C 
HETATM    6  C5  UNL     1      23.625   4.956  51.176  1.00  0.00     0.092 A 
HETATM    7  F1  UNL     1      23.106   3.936  51.848  1.00  0.00    -0.338 F 
HETATM    8  C6  UNL     1      22.286   5.060  51.015  1.00  0.00     0.336 A 
HETATM    9  O2  UNL     1      20.875   4.922  51.017  1.00  0.00    -0.306 OA
HETATM   10  C7  UNL     1      20.350   3.957  51.897  1.00  0.00     0.256 C 
HETATM   11  N2  UNL     1      20.038   2.939  52.647  1.00  0.00    -0.230 NA
HETATM   12  C8  UNL     1      20.871   1.788  52.632  1.00  0.00     0.235 C 
HETATM   13  N3  UNL     1      21.551   0.709  52.326  1.00  0.00    -0.242 NA
HETATM   14  C9  UNL     1      22.366   0.039  53.283  1.00  0.00     0.066 A 
HETATM   15  C10 UNL     1      21.782  -0.712  54.279  1.00  0.00     0.032 A 
HETATM   16  C11 UNL     1      22.494  -1.400  55.260  1.00  0.00     0.002 A 
HETATM   17  C12 UNL     1      23.871  -1.300  55.200  1.00  0.00     0.001 A 
HETATM   18  C13 UNL     1      24.472  -0.553  54.211  1.00  0.00     0.011 A 
HETATM   19  C14 UNL     1      23.741   0.112  53.260  1.00  0.00    -0.012 A 
HETATM   20  C15 UNL     1      24.520   0.877  52.253  1.00  0.00     0.157 C 
HETATM   21  N4  UNL     1      25.435   1.812  52.898  1.00  0.00    -0.391 N 
HETATM   22  H3  UNL     1      27.331   4.701  50.158  1.00  0.00     0.153 HD
HETATM   23  H17 UNL     1      25.777   2.177  53.809  1.00  0.00     0.156 HD
ENDROOT
BRANCH   1  24
HETATM   24  O1  UNL     1      27.191   1.591  51.593  1.00  0.00    -0.374 OA
HETATM   25  H1  UNL     1      27.733   1.293  52.393  1.00  0.00     0.212 HD
ENDBRANCH   1  24
TORSDOF 1
ENDMDL
MODEL 4
REMARK VINA RESULT:      -8.2      2.509      6.388
REMARK  1 active torsions:
REMARK  status: ('A' for Active; 'I' for Inactive)
REMARK    1  A    between atoms: O1_1  and  C1_2 
ROOT
HETATM    1  C1  UNL     1      24.819   0.300  52.830  1.00  0.00     0.126 C 
HETATM    2  C2  UNL     1      24.396  -0.426  53.845  1.00  0.00     0.262 C 
HETATM    3  N1  UNL     1      23.174  -0.848  54.402  1.00  0.00    -0.410 N 
HETATM    4  C3  UNL     1      21.782  -0.628  54.832  1.00  0.00     0.121 C 
HETATM    5  C4  UNL     1      20.866  -0.394  53.678  1.00  0.00     0.086 C 
HETATM    6  C5  UNL     1      21.288   0.806  52.932  1.00  0.00     0.092 A 
HETATM    7  F1  UNL     1      21.873   1.764  52.226  1.00  0.00    -0.338 F 
HETATM    8  C6  UNL     1      20.382   1.808  52.862  1.00  0.00     0.336 A 
HETATM    9  O2  UNL     1      19.648   2.998  52.629  1.00  0.00    -0.306 OA
HETATM   10  C7  UNL     1      20.215   3.906  51.715  1.00  0.00     0.256 C 
HETATM   11  N2  UNL     1      20.933   4.693  50.967  1.00  0.00    -0.230 NA
HETATM   12  C8  UNL     1      22.339   4.746  51.169  1.00  0.00     0.235 C 
HETATM   13  N3  UNL     1      23.557   4.906  51.630  1.00  0.00    -0.242 NA
HETATM   14  C9  UNL     1      24.702   4.575  50.851  1.00  0.00     0.066 A 
HETATM   15  C10 UNL     1      25.081   5.386  49.804  1.00  0.00     0.032 A 
HETATM   16  C11 UNL     1      26.183   5.144  48.986  1.00  0.00     0.002 A 
HETATM   17  C12 UNL     1      26.920   4.010  49.271  1.00  0.00     0.001 A 
HETATM   18  C13 UNL     1      26.556   3.188  50.315  1.00  0.00     0.011 A 
HETATM   19  C14 UNL     1      25.465   3.455  51.102  1.00  0.00    -0.012 A 
HETATM   20  C15 UNL     1      25.190   2.484  52.191  1.00  0.00     0.157 C 
HETATM   21  N4  UNL     1      25.086   1.126  51.670  1.00  0.00    -0.391 N 
HETATM   22  H3  UNL     1      23.569  -1.834  54.565  1.00  0.00     0.153 HD
HETATM   23  H17 UNL     1      25.126   0.538  50.814  1.00  0.00     0.156 HD
ENDROOT
BRANCH   1  24
HETATM   24  O1  UNL     1      26.135   0.025  53.259  1.00  0.00    -0.374 OA
HETATM   25  H1  UNL     1      26.260  -0.505  54.112  1.00  0.00     0.212 HD
ENDBRANCH   1  24
TORSDOF 1
ENDMDL
MODEL 5
REMARK VINA RESULT:      -8.0      2.196      6.901
REMARK  1 active torsions:
REMARK  status: ('A' for Active; 'I' for Inactive)
REMARK    1  A    between atoms: O1_1  and  C1_2 
ROOT
HETATM    1  C1  UNL     1      21.488  -1.478  53.776  1.00  0.00     0.126 C 
HETATM    2  C2  UNL     1      20.252  -1.627  54.208  1.00  0.00     0.262 C 
HETATM    3  N1  UNL     1      18.940  -1.394  53.751  1.00  0.00    -0.410 N 
HETATM    4  C3  UNL     1      17.908  -0.584  53.080  1.00  0.00     0.121 C 
HETATM    5  C4  UNL     1      18.152  -0.462  51.614  1.00  0.00     0.086 C 
HETATM    6  C5  UNL     1      19.450   0.194  51.369  1.00  0.00     0.092 A 
HETATM    7  F1  UNL     1      20.710   0.597  51.270  1.00  0.00    -0.338 F 
HETATM    8  C6  UNL     1      19.405   1.355  50.678  1.00  0.00     0.336 A 
HETATM    9  O2  UNL     1      19.657   2.569  49.989  1.00  0.00    -0.306 OA
HETATM   10  C7  UNL     1      21.008   2.863  49.729  1.00  0.00     0.256 C 
HETATM   11  N2  UNL     1      22.295   3.056  49.693  1.00  0.00    -0.230 NA
HETATM   12  C8  UNL     1      23.080   2.696  50.823  1.00  0.00     0.235 C 
HETATM   13  N3  UNL     1      23.639   2.582  52.004  1.00  0.00    -0.242 NA
HETATM   14  C9  UNL     1      24.677   1.640  52.254  1.00  0.00     0.066 A 
HETATM   15  C10 UNL     1      25.945   1.867  51.767  1.00  0.00     0.032 A 
HETATM   16  C11 UNL     1      27.023   1.004  51.957  1.00  0.00     0.002 A 
HETATM   17  C12 UNL     1      26.767  -0.143  52.685  1.00  0.00     0.001 A 
HETATM   18  C13 UNL     1      25.505  -0.386  53.180  1.00  0.00     0.011 A 
HETATM   19  C14 UNL     1      24.465   0.485  52.974  1.00  0.00    -0.012 A 
HETATM   20  C15 UNL     1      23.160   0.096  53.566  1.00  0.00     0.157 C 
HETATM   21  N4  UNL     1      22.763  -1.238  53.130  1.00  0.00    -0.391 N 
HETATM   22  H3  UNL     1      18.616  -2.337  54.151  1.00  0.00     0.153 HD
HETATM   23  H17 UNL     1      23.030  -2.059  52.551  1.00  0.00     0.156 HD
ENDROOT
BRANCH   1  24
HETATM   24  O1  UNL     1      21.919  -2.017  55.005  1.00  0.00    -0.374 OA
HETATM   25  H1  UNL     1      22.913  -2.129  55.157  1.00  0.00     0.212 HD
ENDBRANCH   1  24
TORSDOF 1
ENDMDL
MODEL 6
REMARK VINA RESULT:      -7.9      1.631      4.228
REMARK  1 active torsions:
REMARK  status: ('A' for Active; 'I' for Inactive)
REMARK    1  A    between atoms: O1_1  and  C1_2 
ROOT
HETATM    1  C1  UNL     1      23.306  -0.882  55.045  1.00  0.00     0.126 C 
HETATM    2  C2  UNL     1      24.541  -1.184  55.391  1.00  0.00     0.262 C 
HETATM    3  N1  UNL     1      25.831  -0.627  55.291  1.00  0.00    -0.410 N 
HETATM    4  C3  UNL     1      26.906   0.071  54.565  1.00  0.00     0.121 C 
HETATM    5  C4  UNL     1      26.562   1.494  54.281  1.00  0.00     0.086 C 
HETATM    6  C5  UNL     1      25.351   1.566  53.442  1.00  0.00     0.092 A 
HETATM    7  F1  UNL     1      24.155   1.516  52.872  1.00  0.00    -0.338 F 
HETATM    8  C6  UNL     1      25.499   2.165  52.239  1.00  0.00     0.336 A 
HETATM    9  O2  UNL     1      25.361   2.730  50.946  1.00  0.00    -0.306 OA
HETATM   10  C7  UNL     1      24.046   2.840  50.457  1.00  0.00     0.256 C 
HETATM   11  N2  UNL     1      22.799   2.740  50.096  1.00  0.00    -0.230 NA
HETATM   12  C8  UNL     1      22.067   1.574  50.450  1.00  0.00     0.235 C 
HETATM   13  N3  UNL     1      21.596   0.359  50.596  1.00  0.00    -0.242 NA
HETATM   14  C9  UNL     1      20.462   0.088  51.414  1.00  0.00     0.066 A 
HETATM   15  C10 UNL     1      19.202   0.436  50.982  1.00  0.00     0.032 A 
HETATM   16  C11 UNL     1      18.035   0.214  51.711  1.00  0.00     0.002 A 
HETATM   17  C12 UNL     1      18.189  -0.394  52.942  1.00  0.00     0.001 A 
HETATM   18  C13 UNL     1      19.442  -0.749  53.391  1.00  0.00     0.011 A 
HETATM   19  C14 UNL     1      20.571  -0.517  52.648  1.00  0.00    -0.012 A 
HETATM   20  C15 UNL     1      21.855  -0.952  53.254  1.00  0.00     0.157 C 
HETATM   21  N4  UNL     1      22.028  -0.378  54.584  1.00  0.00    -0.391 N 
HETATM   22  H3  UNL     1      26.054  -0.920  56.301  1.00  0.00     0.153 HD
HETATM   23  H17 UNL     1      21.604   0.236  55.308  1.00  0.00     0.156 HD
ENDROOT
BRANCH   1  24
HETATM   24  O1  UNL     1      22.906  -2.100  55.632  1.00  0.00    -0.374 OA
HETATM   25  H1  UNL     1      22.795  -2.907  55.033  1.00  0.00     0.212 HD
ENDBRANCH   1  24
TORSDOF 1
ENDMDL
MODEL 7
REMARK VINA RESULT:      -7.7      2.947      6.100
REMARK  1 active torsions:
REMARK  status: ('A' for Active; 'I' for Inactive)
REMARK    1  A    between atoms: O1_1  and  C1_2 
ROOT
HETATM    1  C1  UNL     1      20.987   3.289  52.423  1.00  0.00     0.126 C 
HETATM    2  C2  UNL     1      20.298   2.179  52.587  1.00  0.00     0.262 C 
HETATM    3  N1  UNL     1      20.513   0.860  53.032  1.00  0.00    -0.410 N 
HETATM    4  C3  UNL     1      21.289  -0.390  53.104  1.00  0.00     0.121 C 
HETATM    5  C4  UNL     1      22.569  -0.216  53.851  1.00  0.00     0.086 C 
HETATM    6  C5  UNL     1      23.416   0.785  53.177  1.00  0.00     0.092 A 
HETATM    7  F1  UNL     1      23.995   1.837  52.613  1.00  0.00    -0.338 F 
HETATM    8  C6  UNL     1      24.621   0.348  52.746  1.00  0.00     0.336 A 
HETATM    9  O2  UNL     1      25.917   0.173  52.198  1.00  0.00    -0.306 OA
HETATM   10  C7  UNL     1      26.579   1.346  51.791  1.00  0.00     0.256 C 
HETATM   11  N2  UNL     1      26.992   2.495  51.337  1.00  0.00    -0.230 NA
HETATM   12  C8  UNL     1      26.060   3.366  50.710  1.00  0.00     0.235 C 
HETATM   13  N3  UNL     1      25.182   3.943  49.926  1.00  0.00    -0.242 NA
HETATM   14  C9  UNL     1      24.662   5.239  50.209  1.00  0.00     0.066 A 
HETATM   15  C10 UNL     1      25.447   6.353  50.011  1.00  0.00     0.032 A 
HETATM   16  C11 UNL     1      25.029   7.659  50.261  1.00  0.00     0.002 A 
HETATM   17  C12 UNL     1      23.740   7.809  50.736  1.00  0.00     0.001 A 
HETATM   18  C13 UNL     1      22.940   6.705  50.939  1.00  0.00     0.011 A 
HETATM   19  C14 UNL     1      23.383   5.432  50.683  1.00  0.00    -0.012 A 
HETATM   20  C15 UNL     1      22.415   4.337  50.946  1.00  0.00     0.157 C 
HETATM   21  N4  UNL     1      21.906   4.404  52.312  1.00  0.00    -0.391 N 
HETATM   22  H3  UNL     1      19.585   0.873  53.573  1.00  0.00     0.153 HD
HETATM   23  H17 UNL     1      21.947   4.924  53.211  1.00  0.00     0.156 HD
ENDROOT
BRANCH   1  24
HETATM   24  O1  UNL     1      19.797   3.889  51.959  1.00  0.00    -0.374 OA
HETATM   25  H1  UNL     1      19.031   3.287  51.689  1.00  0.00     0.212 HD
ENDBRANCH   1  24
TORSDOF 1
ENDMDL
MODEL 8
REMARK VINA RESULT:      -7.6      2.829      5.457
REMARK  1 active torsions:
REMARK  status: ('A' for Active; 'I' for Inactive)
REMARK    1  A    between atoms: O1_1  and  C1_2 
ROOT
HETATM    1  C1  UNL     1      25.819   3.608  50.832  1.00  0.00     0.126 C 
HETATM    2  C2  UNL     1      25.932   4.414  49.797  1.00  0.00     0.262 C 
HETATM    3  N1  UNL     1      25.226   5.481  49.209  1.00  0.00    -0.410 N 
HETATM    4  C3  UNL     1      23.992   6.148  48.758  1.00  0.00     0.121 C 
HETATM    5  C4  UNL     1      23.122   6.554  49.899  1.00  0.00     0.086 C 
HETATM    6  C5  UNL     1      22.718   5.368  50.676  1.00  0.00     0.092 A 
HETATM    7  F1  UNL     1      22.591   4.271  51.411  1.00  0.00    -0.338 F 
HETATM    8  C6  UNL     1      21.388   5.133  50.748  1.00  0.00     0.336 A 
HETATM    9  O2  UNL     1      20.078   4.648  50.990  1.00  0.00    -0.306 OA
HETATM   10  C7  UNL     1      19.967   3.608  51.931  1.00  0.00     0.256 C 
HETATM   11  N2  UNL     1      20.051   2.565  52.708  1.00  0.00    -0.230 NA
HETATM   12  C8  UNL     1      21.130   1.657  52.532  1.00  0.00     0.235 C 
HETATM   13  N3  UNL     1      21.995   0.773  52.097  1.00  0.00    -0.242 NA
HETATM   14  C9  UNL     1      23.101   0.353  52.889  1.00  0.00     0.066 A 
HETATM   15  C10 UNL     1      22.901  -0.492  53.958  1.00  0.00     0.032 A 
HETATM   16  C11 UNL     1      23.918  -0.954  54.792  1.00  0.00     0.002 A 
HETATM   17  C12 UNL     1      25.195  -0.517  54.499  1.00  0.00     0.001 A 
HETATM   18  C13 UNL     1      25.414   0.328  53.433  1.00  0.00     0.011 A 
HETATM   19  C14 UNL     1      24.391   0.765  52.632  1.00  0.00    -0.012 A 
HETATM   20  C15 UNL     1      24.772   1.671  51.519  1.00  0.00     0.157 C 
HETATM   21  N4  UNL     1      25.520   2.822  52.013  1.00  0.00    -0.391 N 
HETATM   22  H3  UNL     1      26.143   6.014  49.035  1.00  0.00     0.153 HD
HETATM   23  H17 UNL     1      25.910   3.285  52.858  1.00  0.00     0.156 HD
ENDROOT
BRANCH   1  24
HETATM   24  O1  UNL     1      27.028   3.008  50.423  1.00  0.00    -0.374 OA
HETATM   25  H1  UNL     1      27.888   3.325  50.849  1.00  0.00     0.212 HD
ENDBRANCH   1  24
TORSDOF 1
ENDMDL
MODEL 9
REMARK VINA RESULT:      -7.4      2.433      3.801
REMARK  1 active torsions:
REMARK  status: ('A' for Active; 'I' for Inactive)
REMARK    1  A    between atoms: O1_1  and  C1_2 
ROOT
HETATM    1  C1  UNL     1      21.719   3.894  50.880  1.00  0.00     0.126 C 
HETATM    2  C2  UNL     1      22.202   5.066  50.524  1.00  0.00     0.262 C 
HETATM    3  N1  UNL     1      23.386   5.597  49.977  1.00  0.00    -0.410 N 
HETATM    4  C3  UNL     1      24.852   5.699  49.871  1.00  0.00     0.121 C 
HETATM    5  C4  UNL     1      25.463   4.462  49.303  1.00  0.00     0.086 C 
HETATM    6  C5  UNL     1      25.167   3.307  50.170  1.00  0.00     0.092 A 
HETATM    7  F1  UNL     1      24.670   2.318  50.902  1.00  0.00    -0.338 F 
HETATM    8  C6  UNL     1      26.239   2.670  50.694  1.00  0.00     0.336 A 
HETATM    9  O2  UNL     1      27.154   1.825  51.371  1.00  0.00    -0.306 OA
HETATM   10  C7  UNL     1      26.608   0.676  51.971  1.00  0.00     0.256 C 
HETATM   11  N2  UNL     1      25.933  -0.254  52.584  1.00  0.00    -0.230 NA
HETATM   12  C8  UNL     1      24.686   0.075  53.181  1.00  0.00     0.235 C 
HETATM   13  N3  UNL     1      23.709   0.559  53.910  1.00  0.00    -0.242 NA
HETATM   14  C9  UNL     1      22.355   0.171  53.700  1.00  0.00     0.066 A 
HETATM   15  C10 UNL     1      21.926  -1.074  54.100  1.00  0.00     0.032 A 
HETATM   16  C11 UNL     1      20.623  -1.544  53.936  1.00  0.00     0.002 A 
HETATM   17  C12 UNL     1      19.733  -0.678  53.330  1.00  0.00     0.001 A 
HETATM   18  C13 UNL     1      20.145   0.572  52.923  1.00  0.00     0.011 A 
HETATM   19  C14 UNL     1      21.435   1.003  53.099  1.00  0.00    -0.012 A 
HETATM   20  C15 UNL     1      21.739   2.373  52.614  1.00  0.00     0.157 C 
HETATM   21  N4  UNL     1      21.368   2.527  51.212  1.00  0.00    -0.391 N 
HETATM   22  H3  UNL     1      22.819   6.244  49.334  1.00  0.00     0.153 HD
HETATM   23  H17 UNL     1      20.964   2.051  50.381  1.00  0.00     0.156 HD
ENDROOT
BRANCH   1  24
HETATM   24  O1  UNL     1      20.535   4.562  51.258  1.00  0.00    -0.374 OA
HETATM   25  H1  UNL     1      20.348   5.470  50.854  1.00  0.00     0.212 HD
ENDBRANCH   1  24
TORSDOF 1
ENDMDL
