MODEL 1
REMARK VINA RESULT:      -6.5      0.000      0.000
REMARK  8 active torsions:
REMARK  status: ('A' for Active; 'I' for Inactive)
REMARK    1  A    between atoms: O1_2  and  C2_3 
REMARK    2  A    between atoms: C8_12  and  O2_13 
REMARK    3  A    between atoms: O2_13  and  C9_14 
REMARK    4  A    between atoms: C9_14  and  C10_15 
REMARK    5  A    between atoms: C10_15  and  C11_16 
REMARK    6  A    between atoms: C11_16  and  N3_17 
REMARK    7  A    between atoms: N3_17  and  C12_18 
REMARK    8  A    between atoms: C12_18  and  C13_19 
ROOT
HETATM    1  C2  UNL     1      24.304   1.581  53.173  1.00  0.00     0.103 A 
HETATM    2  C3  UNL     1      25.493   2.230  53.371  1.00  0.00     0.073 A 
HETATM    3  C4  UNL     1      26.660   1.529  53.699  1.00  0.00     0.088 A 
HETATM    4  N1  UNL     1      27.740   2.318  53.858  1.00  0.00    -0.247 NA
HETATM    5  P1  UNL     1      29.164   1.443  54.260  1.00  0.00     0.107 P 
HETATM    6  C5  UNL     1      28.872  -0.264  54.366  1.00  0.00     0.153 A 
HETATM    7  N2  UNL     1      27.625  -0.649  54.129  1.00  0.00    -0.256 NA
HETATM    8  C6  UNL     1      26.592   0.151  53.822  1.00  0.00     0.088 A 
HETATM    9  C7  UNL     1      25.362  -0.477  53.613  1.00  0.00     0.073 A 
HETATM   10  C8  UNL     1      24.218   0.211  53.291  1.00  0.00     0.104 A 
ENDROOT
BRANCH  10  11
HETATM   11  O2  UNL     1      22.991  -0.449  53.087  1.00  0.00    -0.348 OA
BRANCH  11  12
HETATM   12  C9  UNL     1      22.418  -1.043  54.237  1.00  0.00     0.177 C 
BRANCH  12  13
HETATM   13  C10 UNL     1      21.207  -0.268  54.719  1.00  0.00     0.046 C 
BRANCH  13  14
HETATM   14  C11 UNL     1      20.269  -0.027  53.556  1.00  0.00     0.116 C 
BRANCH  14  15
HETATM   15  N3  UNL     1      20.469   1.185  52.866  1.00  0.00    -0.419 N 
HETATM   16  H13 UNL     1      21.403   1.597  52.899  1.00  0.00     0.153 HD
BRANCH  15  17
HETATM   17  C12 UNL     1      19.638   1.509  51.773  1.00  0.00     0.149 C 
BRANCH  17  18
HETATM   18  C13 UNL     1      20.067   1.015  50.431  1.00  0.00     0.241 C 
HETATM   19  C14 UNL     1      21.556   0.892  50.203  1.00  0.00     0.067 C 
HETATM   20  C15 UNL     1      21.165   1.314  48.780  1.00  0.00     0.274 C 
HETATM   21  N4  UNL     1      20.064   2.034  49.398  1.00  0.00     0.090 N 
HETATM   22  C16 UNL     1      20.477   3.351  49.772  1.00  0.00     0.310 C 
ENDBRANCH  17  18
ENDBRANCH  15  17
ENDBRANCH  14  15
ENDBRANCH  13  14
ENDBRANCH  12  13
ENDBRANCH  11  12
ENDBRANCH  10  11
BRANCH   1  23
HETATM   23  O1  UNL     1      23.158   2.299  52.848  1.00  0.00    -0.353 OA
HETATM   24  C1  UNL     1      23.233   3.643  52.413  1.00  0.00     0.210 C 
ENDBRANCH   1  23
TORSDOF 8
ENDMDL
MODEL 2
REMARK VINA RESULT:      -6.2      0.937      1.430
REMARK  8 active torsions:
REMARK  status: ('A' for Active; 'I' for Inactive)
REMARK    1  A    between atoms: O1_2  and  C2_3 
REMARK    2  A    between atoms: C8_12  and  O2_13 
REMARK    3  A    between atoms: O2_13  and  C9_14 
REMARK    4  A    between atoms: C9_14  and  C10_15 
REMARK    5  A    between atoms: C10_15  and  C11_16 
REMARK    6  A    between atoms: C11_16  and  N3_17 
REMARK    7  A    between atoms: N3_17  and  C12_18 
REMARK    8  A    between atoms: C12_18  and  C13_19 
ROOT
HETATM    1  C2  UNL     1      24.238   1.308  53.201  1.00  0.00     0.103 A 
HETATM    2  C3  UNL     1      25.380   2.051  53.335  1.00  0.00     0.073 A 
HETATM    3  C4  UNL     1      26.588   1.464  53.730  1.00  0.00     0.088 A 
HETATM    4  N1  UNL     1      27.613   2.335  53.812  1.00  0.00    -0.247 NA
HETATM    5  P1  UNL     1      29.088   1.600  54.299  1.00  0.00     0.107 P 
HETATM    6  C5  UNL     1      28.909  -0.104  54.572  1.00  0.00     0.153 A 
HETATM    7  N2  UNL     1      27.691  -0.592  54.373  1.00  0.00    -0.256 NA
HETATM    8  C6  UNL     1      26.610   0.103  53.988  1.00  0.00     0.088 A 
HETATM    9  C7  UNL     1      25.426  -0.622  53.841  1.00  0.00     0.073 A 
HETATM   10  C8  UNL     1      24.241  -0.046  53.452  1.00  0.00     0.104 A 
ENDROOT
BRANCH  10  11
HETATM   11  O2  UNL     1      23.063  -0.804  53.313  1.00  0.00    -0.348 OA
BRANCH  11  12
HETATM   12  C9  UNL     1      22.410  -1.147  54.521  1.00  0.00     0.177 C 
BRANCH  12  13
HETATM   13  C10 UNL     1      21.186  -0.284  54.758  1.00  0.00     0.046 C 
BRANCH  13  14
HETATM   14  C11 UNL     1      20.213  -0.466  53.612  1.00  0.00     0.116 C 
BRANCH  14  15
HETATM   15  N3  UNL     1      20.535   0.238  52.436  1.00  0.00    -0.419 N 
HETATM   16  H13 UNL     1      21.395  -0.021  51.951  1.00  0.00     0.153 HD
BRANCH  15  17
HETATM   17  C12 UNL     1      19.506   0.843  51.684  1.00  0.00     0.149 C 
BRANCH  17  18
HETATM   18  C13 UNL     1      19.407   2.331  51.752  1.00  0.00     0.241 C 
HETATM   19  C14 UNL     1      18.031   2.925  51.553  1.00  0.00     0.067 C 
HETATM   20  C15 UNL     1      18.835   4.039  50.871  1.00  0.00     0.274 C 
HETATM   21  N4  UNL     1      19.797   3.005  50.528  1.00  0.00     0.090 N 
HETATM   22  C16 UNL     1      19.440   2.382  49.291  1.00  0.00     0.310 C 
ENDBRANCH  17  18
ENDBRANCH  15  17
ENDBRANCH  14  15
ENDBRANCH  13  14
ENDBRANCH  12  13
ENDBRANCH  11  12
ENDBRANCH  10  11
BRANCH   1  23
HETATM   23  O1  UNL     1      23.050   1.913  52.806  1.00  0.00    -0.353 OA
HETATM   24  C1  UNL     1      23.040   3.206  52.231  1.00  0.00     0.210 C 
ENDBRANCH   1  23
TORSDOF 8
ENDMDL
MODEL 3
REMARK VINA RESULT:      -6.1      2.813      4.501
REMARK  8 active torsions:
REMARK  status: ('A' for Active; 'I' for Inactive)
REMARK    1  A    between atoms: O1_2  and  C2_3 
REMARK    2  A    between atoms: C8_12  and  O2_13 
REMARK    3  A    between atoms: O2_13  and  C9_14 
REMARK    4  A    between atoms: C9_14  and  C10_15 
REMARK    5  A    between atoms: C10_15  and  C11_16 
REMARK    6  A    between atoms: C11_16  and  N3_17 
REMARK    7  A    between atoms: N3_17  and  C12_18 
REMARK    8  A    between atoms: C12_18  and  C13_19 
ROOT
HETATM    1  C2  UNL     1      24.076   0.313  53.307  1.00  0.00     0.103 A 
HETATM    2  C3  UNL     1      25.191  -0.398  53.664  1.00  0.00     0.073 A 
HETATM    3  C4  UNL     1      26.434   0.227  53.820  1.00  0.00     0.088 A 
HETATM    4  N1  UNL     1      27.424  -0.615  54.174  1.00  0.00    -0.247 NA
HETATM    5  P1  UNL     1      28.943   0.166  54.362  1.00  0.00     0.107 P 
HETATM    6  C5  UNL     1      28.843   1.870  54.049  1.00  0.00     0.153 A 
HETATM    7  N2  UNL     1      27.641   2.323  53.717  1.00  0.00    -0.256 NA
HETATM    8  C6  UNL     1      26.520   1.593  53.605  1.00  0.00     0.088 A 
HETATM    9  C7  UNL     1      25.364   2.284  53.241  1.00  0.00     0.073 A 
HETATM   10  C8  UNL     1      24.144   1.671  53.089  1.00  0.00     0.104 A 
ENDROOT
BRANCH  10  11
HETATM   11  O2  UNL     1      22.993   2.395  52.721  1.00  0.00    -0.348 OA
BRANCH  11  12
HETATM   12  C9  UNL     1      22.876   2.697  51.343  1.00  0.00     0.177 C 
BRANCH  12  13
HETATM   13  C10 UNL     1      22.158   4.014  51.121  1.00  0.00     0.046 C 
BRANCH  13  14
HETATM   14  C11 UNL     1      22.439   4.943  52.282  1.00  0.00     0.116 C 
BRANCH  14  15
HETATM   15  N3  UNL     1      23.714   5.541  52.276  1.00  0.00    -0.419 N 
HETATM   16  H13 UNL     1      24.468   5.049  52.757  1.00  0.00     0.153 HD
BRANCH  15  17
HETATM   17  C12 UNL     1      24.059   6.433  51.239  1.00  0.00     0.149 C 
BRANCH  17  18
HETATM   18  C13 UNL     1      25.241   6.069  50.402  1.00  0.00     0.241 C 
HETATM   19  C14 UNL     1      25.987   7.214  49.756  1.00  0.00     0.067 C 
HETATM   20  C15 UNL     1      26.172   6.187  48.630  1.00  0.00     0.274 C 
HETATM   21  N4  UNL     1      24.903   5.626  49.063  1.00  0.00     0.090 N 
HETATM   22  C16 UNL     1      23.816   6.283  48.407  1.00  0.00     0.310 C 
ENDBRANCH  17  18
ENDBRANCH  15  17
ENDBRANCH  14  15
ENDBRANCH  13  14
ENDBRANCH  12  13
ENDBRANCH  11  12
ENDBRANCH  10  11
BRANCH   1  23
HETATM   23  O1  UNL     1      22.852  -0.330  53.158  1.00  0.00    -0.353 OA
HETATM   24  C1  UNL     1      22.187  -0.908  54.266  1.00  0.00     0.210 C 
ENDBRANCH   1  23
TORSDOF 8
ENDMDL
MODEL 4
REMARK VINA RESULT:      -5.8      5.482      8.200
REMARK  8 active torsions:
REMARK  status: ('A' for Active; 'I' for Inactive)
REMARK    1  A    between atoms: O1_2  and  C2_3 
REMARK    2  A    between atoms: C8_12  and  O2_13 
REMARK    3  A    between atoms: O2_13  and  C9_14 
REMARK    4  A    between atoms: C9_14  and  C10_15 
REMARK    5  A    between atoms: C10_15  and  C11_16 
REMARK    6  A    between atoms: C11_16  and  N3_17 
REMARK    7  A    between atoms: N3_17  and  C12_18 
REMARK    8  A    between atoms: C12_18  and  C13_19 
ROOT
HETATM    1  C2  UNL     1      26.465   1.942  52.192  1.00  0.00     0.103 A 
HETATM    2  C3  UNL     1      25.919   0.940  52.948  1.00  0.00     0.073 A 
HETATM    3  C4  UNL     1      24.566   0.597  52.835  1.00  0.00     0.088 A 
HETATM    4  N1  UNL     1      24.192  -0.410  53.648  1.00  0.00    -0.247 NA
HETATM    5  P1  UNL     1      22.530  -0.819  53.499  1.00  0.00     0.107 P 
HETATM    6  C5  UNL     1      21.718   0.169  52.326  1.00  0.00     0.153 A 
HETATM    7  N2  UNL     1      22.472   1.080  51.723  1.00  0.00    -0.256 NA
HETATM    8  C6  UNL     1      23.778   1.297  51.937  1.00  0.00     0.088 A 
HETATM    9  C7  UNL     1      24.369   2.313  51.184  1.00  0.00     0.073 A 
HETATM   10  C8  UNL     1      25.697   2.649  51.294  1.00  0.00     0.104 A 
ENDROOT
BRANCH  10  11
HETATM   11  O2  UNL     1      26.265   3.680  50.521  1.00  0.00    -0.348 OA
BRANCH  11  12
HETATM   12  C9  UNL     1      25.351   4.621  49.991  1.00  0.00     0.177 C 
BRANCH  12  13
HETATM   13  C10 UNL     1      25.999   5.495  48.935  1.00  0.00     0.046 C 
BRANCH  13  14
HETATM   14  C11 UNL     1      27.407   5.003  48.671  1.00  0.00     0.116 C 
BRANCH  14  15
HETATM   15  N3  UNL     1      28.410   5.989  48.745  1.00  0.00    -0.419 N 
HETATM   16  H13 UNL     1      28.354   6.661  49.512  1.00  0.00     0.153 HD
BRANCH  15  17
HETATM   17  C12 UNL     1      29.674   5.739  48.172  1.00  0.00     0.149 C 
BRANCH  17  18
HETATM   18  C13 UNL     1      30.574   6.917  47.987  1.00  0.00     0.241 C 
HETATM   19  C14 UNL     1      31.830   6.684  47.178  1.00  0.00     0.067 C 
HETATM   20  C15 UNL     1      32.411   7.698  48.173  1.00  0.00     0.274 C 
HETATM   21  N4  UNL     1      31.439   7.183  49.122  1.00  0.00     0.090 N 
HETATM   22  C16 UNL     1      31.973   6.055  49.821  1.00  0.00     0.310 C 
ENDBRANCH  17  18
ENDBRANCH  15  17
ENDBRANCH  14  15
ENDBRANCH  13  14
ENDBRANCH  12  13
ENDBRANCH  11  12
ENDBRANCH  10  11
BRANCH   1  23
HETATM   23  O1  UNL     1      27.812   2.265  52.321  1.00  0.00    -0.353 OA
HETATM   24  C1  UNL     1      28.452   2.250  53.583  1.00  0.00     0.210 C 
ENDBRANCH   1  23
TORSDOF 8
ENDMDL
MODEL 5
REMARK VINA RESULT:      -5.7      1.247      3.040
REMARK  8 active torsions:
REMARK  status: ('A' for Active; 'I' for Inactive)
REMARK    1  A    between atoms: O1_2  and  C2_3 
REMARK    2  A    between atoms: C8_12  and  O2_13 
REMARK    3  A    between atoms: O2_13  and  C9_14 
REMARK    4  A    between atoms: C9_14  and  C10_15 
REMARK    5  A    between atoms: C10_15  and  C11_16 
REMARK    6  A    between atoms: C11_16  and  N3_17 
REMARK    7  A    between atoms: N3_17  and  C12_18 
REMARK    8  A    between atoms: C12_18  and  C13_19 
ROOT
HETATM    1  C2  UNL     1      24.258   0.501  53.076  1.00  0.00     0.103 A 
HETATM    2  C3  UNL     1      25.321  -0.319  53.343  1.00  0.00     0.073 A 
HETATM    3  C4  UNL     1      26.589   0.201  53.629  1.00  0.00     0.088 A 
HETATM    4  N1  UNL     1      27.521  -0.742  53.869  1.00  0.00    -0.247 NA
HETATM    5  P1  UNL     1      29.072  -0.088  54.217  1.00  0.00     0.107 P 
HETATM    6  C5  UNL     1      29.072   1.647  54.178  1.00  0.00     0.153 A 
HETATM    7  N2  UNL     1      27.907   2.214  53.892  1.00  0.00    -0.256 NA
HETATM    8  C6  UNL     1      26.754   1.577  53.636  1.00  0.00     0.088 A 
HETATM    9  C7  UNL     1      25.648   2.381  53.359  1.00  0.00     0.073 A 
HETATM   10  C8  UNL     1      24.404   1.871  53.079  1.00  0.00     0.104 A 
ENDROOT
BRANCH  10  11
HETATM   11  O2  UNL     1      23.306   2.709  52.803  1.00  0.00    -0.348 OA
BRANCH  11  12
HETATM   12  C9  UNL     1      23.586   4.096  52.785  1.00  0.00     0.177 C 
BRANCH  12  13
HETATM   13  C10 UNL     1      23.183   4.729  51.467  1.00  0.00     0.046 C 
BRANCH  13  14
HETATM   14  C11 UNL     1      21.707   5.060  51.500  1.00  0.00     0.116 C 
BRANCH  14  15
HETATM   15  N3  UNL     1      20.842   3.949  51.468  1.00  0.00    -0.419 N 
HETATM   16  H13 UNL     1      20.463   3.622  52.358  1.00  0.00     0.153 HD
BRANCH  15  17
HETATM   17  C12 UNL     1      20.116   3.665  50.292  1.00  0.00     0.149 C 
BRANCH  17  18
HETATM   18  C13 UNL     1      20.347   2.331  49.663  1.00  0.00     0.241 C 
HETATM   19  C14 UNL     1      21.638   1.631  50.023  1.00  0.00     0.067 C 
HETATM   20  C15 UNL     1      21.543   1.152  48.568  1.00  0.00     0.274 C 
HETATM   21  N4  UNL     1      20.844   2.398  48.302  1.00  0.00     0.090 N 
HETATM   22  C16 UNL     1      21.778   3.437  47.993  1.00  0.00     0.310 C 
ENDBRANCH  17  18
ENDBRANCH  15  17
ENDBRANCH  14  15
ENDBRANCH  13  14
ENDBRANCH  12  13
ENDBRANCH  11  12
ENDBRANCH  10  11
BRANCH   1  23
HETATM   23  O1  UNL     1      23.008  -0.039  52.796  1.00  0.00    -0.353 OA
HETATM   24  C1  UNL     1      22.278  -0.749  53.779  1.00  0.00     0.210 C 
ENDBRANCH   1  23
TORSDOF 8
ENDMDL
MODEL 6
REMARK VINA RESULT:      -5.6      3.360      5.623
REMARK  8 active torsions:
REMARK  status: ('A' for Active; 'I' for Inactive)
REMARK    1  A    between atoms: O1_2  and  C2_3 
REMARK    2  A    between atoms: C8_12  and  O2_13 
REMARK    3  A    between atoms: O2_13  and  C9_14 
REMARK    4  A    between atoms: C9_14  and  C10_15 
REMARK    5  A    between atoms: C10_15  and  C11_16 
REMARK    6  A    between atoms: C11_16  and  N3_17 
REMARK    7  A    between atoms: N3_17  and  C12_18 
REMARK    8  A    between atoms: C12_18  and  C13_19 
ROOT
HETATM    1  C2  UNL     1      25.992   0.881  52.474  1.00  0.00     0.103 A 
HETATM    2  C3  UNL     1      25.173  -0.013  53.112  1.00  0.00     0.073 A 
HETATM    3  C4  UNL     1      23.793   0.205  53.208  1.00  0.00     0.088 A 
HETATM    4  N1  UNL     1      23.134  -0.769  53.865  1.00  0.00    -0.247 NA
HETATM    5  P1  UNL     1      21.443  -0.488  53.975  1.00  0.00     0.107 P 
HETATM    6  C5  UNL     1      20.977   0.998  53.208  1.00  0.00     0.153 A 
HETATM    7  N2  UNL     1      21.964   1.692  52.657  1.00  0.00    -0.256 NA
HETATM    8  C6  UNL     1      23.262   1.353  52.642  1.00  0.00     0.088 A 
HETATM    9  C7  UNL     1      24.128   2.241  52.001  1.00  0.00     0.073 A 
HETATM   10  C8  UNL     1      25.482   2.027  51.906  1.00  0.00     0.104 A 
ENDROOT
BRANCH  10  11
HETATM   11  O2  UNL     1      26.330   2.941  51.253  1.00  0.00    -0.348 OA
BRANCH  11  12
HETATM   12  C9  UNL     1      26.235   2.961  49.841  1.00  0.00     0.177 C 
BRANCH  12  13
HETATM   13  C10 UNL     1      26.969   4.149  49.250  1.00  0.00     0.046 C 
BRANCH  13  14
HETATM   14  C11 UNL     1      26.072   5.368  49.295  1.00  0.00     0.116 C 
BRANCH  14  15
HETATM   15  N3  UNL     1      25.462   5.617  50.540  1.00  0.00    -0.419 N 
HETATM   16  H13 UNL     1      26.054   5.972  51.292  1.00  0.00     0.153 HD
BRANCH  15  17
HETATM   17  C12 UNL     1      24.081   5.896  50.595  1.00  0.00     0.149 C 
BRANCH  17  18
HETATM   18  C13 UNL     1      23.219   5.237  49.569  1.00  0.00     0.241 C 
HETATM   19  C14 UNL     1      22.192   6.113  48.888  1.00  0.00     0.067 C 
HETATM   20  C15 UNL     1      21.370   4.818  48.916  1.00  0.00     0.274 C 
HETATM   21  N4  UNL     1      22.108   4.488  50.124  1.00  0.00     0.090 N 
HETATM   22  C16 UNL     1      21.455   5.034  51.273  1.00  0.00     0.310 C 
ENDBRANCH  17  18
ENDBRANCH  15  17
ENDBRANCH  14  15
ENDBRANCH  13  14
ENDBRANCH  12  13
ENDBRANCH  11  12
ENDBRANCH  10  11
BRANCH   1  23
HETATM   23  O1  UNL     1      27.359   0.642  52.391  1.00  0.00    -0.353 OA
HETATM   24  C1  UNL     1      27.984  -0.340  53.196  1.00  0.00     0.210 C 
ENDBRANCH   1  23
TORSDOF 8
ENDMDL
MODEL 7
REMARK VINA RESULT:      -5.6      1.645      3.339
REMARK  8 active torsions:
REMARK  status: ('A' for Active; 'I' for Inactive)
REMARK    1  A    between atoms: O1_2  and  C2_3 
REMARK    2  A    between atoms: C8_12  and  O2_13 
REMARK    3  A    between atoms: O2_13  and  C9_14 
REMARK    4  A    between atoms: C9_14  and  C10_15 
REMARK    5  A    between atoms: C10_15  and  C11_16 
REMARK    6  A    between atoms: C11_16  and  N3_17 
REMARK    7  A    between atoms: N3_17  and  C12_18 
REMARK    8  A    between atoms: C12_18  and  C13_19 
ROOT
HETATM    1  C2  UNL     1      23.890   0.509  53.163  1.00  0.00     0.103 A 
HETATM    2  C3  UNL     1      24.943  -0.307  53.475  1.00  0.00     0.073 A 
HETATM    3  C4  UNL     1      26.223   0.211  53.705  1.00  0.00     0.088 A 
HETATM    4  N1  UNL     1      27.144  -0.727  54.000  1.00  0.00    -0.247 NA
HETATM    5  P1  UNL     1      28.709  -0.076  54.280  1.00  0.00     0.107 P 
HETATM    6  C5  UNL     1      28.736   1.652  54.116  1.00  0.00     0.153 A 
HETATM    7  N2  UNL     1      27.576   2.216  53.806  1.00  0.00    -0.256 NA
HETATM    8  C6  UNL     1      26.410   1.581  53.612  1.00  0.00     0.088 A 
HETATM    9  C7  UNL     1      25.313   2.382  53.291  1.00  0.00     0.073 A 
HETATM   10  C8  UNL     1      24.056   1.873  53.066  1.00  0.00     0.104 A 
ENDROOT
BRANCH  10  11
HETATM   11  O2  UNL     1      22.968   2.707  52.744  1.00  0.00    -0.348 OA
BRANCH  11  12
HETATM   12  C9  UNL     1      23.190   3.620  51.686  1.00  0.00     0.177 C 
BRANCH  12  13
HETATM   13  C10 UNL     1      22.153   3.467  50.591  1.00  0.00     0.046 C 
BRANCH  13  14
HETATM   14  C11 UNL     1      20.886   2.880  51.177  1.00  0.00     0.116 C 
BRANCH  14  15
HETATM   15  N3  UNL     1      20.759   1.483  51.052  1.00  0.00    -0.419 N 
HETATM   16  H13 UNL     1      21.373   0.901  51.624  1.00  0.00     0.153 HD
BRANCH  15  17
HETATM   17  C12 UNL     1      19.535   0.931  50.620  1.00  0.00     0.149 C 
BRANCH  17  18
HETATM   18  C13 UNL     1      18.466   0.772  51.650  1.00  0.00     0.241 C 
HETATM   19  C14 UNL     1      18.333  -0.597  52.277  1.00  0.00     0.067 C 
HETATM   20  C15 UNL     1      16.844  -0.225  52.277  1.00  0.00     0.274 C 
HETATM   21  N4  UNL     1      17.140   0.572  51.098  1.00  0.00     0.090 N 
HETATM   22  C16 UNL     1      17.033  -0.227  49.916  1.00  0.00     0.310 C 
ENDBRANCH  17  18
ENDBRANCH  15  17
ENDBRANCH  14  15
ENDBRANCH  13  14
ENDBRANCH  12  13
ENDBRANCH  11  12
ENDBRANCH  10  11
BRANCH   1  23
HETATM   23  O1  UNL     1      22.627  -0.029  52.939  1.00  0.00    -0.353 OA
HETATM   24  C1  UNL     1      21.740  -0.290  54.010  1.00  0.00     0.210 C 
ENDBRANCH   1  23
TORSDOF 8
ENDMDL
MODEL 8
REMARK VINA RESULT:      -5.5      4.285      6.176
REMARK  8 active torsions:
REMARK  status: ('A' for Active; 'I' for Inactive)
REMARK    1  A    between atoms: O1_2  and  C2_3 
REMARK    2  A    between atoms: C8_12  and  O2_13 
REMARK    3  A    between atoms: O2_13  and  C9_14 
REMARK    4  A    between atoms: C9_14  and  C10_15 
REMARK    5  A    between atoms: C10_15  and  C11_16 
REMARK    6  A    between atoms: C11_16  and  N3_17 
REMARK    7  A    between atoms: N3_17  and  C12_18 
REMARK    8  A    between atoms: C12_18  and  C13_19 
ROOT
HETATM    1  C2  UNL     1      24.198   1.096  52.415  1.00  0.00     0.103 A 
HETATM    2  C3  UNL     1      24.932   0.354  53.301  1.00  0.00     0.073 A 
HETATM    3  C4  UNL     1      26.301   0.585  53.486  1.00  0.00     0.088 A 
HETATM    4  N1  UNL     1      26.871  -0.232  54.393  1.00  0.00    -0.247 NA
HETATM    5  P1  UNL     1      28.550   0.064  54.609  1.00  0.00     0.107 P 
HETATM    6  C5  UNL     1      29.120   1.356  53.600  1.00  0.00     0.153 A 
HETATM    7  N2  UNL     1      28.206   1.921  52.822  1.00  0.00    -0.256 NA
HETATM    8  C6  UNL     1      26.908   1.589  52.749  1.00  0.00     0.088 A 
HETATM    9  C7  UNL     1      26.128   2.324  51.856  1.00  0.00     0.073 A 
HETATM   10  C8  UNL     1      24.785   2.098  51.675  1.00  0.00     0.104 A 
ENDROOT
BRANCH  10  11
HETATM   11  O2  UNL     1      24.024   2.857  50.765  1.00  0.00    -0.348 OA
BRANCH  11  12
HETATM   12  C9  UNL     1      24.708   3.283  49.602  1.00  0.00     0.177 C 
BRANCH  12  13
HETATM   13  C10 UNL     1      24.370   4.719  49.251  1.00  0.00     0.046 C 
BRANCH  13  14
HETATM   14  C11 UNL     1      24.861   5.635  50.352  1.00  0.00     0.116 C 
BRANCH  14  15
HETATM   15  N3  UNL     1      26.166   6.136  50.177  1.00  0.00    -0.419 N 
HETATM   16  H13 UNL     1      26.909   5.722  50.742  1.00  0.00     0.153 HD
BRANCH  15  17
HETATM   17  C12 UNL     1      26.521   6.742  48.954  1.00  0.00     0.149 C 
BRANCH  17  18
HETATM   18  C13 UNL     1      27.354   7.979  49.031  1.00  0.00     0.241 C 
HETATM   19  C14 UNL     1      27.018   8.949  50.141  1.00  0.00     0.067 C 
HETATM   20  C15 UNL     1      27.423   9.982  49.081  1.00  0.00     0.274 C 
HETATM   21  N4  UNL     1      26.958   9.017  48.099  1.00  0.00     0.090 N 
HETATM   22  C16 UNL     1      25.558   9.186  47.858  1.00  0.00     0.310 C 
ENDBRANCH  17  18
ENDBRANCH  15  17
ENDBRANCH  14  15
ENDBRANCH  13  14
ENDBRANCH  12  13
ENDBRANCH  11  12
ENDBRANCH  10  11
BRANCH   1  23
HETATM   23  O1  UNL     1      22.840   0.849  52.249  1.00  0.00    -0.353 OA
HETATM   24  C1  UNL     1      22.074   0.238  53.271  1.00  0.00     0.210 C 
ENDBRANCH   1  23
TORSDOF 8
ENDMDL
MODEL 9
REMARK VINA RESULT:      -5.4      1.945      3.378
REMARK  8 active torsions:
REMARK  status: ('A' for Active; 'I' for Inactive)
REMARK    1  A    between atoms: O1_2  and  C2_3 
REMARK    2  A    between atoms: C8_12  and  O2_13 
REMARK    3  A    between atoms: O2_13  and  C9_14 
REMARK    4  A    between atoms: C9_14  and  C10_15 
REMARK    5  A    between atoms: C10_15  and  C11_16 
REMARK    6  A    between atoms: C11_16  and  N3_17 
REMARK    7  A    between atoms: N3_17  and  C12_18 
REMARK    8  A    between atoms: C12_18  and  C13_19 
ROOT
HETATM    1  C2  UNL     1      25.385   3.178  51.046  1.00  0.00     0.103 A 
HETATM    2  C3  UNL     1      26.641   2.702  51.310  1.00  0.00     0.073 A 
HETATM    3  C4  UNL     1      26.896   1.903  52.432  1.00  0.00     0.088 A 
HETATM    4  N1  UNL     1      28.182   1.519  52.543  1.00  0.00    -0.247 NA
HETATM    5  P1  UNL     1      28.479   0.540  53.924  1.00  0.00     0.107 P 
HETATM    6  C5  UNL     1      27.040   0.274  54.857  1.00  0.00     0.153 A 
HETATM    7  N2  UNL     1      25.939   0.848  54.389  1.00  0.00    -0.256 NA
HETATM    8  C6  UNL     1      25.844   1.599  53.281  1.00  0.00     0.088 A 
HETATM    9  C7  UNL     1      24.578   2.103  52.979  1.00  0.00     0.073 A 
HETATM   10  C8  UNL     1      24.328   2.886  51.879  1.00  0.00     0.104 A 
ENDROOT
BRANCH  10  11
HETATM   11  O2  UNL     1      23.039   3.380  51.600  1.00  0.00    -0.348 OA
BRANCH  11  12
HETATM   12  C9  UNL     1      22.655   4.529  52.332  1.00  0.00     0.177 C 
BRANCH  12  13
HETATM   13  C10 UNL     1      21.808   5.467  51.493  1.00  0.00     0.046 C 
BRANCH  13  14
HETATM   14  C11 UNL     1      20.688   4.685  50.841  1.00  0.00     0.116 C 
BRANCH  14  15
HETATM   15  N3  UNL     1      19.970   3.834  51.704  1.00  0.00    -0.419 N 
HETATM   16  H13 UNL     1      19.523   4.257  52.518  1.00  0.00     0.153 HD
BRANCH  15  17
HETATM   17  C12 UNL     1      19.434   2.628  51.205  1.00  0.00     0.149 C 
BRANCH  17  18
HETATM   18  C13 UNL     1      19.512   1.435  52.100  1.00  0.00     0.241 C 
HETATM   19  C14 UNL     1      20.625   1.431  53.122  1.00  0.00     0.067 C 
HETATM   20  C15 UNL     1      20.611  -0.075  52.829  1.00  0.00     0.274 C 
HETATM   21  N4  UNL     1      20.157   0.285  51.496  1.00  0.00     0.090 N 
HETATM   22  C16 UNL     1      21.275   0.533  50.638  1.00  0.00     0.310 C 
ENDBRANCH  17  18
ENDBRANCH  15  17
ENDBRANCH  14  15
ENDBRANCH  13  14
ENDBRANCH  12  13
ENDBRANCH  11  12
ENDBRANCH  10  11
BRANCH   1  23
HETATM   23  O1  UNL     1      25.157   3.969  49.925  1.00  0.00    -0.353 OA
HETATM   24  C1  UNL     1      25.597   5.313  49.873  1.00  0.00     0.210 C 
ENDBRANCH   1  23
TORSDOF 8
ENDMDL
