MODEL 1
REMARK VINA RESULT:      -9.9      0.000      0.000
REMARK  4 active torsions:
REMARK  status: ('A' for Active; 'I' for Inactive)
REMARK    1  A    between atoms: N1_1  and  C1_2 
REMARK    2  A    between atoms: C12_13  and  C13_14 
REMARK    3  A    between atoms: C18_19  and  O1_20 
REMARK    4  A    between atoms: O1_20  and  O2_21 
ROOT
HETATM    1  C1  UNL     1      22.202  -0.174  54.143  1.00  0.00     0.353 C 
HETATM    2  C2  UNL     1      20.823  -0.358  53.512  1.00  0.00    -0.003 A 
HETATM    3  C3  UNL     1      19.785  -1.039  53.893  1.00  0.00    -0.011 A 
HETATM    4  C4  UNL     1      18.836  -0.754  52.814  1.00  0.00     0.067 A 
HETATM    5  C5  UNL     1      20.016   0.070  52.365  1.00  0.00    -0.045 A 
HETATM    6  C6  UNL     1      20.038   0.804  51.208  1.00  0.00     0.008 C 
HETATM    7  C7  UNL     1      20.934   1.641  50.358  1.00  0.00    -0.003 C 
HETATM    8  C8  UNL     1      22.134   2.182  50.091  1.00  0.00    -0.022 C 
HETATM    9  C9  UNL     1      23.599   2.433  50.363  1.00  0.00     0.063 C 
HETATM   10  C10 UNL     1      24.088   1.597  51.504  1.00  0.00    -0.058 C 
HETATM   11  C11 UNL     1      25.313   1.315  51.891  1.00  0.00     0.018 C 
HETATM   12  C12 UNL     1      25.600   0.201  52.787  1.00  0.00    -0.007 C 
HETATM   13  C19 UNL     1      24.579  -0.526  53.209  1.00  0.00     0.100 C 
HETATM   14  N2  UNL     1      23.273   0.038  53.233  1.00  0.00    -0.352 N 
HETATM   15  C20 UNL     1      22.970   0.961  52.241  1.00  0.00     0.159 C 
ENDROOT
BRANCH  12  16
HETATM   16  C13 UNL     1      26.940  -0.167  53.208  1.00  0.00     0.012 A 
HETATM   17  C14 UNL     1      27.461  -1.357  52.766  1.00  0.00     0.015 A 
HETATM   18  C15 UNL     1      28.707  -1.824  53.084  1.00  0.00     0.001 A 
HETATM   19  C16 UNL     1      29.578  -1.107  53.906  1.00  0.00     0.003 A 
HETATM   20  C17 UNL     1      29.025   0.075  54.324  1.00  0.00     0.041 A 
HETATM   21  C18 UNL     1      27.788   0.558  54.022  1.00  0.00     0.117 A 
BRANCH  21  22
HETATM   22  O1  UNL     1      27.373   1.743  54.514  1.00  0.00    -0.199 OA
BRANCH  22  23
HETATM   23  O2  UNL     1      27.896   2.896  54.095  1.00  0.00    -0.245 OA
HETATM   24  H17 UNL     1      27.568   3.615  54.704  1.00  0.00     0.254 HD
ENDBRANCH  22  23
ENDBRANCH  21  22
ENDBRANCH  12  16
BRANCH   1  25
HETATM   25  N1  UNL     1      22.541  -1.332  54.921  1.00  0.00     0.105 N 
HETATM   26  H1  UNL     1      22.437  -2.215  54.346  1.00  0.00     0.316 HD
HETATM   27  H2  UNL     1      23.445  -1.270  55.433  1.00  0.00     0.316 HD
ENDBRANCH   1  25
TORSDOF 4
ENDMDL
MODEL 2
REMARK VINA RESULT:      -9.5      1.431      3.251
REMARK  4 active torsions:
REMARK  status: ('A' for Active; 'I' for Inactive)
REMARK    1  A    between atoms: N1_1  and  C1_2 
REMARK    2  A    between atoms: C12_13  and  C13_14 
REMARK    3  A    between atoms: C18_19  and  O1_20 
REMARK    4  A    between atoms: O1_20  and  O2_21 
ROOT
HETATM    1  C1  UNL     1      23.691   2.019  50.981  1.00  0.00     0.353 C 
HETATM    2  C2  UNL     1      22.411   2.841  51.131  1.00  0.00    -0.003 A 
HETATM    3  C3  UNL     1      22.023   3.943  50.563  1.00  0.00    -0.011 A 
HETATM    4  C4  UNL     1      20.709   4.142  51.177  1.00  0.00     0.067 A 
HETATM    5  C5  UNL     1      21.121   2.845  51.827  1.00  0.00    -0.045 A 
HETATM    6  C6  UNL     1      20.360   2.180  52.753  1.00  0.00     0.008 C 
HETATM    7  C7  UNL     1      20.380   1.004  53.672  1.00  0.00    -0.003 C 
HETATM    8  C8  UNL     1      21.005  -0.052  54.217  1.00  0.00    -0.022 C 
HETATM    9  C9  UNL     1      22.183  -0.978  54.414  1.00  0.00     0.063 C 
HETATM   10  C10 UNL     1      23.395  -0.470  53.697  1.00  0.00    -0.058 C 
HETATM   11  C11 UNL     1      24.659  -0.813  53.812  1.00  0.00     0.018 C 
HETATM   12  C12 UNL     1      25.734   0.033  53.306  1.00  0.00    -0.007 C 
HETATM   13  C19 UNL     1      25.397   1.167  52.716  1.00  0.00     0.100 C 
HETATM   14  N2  UNL     1      24.103   1.306  52.139  1.00  0.00    -0.352 N 
HETATM   15  C20 UNL     1      23.062   0.635  52.765  1.00  0.00     0.159 C 
ENDROOT
BRANCH  12  16
HETATM   16  C13 UNL     1      27.143  -0.288  53.446  1.00  0.00     0.012 A 
HETATM   17  C14 UNL     1      27.597  -1.477  52.933  1.00  0.00     0.015 A 
HETATM   18  C15 UNL     1      28.896  -1.902  52.994  1.00  0.00     0.001 A 
HETATM   19  C16 UNL     1      29.897  -1.140  53.599  1.00  0.00     0.003 A 
HETATM   20  C17 UNL     1      29.407   0.039  54.096  1.00  0.00     0.041 A 
HETATM   21  C18 UNL     1      28.120   0.482  54.049  1.00  0.00     0.117 A 
BRANCH  21  22
HETATM   22  O1  UNL     1      27.779   1.670  54.588  1.00  0.00    -0.199 OA
BRANCH  22  23
HETATM   23  O2  UNL     1      28.201   2.822  54.067  1.00  0.00    -0.245 OA
HETATM   24  H17 UNL     1      27.443   3.215  53.551  1.00  0.00     0.254 HD
ENDBRANCH  22  23
ENDBRANCH  21  22
ENDBRANCH  12  16
BRANCH   1  25
HETATM   25  N1  UNL     1      24.780   2.877  50.611  1.00  0.00     0.105 N 
HETATM   26  H1  UNL     1      24.456   3.880  50.520  1.00  0.00     0.316 HD
HETATM   27  H2  UNL     1      25.643   2.766  51.183  1.00  0.00     0.316 HD
ENDBRANCH   1  25
TORSDOF 4
ENDMDL
MODEL 3
REMARK VINA RESULT:      -9.0      3.008      5.069
REMARK  4 active torsions:
REMARK  status: ('A' for Active; 'I' for Inactive)
REMARK    1  A    between atoms: N1_1  and  C1_2 
REMARK    2  A    between atoms: C12_13  and  C13_14 
REMARK    3  A    between atoms: C18_19  and  O1_20 
REMARK    4  A    between atoms: O1_20  and  O2_21 
ROOT
HETATM    1  C1  UNL     1      21.913   1.291  50.447  1.00  0.00     0.353 C 
HETATM    2  C2  UNL     1      20.967   0.611  51.436  1.00  0.00    -0.003 A 
HETATM    3  C3  UNL     1      19.674   0.483  51.444  1.00  0.00    -0.011 A 
HETATM    4  C4  UNL     1      19.463  -0.277  52.677  1.00  0.00     0.067 A 
HETATM    5  C5  UNL     1      20.967  -0.171  52.676  1.00  0.00    -0.045 A 
HETATM    6  C6  UNL     1      21.769  -0.680  53.664  1.00  0.00     0.008 C 
HETATM    7  C7  UNL     1      23.189  -0.742  54.116  1.00  0.00    -0.003 C 
HETATM    8  C8  UNL     1      24.483  -0.411  53.979  1.00  0.00    -0.022 C 
HETATM    9  C9  UNL     1      25.640   0.288  53.301  1.00  0.00     0.063 C 
HETATM   10  C10 UNL     1      25.159   1.194  52.210  1.00  0.00    -0.058 C 
HETATM   11  C11 UNL     1      25.782   2.155  51.564  1.00  0.00     0.018 C 
HETATM   12  C12 UNL     1      25.057   3.165  50.802  1.00  0.00    -0.007 C 
HETATM   13  C19 UNL     1      23.738   3.082  50.773  1.00  0.00     0.100 C 
HETATM   14  N2  UNL     1      23.103   1.830  51.005  1.00  0.00    -0.352 N 
HETATM   15  C20 UNL     1      23.729   0.965  51.892  1.00  0.00     0.159 C 
ENDROOT
BRANCH  12  16
HETATM   16  C13 UNL     1      25.703   4.264  50.107  1.00  0.00     0.012 A 
HETATM   17  C14 UNL     1      26.791   3.990  49.318  1.00  0.00     0.015 A 
HETATM   18  C15 UNL     1      27.491   4.927  48.608  1.00  0.00     0.001 A 
HETATM   19  C16 UNL     1      27.145   6.280  48.627  1.00  0.00     0.003 A 
HETATM   20  C17 UNL     1      26.054   6.514  49.422  1.00  0.00     0.041 A 
HETATM   21  C18 UNL     1      25.344   5.598  50.137  1.00  0.00     0.117 A 
BRANCH  21  22
HETATM   22  O1  UNL     1      24.287   5.976  50.885  1.00  0.00    -0.199 OA
BRANCH  22  23
HETATM   23  O2  UNL     1      24.444   6.617  52.044  1.00  0.00    -0.245 OA
HETATM   24  H17 UNL     1      24.757   5.951  52.717  1.00  0.00     0.254 HD
ENDBRANCH  22  23
ENDBRANCH  21  22
ENDBRANCH  12  16
BRANCH   1  25
HETATM   25  N1  UNL     1      21.235   2.373  49.791  1.00  0.00     0.105 N 
HETATM   26  H1  UNL     1      20.488   2.008  49.136  1.00  0.00     0.316 HD
HETATM   27  H2  UNL     1      20.905   3.134  50.420  1.00  0.00     0.316 HD
ENDBRANCH   1  25
TORSDOF 4
ENDMDL
MODEL 4
REMARK VINA RESULT:      -9.0      2.134      4.000
REMARK  4 active torsions:
REMARK  status: ('A' for Active; 'I' for Inactive)
REMARK    1  A    between atoms: N1_1  and  C1_2 
REMARK    2  A    between atoms: C12_13  and  C13_14 
REMARK    3  A    between atoms: C18_19  and  O1_20 
REMARK    4  A    between atoms: O1_20  and  O2_21 
ROOT
HETATM    1  C1  UNL     1      25.104   3.342  50.554  1.00  0.00     0.353 C 
HETATM    2  C2  UNL     1      24.010   4.406  50.635  1.00  0.00    -0.003 A 
HETATM    3  C3  UNL     1      23.969   5.633  50.213  1.00  0.00    -0.011 A 
HETATM    4  C4  UNL     1      22.625   6.041  50.630  1.00  0.00     0.067 A 
HETATM    5  C5  UNL     1      22.635   4.609  51.102  1.00  0.00    -0.045 A 
HETATM    6  C6  UNL     1      21.590   4.015  51.760  1.00  0.00     0.008 C 
HETATM    7  C7  UNL     1      21.194   2.753  52.450  1.00  0.00    -0.003 C 
HETATM    8  C8  UNL     1      21.477   1.519  52.897  1.00  0.00    -0.022 C 
HETATM    9  C9  UNL     1      22.385   0.331  53.119  1.00  0.00     0.063 C 
HETATM   10  C10 UNL     1      23.790   0.642  52.708  1.00  0.00    -0.058 C 
HETATM   11  C11 UNL     1      24.914   0.008  52.966  1.00  0.00     0.018 C 
HETATM   12  C12 UNL     1      26.213   0.648  52.798  1.00  0.00    -0.007 C 
HETATM   13  C19 UNL     1      26.232   1.898  52.368  1.00  0.00     0.100 C 
HETATM   14  N2  UNL     1      25.131   2.404  51.621  1.00  0.00    -0.352 N 
HETATM   15  C20 UNL     1      23.875   1.909  51.942  1.00  0.00     0.159 C 
ENDROOT
BRANCH  12  16
HETATM   16  C13 UNL     1      27.475  -0.002  53.107  1.00  0.00     0.012 A 
HETATM   17  C14 UNL     1      27.616  -1.333  52.807  1.00  0.00     0.015 A 
HETATM   18  C15 UNL     1      28.747  -2.065  53.042  1.00  0.00     0.001 A 
HETATM   19  C16 UNL     1      29.885  -1.503  53.624  1.00  0.00     0.003 A 
HETATM   20  C17 UNL     1      29.707  -0.174  53.907  1.00  0.00     0.041 A 
HETATM   21  C18 UNL     1      28.591   0.574  53.683  1.00  0.00     0.117 A 
BRANCH  21  22
HETATM   22  O1  UNL     1      28.558   1.879  54.020  1.00  0.00    -0.199 OA
BRANCH  22  23
HETATM   23  O2  UNL     1      29.533   2.443  54.733  1.00  0.00    -0.245 OA
HETATM   24  H17 UNL     1      29.139   3.216  55.225  1.00  0.00     0.254 HD
ENDBRANCH  22  23
ENDBRANCH  21  22
ENDBRANCH  12  16
BRANCH   1  25
HETATM   25  N1  UNL     1      26.394   3.971  50.522  1.00  0.00     0.105 N 
HETATM   26  H1  UNL     1      26.373   4.842  49.921  1.00  0.00     0.316 HD
HETATM   27  H2  UNL     1      26.838   4.115  51.453  1.00  0.00     0.316 HD
ENDBRANCH   1  25
TORSDOF 4
ENDMDL
MODEL 5
REMARK VINA RESULT:      -8.7      3.780      5.499
REMARK  4 active torsions:
REMARK  status: ('A' for Active; 'I' for Inactive)
REMARK    1  A    between atoms: N1_1  and  C1_2 
REMARK    2  A    between atoms: C12_13  and  C13_14 
REMARK    3  A    between atoms: C18_19  and  O1_20 
REMARK    4  A    between atoms: O1_20  and  O2_21 
ROOT
HETATM    1  C1  UNL     1      24.143   2.654  52.526  1.00  0.00     0.353 C 
HETATM    2  C2  UNL     1      23.475   1.303  52.779  1.00  0.00    -0.003 A 
HETATM    3  C3  UNL     1      23.596   0.450  53.751  1.00  0.00    -0.011 A 
HETATM    4  C4  UNL     1      22.665  -0.601  53.337  1.00  0.00     0.067 A 
HETATM    5  C5  UNL     1      22.482   0.386  52.211  1.00  0.00    -0.045 A 
HETATM    6  C6  UNL     1      21.648   0.180  51.143  1.00  0.00     0.008 C 
HETATM    7  C7  UNL     1      21.231   0.774  49.840  1.00  0.00    -0.003 C 
HETATM    8  C8  UNL     1      21.332   1.720  48.893  1.00  0.00    -0.022 C 
HETATM    9  C9  UNL     1      21.917   2.976  48.286  1.00  0.00     0.063 C 
HETATM   10  C10 UNL     1      23.091   3.461  49.076  1.00  0.00    -0.058 C 
HETATM   11  C11 UNL     1      24.024   4.335  48.768  1.00  0.00     0.018 C 
HETATM   12  C12 UNL     1      25.281   4.411  49.502  1.00  0.00    -0.007 C 
HETATM   13  C19 UNL     1      25.458   3.568  50.505  1.00  0.00     0.100 C 
HETATM   14  N2  UNL     1      24.328   3.003  51.161  1.00  0.00    -0.352 N 
HETATM   15  C20 UNL     1      23.204   2.766  50.381  1.00  0.00     0.159 C 
ENDROOT
BRANCH  12  16
HETATM   16  C13 UNL     1      26.352   5.334  49.171  1.00  0.00     0.012 A 
HETATM   17  C14 UNL     1      27.494   4.833  48.599  1.00  0.00     0.015 A 
HETATM   18  C15 UNL     1      28.575   5.589  48.237  1.00  0.00     0.001 A 
HETATM   19  C16 UNL     1      28.607   6.972  48.422  1.00  0.00     0.003 A 
HETATM   20  C17 UNL     1      27.450   7.435  48.991  1.00  0.00     0.041 A 
HETATM   21  C18 UNL     1      26.363   6.703  49.360  1.00  0.00     0.117 A 
BRANCH  21  22
HETATM   22  O1  UNL     1      25.289   7.298  49.918  1.00  0.00    -0.199 OA
BRANCH  22  23
HETATM   23  O2  UNL     1      25.154   7.402  51.241  1.00  0.00    -0.245 OA
HETATM   24  H17 UNL     1      25.102   8.373  51.462  1.00  0.00     0.254 HD
ENDBRANCH  22  23
ENDBRANCH  21  22
ENDBRANCH  12  16
BRANCH   1  25
HETATM   25  N1  UNL     1      25.440   2.679  53.140  1.00  0.00     0.105 N 
HETATM   26  H1  UNL     1      26.183   2.341  52.466  1.00  0.00     0.316 HD
HETATM   27  H2  UNL     1      25.684   3.570  53.620  1.00  0.00     0.316 HD
ENDBRANCH   1  25
TORSDOF 4
ENDMDL
MODEL 6
REMARK VINA RESULT:      -8.5      3.239      5.822
REMARK  4 active torsions:
REMARK  status: ('A' for Active; 'I' for Inactive)
REMARK    1  A    between atoms: N1_1  and  C1_2 
REMARK    2  A    between atoms: C12_13  and  C13_14 
REMARK    3  A    between atoms: C18_19  and  O1_20 
REMARK    4  A    between atoms: O1_20  and  O2_21 
ROOT
HETATM    1  C1  UNL     1      22.626   1.649  51.112  1.00  0.00     0.353 C 
HETATM    2  C2  UNL     1      22.239   0.846  52.353  1.00  0.00    -0.003 A 
HETATM    3  C3  UNL     1      21.082   0.590  52.888  1.00  0.00    -0.011 A 
HETATM    4  C4  UNL     1      21.468  -0.228  54.040  1.00  0.00     0.067 A 
HETATM    5  C5  UNL     1      22.819   0.028  53.422  1.00  0.00    -0.045 A 
HETATM    6  C6  UNL     1      23.998  -0.430  53.950  1.00  0.00     0.008 C 
HETATM    7  C7  UNL     1      25.478  -0.364  53.766  1.00  0.00    -0.003 C 
HETATM    8  C8  UNL     1      26.564   0.099  53.128  1.00  0.00    -0.022 C 
HETATM    9  C9  UNL     1      27.272   0.931  52.082  1.00  0.00     0.063 C 
HETATM   10  C10 UNL     1      26.310   1.819  51.357  1.00  0.00    -0.058 C 
HETATM   11  C11 UNL     1      26.528   2.858  50.581  1.00  0.00     0.018 C 
HETATM   12  C12 UNL     1      25.474   3.814  50.262  1.00  0.00    -0.007 C 
HETATM   13  C19 UNL     1      24.275   3.602  50.777  1.00  0.00     0.100 C 
HETATM   14  N2  UNL     1      23.895   2.286  51.163  1.00  0.00    -0.352 N 
HETATM   15  C20 UNL     1      24.900   1.459  51.646  1.00  0.00     0.159 C 
ENDROOT
BRANCH  12  16
HETATM   16  C13 UNL     1      25.682   4.994  49.441  1.00  0.00     0.012 A 
HETATM   17  C14 UNL     1      24.614   5.823  49.205  1.00  0.00     0.015 A 
HETATM   18  C15 UNL     1      24.670   6.965  48.455  1.00  0.00     0.001 A 
HETATM   19  C16 UNL     1      25.851   7.395  47.849  1.00  0.00     0.003 A 
HETATM   20  C17 UNL     1      26.894   6.546  48.109  1.00  0.00     0.041 A 
HETATM   21  C18 UNL     1      26.862   5.405  48.851  1.00  0.00     0.117 A 
BRANCH  21  22
HETATM   22  O1  UNL     1      27.973   4.660  49.019  1.00  0.00    -0.199 OA
BRANCH  22  23
HETATM   23  O2  UNL     1      29.181   5.217  49.113  1.00  0.00    -0.245 OA
HETATM   24  H17 UNL     1      29.642   5.086  48.238  1.00  0.00     0.254 HD
ENDBRANCH  22  23
ENDBRANCH  21  22
ENDBRANCH  12  16
BRANCH   1  25
HETATM   25  N1  UNL     1      21.654   2.678  50.875  1.00  0.00     0.105 N 
HETATM   26  H1  UNL     1      20.781   2.277  50.431  1.00  0.00     0.316 HD
HETATM   27  H2  UNL     1      21.463   3.300  51.687  1.00  0.00     0.316 HD
ENDBRANCH   1  25
TORSDOF 4
ENDMDL
MODEL 7
REMARK VINA RESULT:      -8.4      3.314      7.580
REMARK  4 active torsions:
REMARK  status: ('A' for Active; 'I' for Inactive)
REMARK    1  A    between atoms: N1_1  and  C1_2 
REMARK    2  A    between atoms: C12_13  and  C13_14 
REMARK    3  A    between atoms: C18_19  and  O1_20 
REMARK    4  A    between atoms: O1_20  and  O2_21 
ROOT
HETATM    1  C1  UNL     1      23.261   3.349  50.658  1.00  0.00     0.353 C 
HETATM    2  C2  UNL     1      24.731   3.444  50.248  1.00  0.00    -0.003 A 
HETATM    3  C3  UNL     1      25.342   4.225  49.409  1.00  0.00    -0.011 A 
HETATM    4  C4  UNL     1      26.725   3.759  49.530  1.00  0.00     0.067 A 
HETATM    5  C5  UNL     1      26.045   2.862  50.534  1.00  0.00    -0.045 A 
HETATM    6  C6  UNL     1      26.695   1.896  51.256  1.00  0.00     0.008 C 
HETATM    7  C7  UNL     1      26.457   0.787  52.225  1.00  0.00    -0.003 C 
HETATM    8  C8  UNL     1      25.631   0.018  52.954  1.00  0.00    -0.022 C 
HETATM    9  C9  UNL     1      24.272  -0.429  53.442  1.00  0.00     0.063 C 
HETATM   10  C10 UNL     1      23.175   0.271  52.702  1.00  0.00    -0.058 C 
HETATM   11  C11 UNL     1      21.890  -0.000  52.626  1.00  0.00     0.018 C 
HETATM   12  C12 UNL     1      21.047   0.561  51.578  1.00  0.00    -0.007 C 
HETATM   13  C19 UNL     1      21.616   1.365  50.696  1.00  0.00     0.100 C 
HETATM   14  N2  UNL     1      22.812   2.055  51.038  1.00  0.00    -0.352 N 
HETATM   15  C20 UNL     1      23.688   1.404  51.895  1.00  0.00     0.159 C 
ENDROOT
BRANCH  12  16
HETATM   16  C13 UNL     1      19.634   0.258  51.435  1.00  0.00     0.012 A 
HETATM   17  C14 UNL     1      18.986   0.676  50.300  1.00  0.00     0.015 A 
HETATM   18  C15 UNL     1      17.662   0.457  50.038  1.00  0.00     0.001 A 
HETATM   19  C16 UNL     1      16.835  -0.231  50.927  1.00  0.00     0.003 A 
HETATM   20  C17 UNL     1      17.516  -0.635  52.045  1.00  0.00     0.041 A 
HETATM   21  C18 UNL     1      18.832  -0.427  52.328  1.00  0.00     0.117 A 
BRANCH  21  22
HETATM   22  O1  UNL     1      19.369  -0.881  53.479  1.00  0.00    -0.199 OA
BRANCH  22  23
HETATM   23  O2  UNL     1      18.903  -1.973  54.086  1.00  0.00    -0.245 OA
HETATM   24  H17 UNL     1      18.754  -1.743  55.045  1.00  0.00     0.254 HD
ENDBRANCH  22  23
ENDBRANCH  21  22
ENDBRANCH  12  16
BRANCH   1  25
HETATM   25  N1  UNL     1      22.424   3.778  49.574  1.00  0.00     0.105 N 
HETATM   26  H1  UNL     1      21.401   3.700  49.835  1.00  0.00     0.316 HD
HETATM   27  H2  UNL     1      22.681   4.695  49.155  1.00  0.00     0.316 HD
ENDBRANCH   1  25
TORSDOF 4
ENDMDL
MODEL 8
REMARK VINA RESULT:      -8.2      2.756      5.972
REMARK  4 active torsions:
REMARK  status: ('A' for Active; 'I' for Inactive)
REMARK    1  A    between atoms: N1_1  and  C1_2 
REMARK    2  A    between atoms: C12_13  and  C13_14 
REMARK    3  A    between atoms: C18_19  and  O1_20 
REMARK    4  A    between atoms: O1_20  and  O2_21 
ROOT
HETATM    1  C1  UNL     1      23.005   0.279  52.306  1.00  0.00     0.353 C 
HETATM    2  C2  UNL     1      23.170  -0.399  53.665  1.00  0.00    -0.003 A 
HETATM    3  C3  UNL     1      22.329  -1.051  54.410  1.00  0.00    -0.011 A 
HETATM    4  C4  UNL     1      23.170  -1.414  55.553  1.00  0.00     0.067 A 
HETATM    5  C5  UNL     1      24.174  -0.688  54.693  1.00  0.00    -0.045 A 
HETATM    6  C6  UNL     1      25.480  -0.482  55.054  1.00  0.00     0.008 C 
HETATM    7  C7  UNL     1      26.731   0.203  54.617  1.00  0.00    -0.003 C 
HETATM    8  C8  UNL     1      27.404   0.990  53.762  1.00  0.00    -0.022 C 
HETATM    9  C9  UNL     1      27.529   1.868  52.537  1.00  0.00     0.063 C 
HETATM   10  C10 UNL     1      26.193   2.105  51.905  1.00  0.00    -0.058 C 
HETATM   11  C11 UNL     1      25.820   2.992  51.008  1.00  0.00     0.018 C 
HETATM   12  C12 UNL     1      24.416   3.314  50.783  1.00  0.00    -0.007 C 
HETATM   13  C19 UNL     1      23.515   2.678  51.512  1.00  0.00     0.100 C 
HETATM   14  N2  UNL     1      23.832   1.412  52.080  1.00  0.00    -0.352 N 
HETATM   15  C20 UNL     1      25.151   1.209  52.462  1.00  0.00     0.159 C 
ENDROOT
BRANCH  12  16
HETATM   16  C13 UNL     1      23.964   4.313  49.831  1.00  0.00     0.012 A 
HETATM   17  C14 UNL     1      23.203   3.904  48.765  1.00  0.00     0.015 A 
HETATM   18  C15 UNL     1      22.711   4.737  47.798  1.00  0.00     0.001 A 
HETATM   19  C16 UNL     1      22.948   6.112  47.816  1.00  0.00     0.003 A 
HETATM   20  C17 UNL     1      23.707   6.484  48.894  1.00  0.00     0.041 A 
HETATM   21  C18 UNL     1      24.207   5.673  49.867  1.00  0.00     0.117 A 
BRANCH  21  22
HETATM   22  O1  UNL     1      24.948   6.181  50.874  1.00  0.00    -0.199 OA
BRANCH  22  23
HETATM   23  O2  UNL     1      24.384   6.676  51.976  1.00  0.00    -0.245 OA
HETATM   24  H17 UNL     1      23.500   6.228  52.089  1.00  0.00     0.254 HD
ENDBRANCH  22  23
ENDBRANCH  21  22
ENDBRANCH  12  16
BRANCH   1  25
HETATM   25  N1  UNL     1      21.648   0.716  52.141  1.00  0.00     0.105 N 
HETATM   26  H1  UNL     1      20.987   0.114  52.707  1.00  0.00     0.316 HD
HETATM   27  H2  UNL     1      21.495   1.738  52.266  1.00  0.00     0.316 HD
ENDBRANCH   1  25
TORSDOF 4
ENDMDL
MODEL 9
REMARK VINA RESULT:      -8.2      3.500      6.075
REMARK  4 active torsions:
REMARK  status: ('A' for Active; 'I' for Inactive)
REMARK    1  A    between atoms: N1_1  and  C1_2 
REMARK    2  A    between atoms: C12_13  and  C13_14 
REMARK    3  A    between atoms: C18_19  and  O1_20 
REMARK    4  A    between atoms: O1_20  and  O2_21 
ROOT
HETATM    1  C1  UNL     1      23.955   5.211  51.399  1.00  0.00     0.353 C 
HETATM    2  C2  UNL     1      23.599   6.440  50.563  1.00  0.00    -0.003 A 
HETATM    3  C3  UNL     1      23.673   7.710  50.824  1.00  0.00    -0.011 A 
HETATM    4  C4  UNL     1      23.173   8.295  49.578  1.00  0.00     0.067 A 
HETATM    5  C5  UNL     1      23.106   6.827  49.238  1.00  0.00    -0.045 A 
HETATM    6  C6  UNL     1      22.641   6.341  48.044  1.00  0.00     0.008 C 
HETATM    7  C7  UNL     1      22.320   5.070  47.332  1.00  0.00    -0.003 C 
HETATM    8  C8  UNL     1      22.222   3.731  47.302  1.00  0.00    -0.022 C 
HETATM    9  C9  UNL     1      22.322   2.349  47.907  1.00  0.00     0.063 C 
HETATM   10  C10 UNL     1      22.622   2.422  49.372  1.00  0.00    -0.058 C 
HETATM   11  C11 UNL     1      22.535   1.501  50.307  1.00  0.00     0.018 C 
HETATM   12  C12 UNL     1      22.513   1.843  51.724  1.00  0.00    -0.007 C 
HETATM   13  C19 UNL     1      22.589   3.123  52.048  1.00  0.00     0.100 C 
HETATM   14  N2  UNL     1      23.180   4.047  51.142  1.00  0.00    -0.352 N 
HETATM   15  C20 UNL     1      23.016   3.790  49.788  1.00  0.00     0.159 C 
ENDROOT
BRANCH  12  16
HETATM   16  C13 UNL     1      22.380   0.862  52.786  1.00  0.00     0.012 A 
HETATM   17  C14 UNL     1      21.156   0.707  53.384  1.00  0.00     0.015 A 
HETATM   18  C15 UNL     1      20.892  -0.180  54.392  1.00  0.00     0.001 A 
HETATM   19  C16 UNL     1      21.874  -1.026  54.910  1.00  0.00     0.003 A 
HETATM   20  C17 UNL     1      23.080  -0.845  54.286  1.00  0.00     0.041 A 
HETATM   21  C18 UNL     1      23.366   0.031  53.283  1.00  0.00     0.117 A 
BRANCH  21  22
HETATM   22  O1  UNL     1      24.609   0.103  52.766  1.00  0.00    -0.199 OA
BRANCH  22  23
HETATM   23  O2  UNL     1      25.600  -0.670  53.213  1.00  0.00    -0.245 OA
HETATM   24  H17 UNL     1      26.166  -0.916  52.429  1.00  0.00     0.254 HD
ENDBRANCH  22  23
ENDBRANCH  21  22
ENDBRANCH  12  16
BRANCH   1  25
HETATM   25  N1  UNL     1      23.805   5.510  52.794  1.00  0.00     0.105 N 
HETATM   26  H1  UNL     1      24.248   6.442  53.030  1.00  0.00     0.316 HD
HETATM   27  H2  UNL     1      22.839   5.400  53.168  1.00  0.00     0.316 HD
ENDBRANCH   1  25
TORSDOF 4
ENDMDL
