MODEL 1
REMARK VINA RESULT:      -7.4      0.000      0.000
REMARK  4 active torsions:
REMARK  status: ('A' for Active; 'I' for Inactive)
REMARK    1  A    between atoms: C2_2  and  C3_4 
REMARK    2  A    between atoms: C4_5  and  C5_6 
REMARK    3  A    between atoms: C6_7  and  N1_8 
REMARK    4  A    between atoms: N1_8  and  C7_9 
ROOT
HETATM    1  C7  UNL     1      23.523   2.936  52.229  1.00  0.00     0.045 A 
HETATM    2  C8  UNL     1      23.545   1.728  52.770  1.00  0.00     0.121 A 
HETATM    3  N2  UNL     1      22.292   1.074  52.946  1.00  0.00    -0.319 N 
HETATM    4  C9  UNL     1      22.456  -0.210  53.534  1.00  0.00     0.136 C 
HETATM    5  C10 UNL     1      21.384  -0.668  54.462  1.00  0.00     0.062 C 
HETATM    6  C11 UNL     1      20.076  -0.861  53.752  1.00  0.00    -0.019 A 
HETATM    7  C12 UNL     1      19.103  -1.756  53.560  1.00  0.00     0.036 A 
HETATM    8  C13 UNL     1      18.374  -0.822  52.697  1.00  0.00     0.069 A 
HETATM    9 CL1  UNL     1      16.883  -0.792  51.776  1.00  0.00    -0.081 Cl
HETATM   10  C14 UNL     1      19.356   0.074  52.894  1.00  0.00     0.107 A 
HETATM   11  O1  UNL     1      19.805   1.373  52.585  1.00  0.00    -0.276 OA
HETATM   12  C15 UNL     1      21.146   1.800  52.517  1.00  0.00     0.249 A 
HETATM   13  N3  UNL     1      21.111   2.976  51.990  1.00  0.00    -0.244 NA
HETATM   14  C16 UNL     1      22.339   3.710  51.776  1.00  0.00     0.211 A 
ENDROOT
BRANCH   1  15
HETATM   15  N1  UNL     1      24.794   3.581  52.058  1.00  0.00    -0.367 N 
HETATM   16  H7  UNL     1      25.080   4.225  52.825  1.00  0.00     0.165 HD
BRANCH  15  17
HETATM   17  C6  UNL     1      25.549   3.301  50.885  1.00  0.00     0.088 C 
HETATM   18  C5  UNL     1      26.656   2.594  50.942  1.00  0.00     0.017 C 
BRANCH  18  19
HETATM   19  C4  UNL     1      27.154   2.068  52.207  1.00  0.00     0.003 C 
HETATM   20  C3  UNL     1      27.143   0.769  52.482  1.00  0.00     0.018 C 
BRANCH  20  21
HETATM   21  C2  UNL     1      27.625   0.179  53.725  1.00  0.00     0.001 C 
HETATM   22  C1  UNL     1      26.857   0.174  54.824  1.00  0.00     0.032 C 
HETATM   23 BR1  UNL     1      29.369  -0.586  53.760  1.00  0.00    -0.052 Br
ENDBRANCH  20  21
ENDBRANCH  18  19
ENDBRANCH  15  17
ENDBRANCH   1  15
TORSDOF 4
ENDMDL
MODEL 2
REMARK VINA RESULT:      -7.3      3.654      4.851
REMARK  4 active torsions:
REMARK  status: ('A' for Active; 'I' for Inactive)
REMARK    1  A    between atoms: C2_2  and  C3_4 
REMARK    2  A    between atoms: C4_5  and  C5_6 
REMARK    3  A    between atoms: C6_7  and  N1_8 
REMARK    4  A    between atoms: N1_8  and  C7_9 
ROOT
HETATM    1  C7  UNL     1      25.908   3.570  50.467  1.00  0.00     0.045 A 
HETATM    2  C8  UNL     1      26.184   2.411  51.046  1.00  0.00     0.121 A 
HETATM    3  N2  UNL     1      25.125   1.770  51.749  1.00  0.00    -0.319 N 
HETATM    4  C9  UNL     1      25.553   0.541  52.322  1.00  0.00     0.136 C 
HETATM    5  C10 UNL     1      24.947   0.158  53.628  1.00  0.00     0.062 C 
HETATM    6  C11 UNL     1      23.474  -0.100  53.506  1.00  0.00    -0.019 A 
HETATM    7  C12 UNL     1      22.537  -1.012  53.780  1.00  0.00     0.036 A 
HETATM    8  C13 UNL     1      21.494  -0.157  53.204  1.00  0.00     0.069 A 
HETATM    9 CL1  UNL     1      19.762  -0.212  52.942  1.00  0.00    -0.081 Cl
HETATM   10  C14 UNL     1      22.442   0.756  52.931  1.00  0.00     0.107 A 
HETATM   11  O1  UNL     1      22.685   2.026  52.372  1.00  0.00    -0.276 OA
HETATM   12  C15 UNL     1      23.876   2.452  51.751  1.00  0.00     0.249 A 
HETATM   13  N3  UNL     1      23.594   3.579  51.191  1.00  0.00    -0.244 NA
HETATM   14  C16 UNL     1      24.613   4.297  50.457  1.00  0.00     0.211 A 
ENDROOT
BRANCH   1  15
HETATM   15  N1  UNL     1      26.986   4.203  49.762  1.00  0.00    -0.367 N 
HETATM   16  H7  UNL     1      27.919   3.756  49.870  1.00  0.00     0.165 HD
BRANCH  15  17
HETATM   17  C6  UNL     1      26.707   5.364  48.988  1.00  0.00     0.088 C 
HETATM   18  C5  UNL     1      27.650   5.961  48.294  1.00  0.00     0.017 C 
BRANCH  18  19
HETATM   19  C4  UNL     1      29.019   5.460  48.289  1.00  0.00     0.003 C 
HETATM   20  C3  UNL     1      30.066   6.273  48.370  1.00  0.00     0.018 C 
BRANCH  20  21
HETATM   21  C2  UNL     1      31.457   5.837  48.370  1.00  0.00     0.001 C 
HETATM   22  C1  UNL     1      32.378   6.483  49.100  1.00  0.00     0.032 C 
HETATM   23 BR1  UNL     1      31.945   4.329  47.312  1.00  0.00    -0.052 Br
ENDBRANCH  20  21
ENDBRANCH  18  19
ENDBRANCH  15  17
ENDBRANCH   1  15
TORSDOF 4
ENDMDL
MODEL 3
REMARK VINA RESULT:      -7.3      3.504      4.702
REMARK  4 active torsions:
REMARK  status: ('A' for Active; 'I' for Inactive)
REMARK    1  A    between atoms: C2_2  and  C3_4 
REMARK    2  A    between atoms: C4_5  and  C5_6 
REMARK    3  A    between atoms: C6_7  and  N1_8 
REMARK    4  A    between atoms: N1_8  and  C7_9 
ROOT
HETATM    1  C7  UNL     1      24.693   3.454  51.423  1.00  0.00     0.045 A 
HETATM    2  C8  UNL     1      25.046   2.251  51.848  1.00  0.00     0.121 A 
HETATM    3  N2  UNL     1      24.034   1.458  52.461  1.00  0.00    -0.319 N 
HETATM    4  C9  UNL     1      24.543   0.195  52.871  1.00  0.00     0.136 C 
HETATM    5  C10 UNL     1      23.971  -0.390  54.116  1.00  0.00     0.062 C 
HETATM    6  C11 UNL     1      22.516  -0.723  53.960  1.00  0.00    -0.019 A 
HETATM    7  C12 UNL     1      21.641  -1.720  54.113  1.00  0.00     0.036 A 
HETATM    8  C13 UNL     1      20.542  -0.866  53.650  1.00  0.00     0.069 A 
HETATM    9 CL1  UNL     1      18.815  -0.996  53.382  1.00  0.00    -0.081 Cl
HETATM   10  C14 UNL     1      21.428   0.133  53.499  1.00  0.00     0.107 A 
HETATM   11  O1  UNL     1      21.588   1.477  53.109  1.00  0.00    -0.276 OA
HETATM   12  C15 UNL     1      22.745   2.054  52.549  1.00  0.00     0.249 A 
HETATM   13  N3  UNL     1      22.389   3.224  52.140  1.00  0.00    -0.244 NA
HETATM   14  C16 UNL     1      23.355   4.093  51.505  1.00  0.00     0.211 A 
ENDROOT
BRANCH   1  15
HETATM   15  N1  UNL     1      25.725   4.240  50.807  1.00  0.00    -0.367 N 
HETATM   16  H7  UNL     1      25.729   5.251  51.055  1.00  0.00     0.165 HD
BRANCH  15  17
HETATM   17  C6  UNL     1      26.639   3.597  49.927  1.00  0.00     0.088 C 
HETATM   18  C5  UNL     1      27.208   4.253  48.940  1.00  0.00     0.017 C 
BRANCH  18  19
HETATM   19  C4  UNL     1      26.926   5.664  48.707  1.00  0.00     0.003 C 
HETATM   20  C3  UNL     1      27.858   6.506  48.276  1.00  0.00     0.018 C 
BRANCH  20  21
HETATM   21  C2  UNL     1      27.642   7.926  48.024  1.00  0.00     0.001 C 
HETATM   22  C1  UNL     1      27.044   8.338  46.897  1.00  0.00     0.032 C 
HETATM   23 BR1  UNL     1      28.226   9.187  49.327  1.00  0.00    -0.052 Br
ENDBRANCH  20  21
ENDBRANCH  18  19
ENDBRANCH  15  17
ENDBRANCH   1  15
TORSDOF 4
ENDMDL
MODEL 4
REMARK VINA RESULT:      -7.2      4.253      7.292
REMARK  4 active torsions:
REMARK  status: ('A' for Active; 'I' for Inactive)
REMARK    1  A    between atoms: C2_2  and  C3_4 
REMARK    2  A    between atoms: C4_5  and  C5_6 
REMARK    3  A    between atoms: C6_7  and  N1_8 
REMARK    4  A    between atoms: N1_8  and  C7_9 
ROOT
HETATM    1  C7  UNL     1      23.528   0.707  53.073  1.00  0.00     0.045 A 
HETATM    2  C8  UNL     1      24.532   1.471  52.672  1.00  0.00     0.121 A 
HETATM    3  N2  UNL     1      25.843   1.075  53.061  1.00  0.00    -0.319 N 
HETATM    4  C9  UNL     1      26.825   1.977  52.567  1.00  0.00     0.136 C 
HETATM    5  C10 UNL     1      28.018   2.213  53.428  1.00  0.00     0.062 C 
HETATM    6  C11 UNL     1      28.847   0.972  53.586  1.00  0.00    -0.019 A 
HETATM    7  C12 UNL     1      30.097   0.516  53.460  1.00  0.00     0.036 A 
HETATM    8  C13 UNL     1      29.681  -0.825  53.883  1.00  0.00     0.069 A 
HETATM    9 CL1  UNL     1      30.415  -2.395  54.142  1.00  0.00    -0.081 Cl
HETATM   10  C14 UNL     1      28.426  -0.359  54.007  1.00  0.00     0.107 A 
HETATM   11  O1  UNL     1      27.103  -0.702  54.350  1.00  0.00    -0.276 OA
HETATM   12  C15 UNL     1      25.929  -0.109  53.846  1.00  0.00     0.249 A 
HETATM   13  N3  UNL     1      24.960  -0.862  54.243  1.00  0.00    -0.244 NA
HETATM   14  C16 UNL     1      23.596  -0.531  53.891  1.00  0.00     0.211 A 
ENDROOT
BRANCH   1  15
HETATM   15  N1  UNL     1      22.213   1.120  52.673  1.00  0.00    -0.367 N 
HETATM   16  H7  UNL     1      21.799   1.900  53.223  1.00  0.00     0.165 HD
BRANCH  15  17
HETATM   17  C6  UNL     1      21.590   0.451  51.583  1.00  0.00     0.088 C 
HETATM   18  C5  UNL     1      21.508   1.013  50.397  1.00  0.00     0.017 C 
BRANCH  18  19
HETATM   19  C4  UNL     1      22.051   2.343  50.151  1.00  0.00     0.003 C 
HETATM   20  C3  UNL     1      23.045   2.549  49.294  1.00  0.00     0.018 C 
BRANCH  20  21
HETATM   21  C2  UNL     1      23.633   3.851  49.003  1.00  0.00     0.001 C 
HETATM   22  C1  UNL     1      22.977   4.747  48.252  1.00  0.00     0.032 C 
HETATM   23 BR1  UNL     1      25.355   4.257  49.710  1.00  0.00    -0.052 Br
ENDBRANCH  20  21
ENDBRANCH  18  19
ENDBRANCH  15  17
ENDBRANCH   1  15
TORSDOF 4
ENDMDL
MODEL 5
REMARK VINA RESULT:      -7.1      4.837      8.428
REMARK  4 active torsions:
REMARK  status: ('A' for Active; 'I' for Inactive)
REMARK    1  A    between atoms: C2_2  and  C3_4 
REMARK    2  A    between atoms: C4_5  and  C5_6 
REMARK    3  A    between atoms: C6_7  and  N1_8 
REMARK    4  A    between atoms: N1_8  and  C7_9 
ROOT
HETATM    1  C7  UNL     1      20.769  -0.723  53.840  1.00  0.00     0.045 A 
HETATM    2  C8  UNL     1      21.234   0.030  52.854  1.00  0.00     0.121 A 
HETATM    3  N2  UNL     1      22.642   0.232  52.802  1.00  0.00    -0.319 N 
HETATM    4  C9  UNL     1      23.007   1.055  51.701  1.00  0.00     0.136 C 
HETATM    5  C10 UNL     1      24.165   1.971  51.899  1.00  0.00     0.062 C 
HETATM    6  C11 UNL     1      25.445   1.217  52.107  1.00  0.00    -0.019 A 
HETATM    7  C12 UNL     1      26.699   1.122  51.655  1.00  0.00     0.036 A 
HETATM    8  C13 UNL     1      26.995   0.052  52.614  1.00  0.00     0.069 A 
HETATM    9 CL1  UNL     1      28.354  -0.963  53.052  1.00  0.00    -0.081 Cl
HETATM   10  C14 UNL     1      25.733   0.153  53.063  1.00  0.00     0.107 A 
HETATM   11  O1  UNL     1      24.799  -0.356  53.989  1.00  0.00    -0.276 OA
HETATM   12  C15 UNL     1      23.401  -0.403  53.825  1.00  0.00     0.249 A 
HETATM   13  N3  UNL     1      22.962  -1.138  54.789  1.00  0.00    -0.244 NA
HETATM   14  C16 UNL     1      21.543  -1.394  54.916  1.00  0.00     0.211 A 
ENDROOT
BRANCH   1  15
HETATM   15  N1  UNL     1      19.348  -0.917  53.879  1.00  0.00    -0.367 N 
HETATM   16  H7  UNL     1      18.984  -1.414  54.718  1.00  0.00     0.165 HD
BRANCH  15  17
HETATM   17  C6  UNL     1      18.563  -0.429  52.797  1.00  0.00     0.088 C 
HETATM   18  C5  UNL     1      17.525  -1.104  52.352  1.00  0.00     0.017 C 
BRANCH  18  19
HETATM   19  C4  UNL     1      17.137  -2.376  52.948  1.00  0.00     0.003 C 
HETATM   20  C3  UNL     1      15.982  -2.965  52.659  1.00  0.00     0.018 C 
BRANCH  20  21
HETATM   21  C2  UNL     1      15.535  -4.234  53.219  1.00  0.00     0.001 C 
HETATM   22  C1  UNL     1      16.295  -4.902  54.098  1.00  0.00     0.032 C 
HETATM   23 BR1  UNL     1      13.845  -4.930  52.677  1.00  0.00    -0.052 Br
ENDBRANCH  20  21
ENDBRANCH  18  19
ENDBRANCH  15  17
ENDBRANCH   1  15
TORSDOF 4
ENDMDL
MODEL 6
REMARK VINA RESULT:      -7.1      4.026      5.457
REMARK  4 active torsions:
REMARK  status: ('A' for Active; 'I' for Inactive)
REMARK    1  A    between atoms: C2_2  and  C3_4 
REMARK    2  A    between atoms: C4_5  and  C5_6 
REMARK    3  A    between atoms: C6_7  and  N1_8 
REMARK    4  A    between atoms: N1_8  and  C7_9 
ROOT
HETATM    1  C7  UNL     1      26.083   3.269  50.354  1.00  0.00     0.045 A 
HETATM    2  C8  UNL     1      24.831   3.237  49.923  1.00  0.00     0.121 A 
HETATM    3  N2  UNL     1      23.944   2.335  50.576  1.00  0.00    -0.319 N 
HETATM    4  C9  UNL     1      22.637   2.398  50.019  1.00  0.00     0.136 C 
HETATM    5  C10 UNL     1      21.861   1.127  49.974  1.00  0.00     0.062 C 
HETATM    6  C11 UNL     1      21.543   0.618  51.349  1.00  0.00    -0.019 A 
HETATM    7  C12 UNL     1      20.527   0.208  52.113  1.00  0.00     0.036 A 
HETATM    8  C13 UNL     1      21.433  -0.033  53.241  1.00  0.00     0.069 A 
HETATM    9 CL1  UNL     1      21.330  -0.603  54.894  1.00  0.00    -0.081 Cl
HETATM   10  C14 UNL     1      22.451   0.380  52.467  1.00  0.00     0.107 A 
HETATM   11  O1  UNL     1      23.841   0.605  52.422  1.00  0.00    -0.276 OA
HETATM   12  C15 UNL     1      24.508   1.561  51.629  1.00  0.00     0.249 A 
HETATM   13  N3  UNL     1      25.723   1.582  52.058  1.00  0.00    -0.244 NA
HETATM   14  C16 UNL     1      26.689   2.471  51.450  1.00  0.00     0.211 A 
ENDROOT
BRANCH   1  15
HETATM   15  N1  UNL     1      26.964   4.184  49.685  1.00  0.00    -0.367 N 
HETATM   16  H7  UNL     1      27.972   3.927  49.695  1.00  0.00     0.165 HD
BRANCH  15  17
HETATM   17  C6  UNL     1      26.409   5.343  49.076  1.00  0.00     0.088 C 
HETATM   18  C5  UNL     1      27.162   6.180  48.395  1.00  0.00     0.017 C 
BRANCH  18  19
HETATM   19  C4  UNL     1      28.593   5.954  48.237  1.00  0.00     0.003 C 
HETATM   20  C3  UNL     1      29.398   6.877  47.725  1.00  0.00     0.018 C 
BRANCH  20  21
HETATM   21  C2  UNL     1      30.835   6.715  47.540  1.00  0.00     0.001 C 
HETATM   22  C1  UNL     1      31.425   7.078  46.393  1.00  0.00     0.032 C 
HETATM   23 BR1  UNL     1      31.864   5.974  48.964  1.00  0.00    -0.052 Br
ENDBRANCH  20  21
ENDBRANCH  18  19
ENDBRANCH  15  17
ENDBRANCH   1  15
TORSDOF 4
ENDMDL
MODEL 7
REMARK VINA RESULT:      -6.9      4.936      7.002
REMARK  4 active torsions:
REMARK  status: ('A' for Active; 'I' for Inactive)
REMARK    1  A    between atoms: C2_2  and  C3_4 
REMARK    2  A    between atoms: C4_5  and  C5_6 
REMARK    3  A    between atoms: C6_7  and  N1_8 
REMARK    4  A    between atoms: N1_8  and  C7_9 
ROOT
HETATM    1  C7  UNL     1      24.683   4.714  50.308  1.00  0.00     0.045 A 
HETATM    2  C8  UNL     1      24.127   4.011  51.282  1.00  0.00     0.121 A 
HETATM    3  N2  UNL     1      24.866   2.902  51.783  1.00  0.00    -0.319 N 
HETATM    4  C9  UNL     1      24.159   2.234  52.821  1.00  0.00     0.136 C 
HETATM    5  C10 UNL     1      24.325   0.756  52.907  1.00  0.00     0.062 C 
HETATM    6  C11 UNL     1      25.734   0.372  53.251  1.00  0.00    -0.019 A 
HETATM    7  C12 UNL     1      26.448  -0.360  54.111  1.00  0.00     0.036 A 
HETATM    8  C13 UNL     1      27.700   0.046  53.464  1.00  0.00     0.069 A 
HETATM    9 CL1  UNL     1      29.417  -0.243  53.655  1.00  0.00    -0.081 Cl
HETATM   10  C14 UNL     1      26.976   0.780  52.602  1.00  0.00     0.107 A 
HETATM   11  O1  UNL     1      27.044   1.645  51.492  1.00  0.00    -0.276 OA
HETATM   12  C15 UNL     1      26.132   2.671  51.175  1.00  0.00     0.249 A 
HETATM   13  N3  UNL     1      26.685   3.348  50.227  1.00  0.00    -0.244 NA
HETATM   14  C16 UNL     1      26.001   4.491  49.661  1.00  0.00     0.211 A 
ENDROOT
BRANCH   1  15
HETATM   15  N1  UNL     1      23.926   5.829  49.814  1.00  0.00    -0.367 N 
HETATM   16  H7  UNL     1      23.646   5.775  48.813  1.00  0.00     0.165 HD
BRANCH  15  17
HETATM   17  C6  UNL     1      23.622   6.896  50.705  1.00  0.00     0.088 C 
HETATM   18  C5  UNL     1      24.284   8.031  50.657  1.00  0.00     0.017 C 
BRANCH  18  19
HETATM   19  C4  UNL     1      25.355   8.242  49.691  1.00  0.00     0.003 C 
HETATM   20  C3  UNL     1      26.617   8.418  50.067  1.00  0.00     0.018 C 
BRANCH  20  21
HETATM   21  C2  UNL     1      27.732   8.634  49.154  1.00  0.00     0.001 C 
HETATM   22  C1  UNL     1      28.742   9.450  49.487  1.00  0.00     0.032 C 
HETATM   23 BR1  UNL     1      27.729   7.734  47.474  1.00  0.00    -0.052 Br
ENDBRANCH  20  21
ENDBRANCH  18  19
ENDBRANCH  15  17
ENDBRANCH   1  15
TORSDOF 4
ENDMDL
MODEL 8
REMARK VINA RESULT:      -6.8      4.604      6.260
REMARK  4 active torsions:
REMARK  status: ('A' for Active; 'I' for Inactive)
REMARK    1  A    between atoms: C2_2  and  C3_4 
REMARK    2  A    between atoms: C4_5  and  C5_6 
REMARK    3  A    between atoms: C6_7  and  N1_8 
REMARK    4  A    between atoms: N1_8  and  C7_9 
ROOT
HETATM    1  C7  UNL     1      25.918   4.652  49.928  1.00  0.00     0.045 A 
HETATM    2  C8  UNL     1      26.492   3.500  50.241  1.00  0.00     0.121 A 
HETATM    3  N2  UNL     1      25.803   2.665  51.166  1.00  0.00    -0.319 N 
HETATM    4  C9  UNL     1      26.523   1.464  51.416  1.00  0.00     0.136 C 
HETATM    5  C10 UNL     1      26.435   0.899  52.792  1.00  0.00     0.062 C 
HETATM    6  C11 UNL     1      25.042   0.452  53.124  1.00  0.00    -0.019 A 
HETATM    7  C12 UNL     1      24.351  -0.599  53.575  1.00  0.00     0.036 A 
HETATM    8  C13 UNL     1      23.093   0.148  53.476  1.00  0.00     0.069 A 
HETATM    9 CL1  UNL     1      21.390  -0.124  53.786  1.00  0.00    -0.081 Cl
HETATM   10  C14 UNL     1      23.794   1.201  53.023  1.00  0.00     0.107 A 
HETATM   11  O1  UNL     1      23.703   2.533  52.573  1.00  0.00    -0.276 OA
HETATM   12  C15 UNL     1      24.565   3.167  51.656  1.00  0.00     0.249 A 
HETATM   13  N3  UNL     1      23.996   4.286  51.359  1.00  0.00    -0.244 NA
HETATM   14  C16 UNL     1      24.628   5.193  50.426  1.00  0.00     0.211 A 
ENDROOT
BRANCH   1  15
HETATM   15  N1  UNL     1      26.625   5.482  48.993  1.00  0.00    -0.367 N 
HETATM   16  H7  UNL     1      26.132   6.350  48.700  1.00  0.00     0.165 HD
BRANCH  15  17
HETATM   17  C6  UNL     1      27.911   5.067  48.549  1.00  0.00     0.088 C 
HETATM   18  C5  UNL     1      28.821   5.945  48.188  1.00  0.00     0.017 C 
BRANCH  18  19
HETATM   19  C4  UNL     1      28.550   7.376  48.230  1.00  0.00     0.003 C 
HETATM   20  C3  UNL     1      29.381   8.233  48.814  1.00  0.00     0.018 C 
BRANCH  20  21
HETATM   21  C2  UNL     1      29.170   9.673  48.890  1.00  0.00     0.001 C 
HETATM   22  C1  UNL     1      27.933  10.180  48.992  1.00  0.00     0.032 C 
HETATM   23 BR1  UNL     1      30.686  10.825  48.842  1.00  0.00    -0.052 Br
ENDBRANCH  20  21
ENDBRANCH  18  19
ENDBRANCH  15  17
ENDBRANCH   1  15
TORSDOF 4
ENDMDL
MODEL 9
REMARK VINA RESULT:      -6.6      5.032      7.453
REMARK  4 active torsions:
REMARK  status: ('A' for Active; 'I' for Inactive)
REMARK    1  A    between atoms: C2_2  and  C3_4 
REMARK    2  A    between atoms: C4_5  and  C5_6 
REMARK    3  A    between atoms: C6_7  and  N1_8 
REMARK    4  A    between atoms: N1_8  and  C7_9 
ROOT
HETATM    1  C7  UNL     1      24.980   4.641  50.174  1.00  0.00     0.045 A 
HETATM    2  C8  UNL     1      24.293   3.998  51.106  1.00  0.00     0.121 A 
HETATM    3  N2  UNL     1      24.870   2.806  51.629  1.00  0.00    -0.319 N 
HETATM    4  C9  UNL     1      24.034   2.216  52.617  1.00  0.00     0.136 C 
HETATM    5  C10 UNL     1      24.024   0.728  52.690  1.00  0.00     0.062 C 
HETATM    6  C11 UNL     1      25.358   0.180  53.104  1.00  0.00    -0.019 A 
HETATM    7  C12 UNL     1      25.934  -0.637  53.991  1.00  0.00     0.036 A 
HETATM    8  C13 UNL     1      27.258  -0.373  53.419  1.00  0.00     0.069 A 
HETATM    9 CL1  UNL     1      28.918  -0.861  53.699  1.00  0.00    -0.081 Cl
HETATM   10  C14 UNL     1      26.673   0.448  52.530  1.00  0.00     0.107 A 
HETATM   11  O1  UNL     1      26.902   1.309  51.439  1.00  0.00    -0.276 OA
HETATM   12  C15 UNL     1      26.133   2.436  51.088  1.00  0.00     0.249 A 
HETATM   13  N3  UNL     1      26.812   3.053  50.182  1.00  0.00    -0.244 NA
HETATM   14  C16 UNL     1      26.298   4.272  49.597  1.00  0.00     0.211 A 
ENDROOT
BRANCH   1  15
HETATM   15  N1  UNL     1      24.384   5.841  49.657  1.00  0.00    -0.367 N 
HETATM   16  H7  UNL     1      23.644   5.702  48.939  1.00  0.00     0.165 HD
BRANCH  15  17
HETATM   17  C6  UNL     1      24.838   7.095  50.150  1.00  0.00     0.088 C 
HETATM   18  C5  UNL     1      23.991   8.003  50.581  1.00  0.00     0.017 C 
BRANCH  18  19
HETATM   19  C4  UNL     1      22.553   7.762  50.572  1.00  0.00     0.003 C 
HETATM   20  C3  UNL     1      21.732   8.437  49.775  1.00  0.00     0.018 C 
BRANCH  20  21
HETATM   21  C2  UNL     1      20.288   8.245  49.717  1.00  0.00     0.001 C 
HETATM   22  C1  UNL     1      19.450   9.251  50.002  1.00  0.00     0.032 C 
HETATM   23 BR1  UNL     1      19.611   6.532  49.228  1.00  0.00    -0.052 Br
ENDBRANCH  20  21
ENDBRANCH  18  19
ENDBRANCH  15  17
ENDBRANCH   1  15
TORSDOF 4
ENDMDL
