MODEL 1
REMARK VINA RESULT:      -7.6      0.000      0.000
REMARK  6 active torsions:
REMARK  status: ('A' for Active; 'I' for Inactive)
REMARK    1  A    between atoms: C2_2  and  O1_4 
REMARK    2  A    between atoms: O1_4  and  C4_5 
REMARK    3  A    between atoms: C12_15  and  C13_16 
REMARK    4  A    between atoms: C14_17  and  P1_18 
REMARK    5  A    between atoms: P1_18  and  C15_19 
REMARK    6  A    between atoms: C18_22  and  N1_23 
ROOT
HETATM    1  C4  UNL     1      26.336  -0.373  52.777  1.00  0.00     0.108 A 
HETATM    2  C5  UNL     1      25.369  -0.982  53.556  1.00  0.00     0.072 A 
HETATM    3  C6  UNL     1      24.061  -0.533  53.596  1.00  0.00     0.071 A 
HETATM    4  C7  UNL     1      23.686   0.575  52.827  1.00  0.00     0.022 A 
HETATM    5  C8  UNL     1      24.652   1.191  52.042  1.00  0.00     0.114 A 
HETATM    6  C9  UNL     1      25.957   0.733  52.011  1.00  0.00     0.136 A 
HETATM    7  O2  UNL     1      26.795   1.460  51.176  1.00  0.00    -0.344 OA
HETATM    8  C10 UNL     1      26.680   2.874  51.040  1.00  0.00     0.202 C 
HETATM    9  C11 UNL     1      25.264   3.333  50.965  1.00  0.00     0.202 C 
HETATM   10  O3  UNL     1      24.332   2.305  51.251  1.00  0.00    -0.345 OA
HETATM   11  C12 UNL     1      22.233   0.846  53.053  1.00  0.00     0.116 A 
HETATM   12  C18 UNL     1      21.895  -0.235  54.018  1.00  0.00     0.112 A 
HETATM   13  N2  UNL     1      22.906  -0.995  54.318  1.00  0.00    -0.234 NA
ENDROOT
BRANCH  11  14
HETATM   14  C13 UNL     1      21.421   0.604  51.818  1.00  0.00    -0.009 C 
HETATM   15  C14 UNL     1      20.831   1.643  51.236  1.00  0.00     0.005 C 
BRANCH  15  16
HETATM   16  P1  UNL     1      19.796   1.629  49.738  1.00  0.00    -0.081 P 
HETATM   17  H14 UNL     1      18.616   2.459  49.988  1.00  0.00     0.066 HD
BRANCH  16  18
HETATM   18  C15 UNL     1      20.718   2.258  48.277  1.00  0.00    -0.077 C 
HETATM   19  C16 UNL     1      21.849   1.549  48.287  1.00  0.00     0.039 C 
HETATM   20  C17 UNL     1      20.583   3.241  47.181  1.00  0.00     0.044 C 
ENDBRANCH  16  18
ENDBRANCH  15  16
ENDBRANCH  11  14
BRANCH  12  21
HETATM   21  N1  UNL     1      20.583  -0.411  54.558  1.00  0.00    -0.382 N 
HETATM   22  C19 UNL     1      19.672  -1.399  53.984  1.00  0.00     0.147 C 
HETATM   23  H20 UNL     1      20.219   0.133  55.357  1.00  0.00     0.160 HD
ENDBRANCH  12  21
BRANCH   1  24
HETATM   24  O1  UNL     1      27.653  -0.767  52.691  1.00  0.00    -0.334 OA
BRANCH  24  25
HETATM   25  C2  UNL     1      28.581  -0.401  53.661  1.00  0.00     0.095 C 
HETATM   26  C1  UNL     1      29.834  -0.801  53.565  1.00  0.00     0.044 C 
HETATM   27  C3  UNL     1      28.395   0.426  54.881  1.00  0.00     0.050 C 
ENDBRANCH  24  25
ENDBRANCH   1  24
TORSDOF 6
ENDMDL
MODEL 2
REMARK VINA RESULT:      -7.4      3.202      5.740
REMARK  6 active torsions:
REMARK  status: ('A' for Active; 'I' for Inactive)
REMARK    1  A    between atoms: C2_2  and  O1_4 
REMARK    2  A    between atoms: O1_4  and  C4_5 
REMARK    3  A    between atoms: C12_15  and  C13_16 
REMARK    4  A    between atoms: C14_17  and  P1_18 
REMARK    5  A    between atoms: P1_18  and  C15_19 
REMARK    6  A    between atoms: C18_22  and  N1_23 
ROOT
HETATM    1  C4  UNL     1      25.672   4.255  49.853  1.00  0.00     0.108 A 
HETATM    2  C5  UNL     1      26.640   3.365  50.281  1.00  0.00     0.072 A 
HETATM    3  C6  UNL     1      26.437   2.508  51.349  1.00  0.00     0.071 A 
HETATM    4  C7  UNL     1      25.214   2.532  52.031  1.00  0.00     0.022 A 
HETATM    5  C8  UNL     1      24.238   3.424  51.607  1.00  0.00     0.114 A 
HETATM    6  C9  UNL     1      24.454   4.275  50.538  1.00  0.00     0.136 A 
HETATM    7  O2  UNL     1      23.377   5.101  50.244  1.00  0.00    -0.344 OA
HETATM    8  C10 UNL     1      22.556   5.661  51.266  1.00  0.00     0.202 C 
HETATM    9  C11 UNL     1      22.247   4.688  52.353  1.00  0.00     0.202 C 
HETATM   10  O3  UNL     1      22.995   3.490  52.254  1.00  0.00    -0.345 OA
HETATM   11  C12 UNL     1      25.259   1.518  53.130  1.00  0.00     0.116 A 
HETATM   12  C18 UNL     1      26.630   0.968  52.946  1.00  0.00     0.112 A 
HETATM   13  N2  UNL     1      27.279   1.517  51.962  1.00  0.00    -0.234 NA
ENDROOT
BRANCH  11  14
HETATM   14  C13 UNL     1      24.298   0.394  52.893  1.00  0.00    -0.009 C 
HETATM   15  C14 UNL     1      23.306   0.217  53.760  1.00  0.00     0.005 C 
BRANCH  15  16
HETATM   16  P1  UNL     1      22.011  -1.061  53.709  1.00  0.00    -0.081 P 
HETATM   17  H14 UNL     1      22.000  -1.754  54.999  1.00  0.00     0.066 HD
BRANCH  16  18
HETATM   18  C15 UNL     1      20.358  -0.331  53.366  1.00  0.00    -0.077 C 
HETATM   19  C16 UNL     1      20.583   0.985  53.386  1.00  0.00     0.039 C 
HETATM   20  C17 UNL     1      18.964  -0.742  53.095  1.00  0.00     0.044 C 
ENDBRANCH  16  18
ENDBRANCH  15  16
ENDBRANCH  11  14
BRANCH  12  21
HETATM   21  N1  UNL     1      27.171  -0.062  53.776  1.00  0.00    -0.382 N 
HETATM   22  C19 UNL     1      28.315   0.209  54.643  1.00  0.00     0.147 C 
HETATM   23  H20 UNL     1      26.795  -1.024  53.807  1.00  0.00     0.160 HD
ENDBRANCH  12  21
BRANCH   1  24
HETATM   24  O1  UNL     1      25.808   5.133  48.801  1.00  0.00    -0.334 OA
BRANCH  24  25
HETATM   25  C2  UNL     1      26.811   6.097  48.790  1.00  0.00     0.095 C 
HETATM   26  C1  UNL     1      26.581   7.301  49.278  1.00  0.00     0.044 C 
HETATM   27  C3  UNL     1      28.206   6.002  48.286  1.00  0.00     0.050 C 
ENDBRANCH  24  25
ENDBRANCH   1  24
TORSDOF 6
ENDMDL
MODEL 3
REMARK VINA RESULT:      -7.4      1.275      1.564
REMARK  6 active torsions:
REMARK  status: ('A' for Active; 'I' for Inactive)
REMARK    1  A    between atoms: C2_2  and  O1_4 
REMARK    2  A    between atoms: O1_4  and  C4_5 
REMARK    3  A    between atoms: C12_15  and  C13_16 
REMARK    4  A    between atoms: C14_17  and  P1_18 
REMARK    5  A    between atoms: P1_18  and  C15_19 
REMARK    6  A    between atoms: C18_22  and  N1_23 
ROOT
HETATM    1  C4  UNL     1      26.291  -0.366  52.766  1.00  0.00     0.108 A 
HETATM    2  C5  UNL     1      25.303  -0.954  53.535  1.00  0.00     0.072 A 
HETATM    3  C6  UNL     1      24.002  -0.483  53.554  1.00  0.00     0.071 A 
HETATM    4  C7  UNL     1      23.657   0.628  52.773  1.00  0.00     0.022 A 
HETATM    5  C8  UNL     1      24.645   1.222  51.998  1.00  0.00     0.114 A 
HETATM    6  C9  UNL     1      25.942   0.741  51.989  1.00  0.00     0.136 A 
HETATM    7  O2  UNL     1      26.804   1.449  51.162  1.00  0.00    -0.344 OA
HETATM    8  C10 UNL     1      26.716   2.865  51.016  1.00  0.00     0.202 C 
HETATM    9  C11 UNL     1      25.309   3.347  50.918  1.00  0.00     0.202 C 
HETATM   10  O3  UNL     1      24.356   2.337  51.197  1.00  0.00    -0.345 OA
HETATM   11  C12 UNL     1      22.207   0.925  52.977  1.00  0.00     0.116 A 
HETATM   12  C18 UNL     1      21.836  -0.145  53.943  1.00  0.00     0.112 A 
HETATM   13  N2  UNL     1      22.829  -0.921  54.261  1.00  0.00    -0.234 NA
ENDROOT
BRANCH  11  14
HETATM   14  C13 UNL     1      21.408   0.690  51.731  1.00  0.00    -0.009 C 
HETATM   15  C14 UNL     1      20.721   1.706  51.219  1.00  0.00     0.005 C 
BRANCH  15  16
HETATM   16  P1  UNL     1      19.677   1.693  49.728  1.00  0.00    -0.081 P 
HETATM   17  H14 UNL     1      20.160   0.633  48.840  1.00  0.00     0.066 HD
BRANCH  16  18
HETATM   18  C15 UNL     1      17.908   1.416  50.147  1.00  0.00    -0.077 C 
HETATM   19  C16 UNL     1      17.865   0.131  50.504  1.00  0.00     0.039 C 
HETATM   20  C17 UNL     1      16.621   2.142  50.198  1.00  0.00     0.044 C 
ENDBRANCH  16  18
ENDBRANCH  15  16
ENDBRANCH  11  14
BRANCH  12  21
HETATM   21  N1  UNL     1      20.513  -0.296  54.464  1.00  0.00    -0.382 N 
HETATM   22  C19 UNL     1      19.590  -1.264  53.877  1.00  0.00     0.147 C 
HETATM   23  H20 UNL     1      20.149   0.254  55.260  1.00  0.00     0.160 HD
ENDBRANCH  12  21
BRANCH   1  24
HETATM   24  O1  UNL     1      27.603  -0.784  52.702  1.00  0.00    -0.334 OA
BRANCH  24  25
HETATM   25  C2  UNL     1      28.533  -0.392  53.659  1.00  0.00     0.095 C 
HETATM   26  C1  UNL     1      29.800  -0.737  53.533  1.00  0.00     0.044 C 
HETATM   27  C3  UNL     1      28.336   0.410  54.894  1.00  0.00     0.050 C 
ENDBRANCH  24  25
ENDBRANCH   1  24
TORSDOF 6
ENDMDL
MODEL 4
REMARK VINA RESULT:      -6.9      3.350      5.067
REMARK  6 active torsions:
REMARK  status: ('A' for Active; 'I' for Inactive)
REMARK    1  A    between atoms: C2_2  and  O1_4 
REMARK    2  A    between atoms: O1_4  and  C4_5 
REMARK    3  A    between atoms: C12_15  and  C13_16 
REMARK    4  A    between atoms: C14_17  and  P1_18 
REMARK    5  A    between atoms: P1_18  and  C15_19 
REMARK    6  A    between atoms: C18_22  and  N1_23 
ROOT
HETATM    1  C4  UNL     1      26.258   0.544  52.888  1.00  0.00     0.108 A 
HETATM    2  C5  UNL     1      27.005   1.410  52.111  1.00  0.00     0.072 A 
HETATM    3  C6  UNL     1      26.421   2.339  51.267  1.00  0.00     0.071 A 
HETATM    4  C7  UNL     1      25.025   2.417  51.185  1.00  0.00     0.022 A 
HETATM    5  C8  UNL     1      24.269   1.550  51.963  1.00  0.00     0.114 A 
HETATM    6  C9  UNL     1      24.865   0.626  52.802  1.00  0.00     0.136 A 
HETATM    7  O2  UNL     1      23.967  -0.163  53.509  1.00  0.00    -0.344 OA
HETATM    8  C10 UNL     1      22.746  -0.618  52.929  1.00  0.00     0.202 C 
HETATM    9  C11 UNL     1      22.067   0.433  52.119  1.00  0.00     0.202 C 
HETATM   10  O3  UNL     1      22.867   1.584  51.921  1.00  0.00    -0.345 OA
HETATM   11  C12 UNL     1      24.662   3.491  50.212  1.00  0.00     0.116 A 
HETATM   12  C18 UNL     1      26.013   3.961  49.798  1.00  0.00     0.112 A 
HETATM   13  N2  UNL     1      26.983   3.322  50.382  1.00  0.00    -0.234 NA
ENDROOT
BRANCH  11  14
HETATM   14  C13 UNL     1      23.981   4.645  50.881  1.00  0.00    -0.009 C 
HETATM   15  C14 UNL     1      22.922   5.186  50.286  1.00  0.00     0.005 C 
BRANCH  15  16
HETATM   16  P1  UNL     1      21.918   6.584  50.877  1.00  0.00    -0.081 P 
HETATM   17  H14 UNL     1      22.816   7.704  51.166  1.00  0.00     0.066 HD
BRANCH  16  18
HETATM   18  C15 UNL     1      20.660   7.083  49.632  1.00  0.00    -0.077 C 
HETATM   19  C16 UNL     1      20.368   8.342  49.964  1.00  0.00     0.039 C 
HETATM   20  C17 UNL     1      19.934   6.540  48.464  1.00  0.00     0.044 C 
ENDBRANCH  16  18
ENDBRANCH  15  16
ENDBRANCH  11  14
BRANCH  12  21
HETATM   21  N1  UNL     1      26.212   5.012  48.850  1.00  0.00    -0.382 N 
HETATM   22  C19 UNL     1      27.562   5.459  48.512  1.00  0.00     0.147 C 
HETATM   23  H20 UNL     1      25.438   5.497  48.366  1.00  0.00     0.160 HD
ENDBRANCH  12  21
BRANCH   1  24
HETATM   24  O1  UNL     1      26.774  -0.402  53.746  1.00  0.00    -0.334 OA
BRANCH  24  25
HETATM   25  C2  UNL     1      28.137  -0.464  54.017  1.00  0.00     0.095 C 
HETATM   26  C1  UNL     1      28.655   0.266  54.985  1.00  0.00     0.044 C 
HETATM   27  C3  UNL     1      29.194  -1.272  53.356  1.00  0.00     0.050 C 
ENDBRANCH  24  25
ENDBRANCH   1  24
TORSDOF 6
ENDMDL
MODEL 5
REMARK VINA RESULT:      -6.9      1.493      2.021
REMARK  6 active torsions:
REMARK  status: ('A' for Active; 'I' for Inactive)
REMARK    1  A    between atoms: C2_2  and  O1_4 
REMARK    2  A    between atoms: O1_4  and  C4_5 
REMARK    3  A    between atoms: C12_15  and  C13_16 
REMARK    4  A    between atoms: C14_17  and  P1_18 
REMARK    5  A    between atoms: P1_18  and  C15_19 
REMARK    6  A    between atoms: C18_22  and  N1_23 
ROOT
HETATM    1  C4  UNL     1      24.514  -0.493  54.040  1.00  0.00     0.108 A 
HETATM    2  C5  UNL     1      23.414  -1.274  54.347  1.00  0.00     0.072 A 
HETATM    3  C6  UNL     1      22.124  -0.897  54.020  1.00  0.00     0.071 A 
HETATM    4  C7  UNL     1      21.905   0.316  53.356  1.00  0.00     0.022 A 
HETATM    5  C8  UNL     1      23.005   1.106  53.045  1.00  0.00     0.114 A 
HETATM    6  C9  UNL     1      24.290   0.717  53.377  1.00  0.00     0.136 A 
HETATM    7  O2  UNL     1      25.274   1.619  52.994  1.00  0.00    -0.344 OA
HETATM    8  C10 UNL     1      25.067   3.029  53.054  1.00  0.00     0.202 C 
HETATM    9  C11 UNL     1      23.710   3.432  52.586  1.00  0.00     0.202 C 
HETATM   10  O3  UNL     1      22.844   2.331  52.380  1.00  0.00    -0.345 OA
HETATM   11  C12 UNL     1      20.437   0.479  53.126  1.00  0.00     0.116 A 
HETATM   12  C18 UNL     1      19.918  -0.774  53.740  1.00  0.00     0.112 A 
HETATM   13  N2  UNL     1      20.851  -1.532  54.234  1.00  0.00    -0.234 NA
ENDROOT
BRANCH  11  14
HETATM   14  C13 UNL     1      20.091   0.433  51.670  1.00  0.00    -0.009 C 
HETATM   15  C14 UNL     1      19.859   1.579  51.038  1.00  0.00     0.005 C 
BRANCH  15  16
HETATM   16  P1  UNL     1      19.422   1.805  49.285  1.00  0.00    -0.081 P 
HETATM   17  H14 UNL     1      18.376   2.826  49.201  1.00  0.00     0.066 HD
BRANCH  16  18
HETATM   18  C15 UNL     1      20.883   2.307  48.287  1.00  0.00    -0.077 C 
HETATM   19  C16 UNL     1      21.853   1.497  48.715  1.00  0.00     0.039 C 
HETATM   20  C17 UNL     1      21.267   3.271  47.233  1.00  0.00     0.044 C 
ENDBRANCH  16  18
ENDBRANCH  15  16
ENDBRANCH  11  14
BRANCH  12  21
HETATM   21  N1  UNL     1      18.527  -1.101  53.778  1.00  0.00    -0.382 N 
HETATM   22  C19 UNL     1      18.088  -2.487  53.632  1.00  0.00     0.147 C 
HETATM   23  H20 UNL     1      17.780  -0.399  53.905  1.00  0.00     0.160 HD
ENDBRANCH  12  21
BRANCH   1  24
HETATM   24  O1  UNL     1      25.821  -0.809  54.335  1.00  0.00    -0.334 OA
BRANCH  24  25
HETATM   25  C2  UNL     1      26.727  -1.145  53.335  1.00  0.00     0.095 C 
HETATM   26  C1  UNL     1      27.943  -0.634  53.341  1.00  0.00     0.044 C 
HETATM   27  C3  UNL     1      26.553  -2.049  52.169  1.00  0.00     0.050 C 
ENDBRANCH  24  25
ENDBRANCH   1  24
TORSDOF 6
ENDMDL
MODEL 6
REMARK VINA RESULT:      -6.9      3.654      5.803
REMARK  6 active torsions:
REMARK  status: ('A' for Active; 'I' for Inactive)
REMARK    1  A    between atoms: C2_2  and  O1_4 
REMARK    2  A    between atoms: O1_4  and  C4_5 
REMARK    3  A    between atoms: C12_15  and  C13_16 
REMARK    4  A    between atoms: C14_17  and  P1_18 
REMARK    5  A    between atoms: P1_18  and  C15_19 
REMARK    6  A    between atoms: C18_22  and  N1_23 
ROOT
HETATM    1  C4  UNL     1      23.283   0.507  52.753  1.00  0.00     0.108 A 
HETATM    2  C5  UNL     1      22.294   1.463  52.609  1.00  0.00     0.072 A 
HETATM    3  C6  UNL     1      22.581   2.787  52.324  1.00  0.00     0.071 A 
HETATM    4  C7  UNL     1      23.914   3.188  52.174  1.00  0.00     0.022 A 
HETATM    5  C8  UNL     1      24.912   2.233  52.317  1.00  0.00     0.114 A 
HETATM    6  C9  UNL     1      24.611   0.913  52.602  1.00  0.00     0.136 A 
HETATM    7  O2  UNL     1      25.723   0.088  52.712  1.00  0.00    -0.344 OA
HETATM    8  C10 UNL     1      26.940   0.540  53.302  1.00  0.00     0.202 C 
HETATM    9  C11 UNL     1      27.299   1.928  52.892  1.00  0.00     0.202 C 
HETATM   10  O3  UNL     1      26.264   2.580  52.178  1.00  0.00    -0.345 OA
HETATM   11  C12 UNL     1      23.942   4.653  51.875  1.00  0.00     0.116 A 
HETATM   12  C18 UNL     1      22.487   4.968  51.885  1.00  0.00     0.112 A 
HETATM   13  N2  UNL     1      21.737   3.936  52.134  1.00  0.00    -0.234 NA
ENDROOT
BRANCH  11  14
HETATM   14  C13 UNL     1      24.443   4.931  50.490  1.00  0.00    -0.009 C 
HETATM   15  C14 UNL     1      25.240   5.978  50.304  1.00  0.00     0.005 C 
BRANCH  15  16
HETATM   16  P1  UNL     1      25.982   6.536  48.739  1.00  0.00    -0.081 P 
HETATM   17  H14 UNL     1      24.919   7.094  47.901  1.00  0.00     0.066 HD
BRANCH  16  18
HETATM   18  C15 UNL     1      27.292   7.795  49.027  1.00  0.00    -0.077 C 
HETATM   19  C16 UNL     1      26.793   8.554  50.005  1.00  0.00     0.039 C 
HETATM   20  C17 UNL     1      28.630   8.183  48.530  1.00  0.00     0.044 C 
ENDBRANCH  16  18
ENDBRANCH  15  16
ENDBRANCH  11  14
BRANCH  12  21
HETATM   21  N1  UNL     1      21.976   6.280  51.644  1.00  0.00    -0.382 N 
HETATM   22  C19 UNL     1      21.118   6.542  50.490  1.00  0.00     0.147 C 
HETATM   23  H20 UNL     1      22.178   7.091  52.253  1.00  0.00     0.160 HD
ENDBRANCH  12  21
BRANCH   1  24
HETATM   24  O1  UNL     1      23.067  -0.824  53.036  1.00  0.00    -0.334 OA
BRANCH  24  25
HETATM   25  C2  UNL     1      22.356  -1.216  54.165  1.00  0.00     0.095 C 
HETATM   26  C1  UNL     1      22.959  -1.295  55.335  1.00  0.00     0.044 C 
HETATM   27  C3  UNL     1      20.924  -1.591  54.295  1.00  0.00     0.050 C 
ENDBRANCH  24  25
ENDBRANCH   1  24
TORSDOF 6
ENDMDL
MODEL 7
REMARK VINA RESULT:      -6.9      2.930      6.602
REMARK  6 active torsions:
REMARK  status: ('A' for Active; 'I' for Inactive)
REMARK    1  A    between atoms: C2_2  and  O1_4 
REMARK    2  A    between atoms: O1_4  and  C4_5 
REMARK    3  A    between atoms: C12_15  and  C13_16 
REMARK    4  A    between atoms: C14_17  and  P1_18 
REMARK    5  A    between atoms: P1_18  and  C15_19 
REMARK    6  A    between atoms: C18_22  and  N1_23 
ROOT
HETATM    1  C4  UNL     1      19.397  -0.492  53.388  1.00  0.00     0.108 A 
HETATM    2  C5  UNL     1      20.561  -0.893  54.018  1.00  0.00     0.072 A 
HETATM    3  C6  UNL     1      21.815  -0.567  53.534  1.00  0.00     0.071 A 
HETATM    4  C7  UNL     1      21.928   0.194  52.364  1.00  0.00     0.022 A 
HETATM    5  C8  UNL     1      20.764   0.601  51.726  1.00  0.00     0.114 A 
HETATM    6  C9  UNL     1      19.515   0.268  52.221  1.00  0.00     0.136 A 
HETATM    7  O2  UNL     1      18.456   0.752  51.465  1.00  0.00    -0.344 OA
HETATM    8  C10 UNL     1      18.512   0.810  50.041  1.00  0.00     0.202 C 
HETATM    9  C11 UNL     1      19.834   1.278  49.535  1.00  0.00     0.202 C 
HETATM   10  O3  UNL     1      20.817   1.365  50.551  1.00  0.00    -0.345 OA
HETATM   11  C12 UNL     1      23.378   0.401  52.065  1.00  0.00     0.116 A 
HETATM   12  C18 UNL     1      24.004  -0.332  53.199  1.00  0.00     0.112 A 
HETATM   13  N2  UNL     1      23.139  -0.867  54.009  1.00  0.00    -0.234 NA
ENDROOT
BRANCH  11  14
HETATM   14  C13 UNL     1      23.777   1.839  52.197  1.00  0.00    -0.009 C 
HETATM   15  C14 UNL     1      24.067   2.518  51.091  1.00  0.00     0.005 C 
BRANCH  15  16
HETATM   16  P1  UNL     1      24.575   4.261  50.969  1.00  0.00    -0.081 P 
HETATM   17  H14 UNL     1      25.013   4.706  52.294  1.00  0.00     0.066 HD
BRANCH  16  18
HETATM   18  C15 UNL     1      25.930   4.483  49.745  1.00  0.00    -0.077 C 
HETATM   19  C16 UNL     1      26.485   3.273  49.663  1.00  0.00     0.039 C 
HETATM   20  C17 UNL     1      26.536   5.529  48.892  1.00  0.00     0.044 C 
ENDBRANCH  16  18
ENDBRANCH  15  16
ENDBRANCH  11  14
BRANCH  12  21
HETATM   21  N1  UNL     1      25.420  -0.433  53.372  1.00  0.00    -0.382 N 
HETATM   22  C19 UNL     1      26.066   0.144  54.548  1.00  0.00     0.147 C 
HETATM   23  H20 UNL     1      26.043  -0.904  52.695  1.00  0.00     0.160 HD
ENDBRANCH  12  21
BRANCH   1  24
HETATM   24  O1  UNL     1      18.120  -0.782  53.816  1.00  0.00    -0.334 OA
BRANCH  24  25
HETATM   25  C2  UNL     1      17.407  -1.853  53.287  1.00  0.00     0.095 C 
HETATM   26  C1  UNL     1      17.693  -3.087  53.655  1.00  0.00     0.044 C 
HETATM   27  C3  UNL     1      16.292  -1.851  52.306  1.00  0.00     0.050 C 
ENDBRANCH  24  25
ENDBRANCH   1  24
TORSDOF 6
ENDMDL
MODEL 8
REMARK VINA RESULT:      -6.6      3.378      6.768
REMARK  6 active torsions:
REMARK  status: ('A' for Active; 'I' for Inactive)
REMARK    1  A    between atoms: C2_2  and  O1_4 
REMARK    2  A    between atoms: O1_4  and  C4_5 
REMARK    3  A    between atoms: C12_15  and  C13_16 
REMARK    4  A    between atoms: C14_17  and  P1_18 
REMARK    5  A    between atoms: P1_18  and  C15_19 
REMARK    6  A    between atoms: C18_22  and  N1_23 
ROOT
HETATM    1  C4  UNL     1      18.784  -0.755  53.296  1.00  0.00     0.108 A 
HETATM    2  C5  UNL     1      19.964  -1.178  53.880  1.00  0.00     0.072 A 
HETATM    3  C6  UNL     1      21.202  -0.733  53.452  1.00  0.00     0.071 A 
HETATM    4  C7  UNL     1      21.281   0.178  52.392  1.00  0.00     0.022 A 
HETATM    5  C8  UNL     1      20.100   0.608  51.801  1.00  0.00     0.114 A 
HETATM    6  C9  UNL     1      18.868   0.155  52.239  1.00  0.00     0.136 A 
HETATM    7  O2  UNL     1      17.788   0.683  51.542  1.00  0.00    -0.344 OA
HETATM    8  C10 UNL     1      17.845   0.927  50.139  1.00  0.00     0.202 C 
HETATM    9  C11 UNL     1      19.144   1.519  49.709  1.00  0.00     0.202 C 
HETATM   10  O3  UNL     1      20.119   1.521  50.736  1.00  0.00    -0.345 OA
HETATM   11  C12 UNL     1      22.720   0.491  52.134  1.00  0.00     0.116 A 
HETATM   12  C18 UNL     1      23.378  -0.353  53.169  1.00  0.00     0.112 A 
HETATM   13  N2  UNL     1      22.538  -1.029  53.896  1.00  0.00    -0.234 NA
ENDROOT
BRANCH  11  14
HETATM   14  C13 UNL     1      23.049   1.917  52.454  1.00  0.00    -0.009 C 
HETATM   15  C14 UNL     1      23.178   2.777  51.448  1.00  0.00     0.005 C 
BRANCH  15  16
HETATM   16  P1  UNL     1      23.569   4.551  51.557  1.00  0.00    -0.081 P 
HETATM   17  H14 UNL     1      24.641   4.843  50.602  1.00  0.00     0.066 HD
BRANCH  16  18
HETATM   18  C15 UNL     1      22.095   5.589  51.195  1.00  0.00    -0.077 C 
HETATM   19  C16 UNL     1      21.070   4.748  51.347  1.00  0.00     0.039 C 
HETATM   20  C17 UNL     1      21.742   6.973  50.814  1.00  0.00     0.044 C 
ENDBRANCH  16  18
ENDBRANCH  15  16
ENDBRANCH  11  14
BRANCH  12  21
HETATM   21  N1  UNL     1      24.796  -0.408  53.339  1.00  0.00    -0.382 N 
HETATM   22  C19 UNL     1      25.377  -0.609  54.665  1.00  0.00     0.147 C 
HETATM   23  H20 UNL     1      25.467  -0.311  52.559  1.00  0.00     0.160 HD
ENDBRANCH  12  21
BRANCH   1  24
HETATM   24  O1  UNL     1      17.521  -1.157  53.672  1.00  0.00    -0.334 OA
BRANCH  24  25
HETATM   25  C2  UNL     1      16.954  -2.323  53.166  1.00  0.00     0.095 C 
HETATM   26  C1  UNL     1      15.977  -2.256  52.284  1.00  0.00     0.044 C 
HETATM   27  C3  UNL     1      17.282  -3.740  53.469  1.00  0.00     0.050 C 
ENDBRANCH  24  25
ENDBRANCH   1  24
TORSDOF 6
ENDMDL
MODEL 9
REMARK VINA RESULT:      -6.5      3.177      5.117
REMARK  6 active torsions:
REMARK  status: ('A' for Active; 'I' for Inactive)
REMARK    1  A    between atoms: C2_2  and  O1_4 
REMARK    2  A    between atoms: O1_4  and  C4_5 
REMARK    3  A    between atoms: C12_15  and  C13_16 
REMARK    4  A    between atoms: C14_17  and  P1_18 
REMARK    5  A    between atoms: P1_18  and  C15_19 
REMARK    6  A    between atoms: C18_22  and  N1_23 
ROOT
HETATM    1  C4  UNL     1      23.944   0.880  52.812  1.00  0.00     0.108 A 
HETATM    2  C5  UNL     1      23.804   1.466  51.566  1.00  0.00     0.072 A 
HETATM    3  C6  UNL     1      22.623   1.404  50.848  1.00  0.00     0.071 A 
HETATM    4  C7  UNL     1      21.521   0.728  51.386  1.00  0.00     0.022 A 
HETATM    5  C8  UNL     1      21.654   0.137  52.636  1.00  0.00     0.114 A 
HETATM    6  C9  UNL     1      22.841   0.207  53.344  1.00  0.00     0.136 A 
HETATM    7  O2  UNL     1      22.806  -0.435  54.575  1.00  0.00    -0.344 OA
HETATM    8  C10 UNL     1      22.093  -1.653  54.770  1.00  0.00     0.202 C 
HETATM    9  C11 UNL     1      20.767  -1.660  54.086  1.00  0.00     0.202 C 
HETATM   10  O3  UNL     1      20.583  -0.552  53.223  1.00  0.00    -0.345 OA
HETATM   11  C12 UNL     1      20.387   0.812  50.416  1.00  0.00     0.116 A 
HETATM   12  C18 UNL     1      21.015   1.600  49.320  1.00  0.00     0.112 A 
HETATM   13  N2  UNL     1      22.250   1.925  49.561  1.00  0.00    -0.234 NA
ENDROOT
BRANCH  11  14
HETATM   14  C13 UNL     1      19.252   1.629  50.951  1.00  0.00    -0.009 C 
HETATM   15  C14 UNL     1      18.015   1.162  50.812  1.00  0.00     0.005 C 
BRANCH  15  16
HETATM   16  P1  UNL     1      16.470   1.947  51.367  1.00  0.00    -0.081 P 
HETATM   17  H14 UNL     1      15.714   2.359  50.183  1.00  0.00     0.066 HD
BRANCH  16  18
HETATM   18  C15 UNL     1      15.464   0.800  52.395  1.00  0.00    -0.077 C 
HETATM   19  C16 UNL     1      16.190  -0.319  52.424  1.00  0.00     0.039 C 
HETATM   20  C17 UNL     1      14.187   0.759  53.140  1.00  0.00     0.044 C 
ENDBRANCH  16  18
ENDBRANCH  15  16
ENDBRANCH  11  14
BRANCH  12  21
HETATM   21  N1  UNL     1      20.319   1.958  48.124  1.00  0.00    -0.382 N 
HETATM   22  C19 UNL     1      20.619   3.213  47.439  1.00  0.00     0.147 C 
HETATM   23  H20 UNL     1      19.589   1.368  47.692  1.00  0.00     0.160 HD
ENDBRANCH  12  21
BRANCH   1  24
HETATM   24  O1  UNL     1      25.088   0.904  53.578  1.00  0.00    -0.334 OA
BRANCH  24  25
HETATM   25  C2  UNL     1      26.307   0.465  53.070  1.00  0.00     0.095 C 
HETATM   26  C1  UNL     1      26.482  -0.808  52.772  1.00  0.00     0.044 C 
HETATM   27  C3  UNL     1      27.542   1.238  52.781  1.00  0.00     0.050 C 
ENDBRANCH  24  25
ENDBRANCH   1  24
TORSDOF 6
ENDMDL
