MODEL 1
REMARK VINA RESULT:      -9.4      0.000      0.000
REMARK  3 active torsions:
REMARK  status: ('A' for Active; 'I' for Inactive)
REMARK    1  A    between atoms: N1_1  and  C1_2 
REMARK    2  A    between atoms: C5_6  and  N2_7 
REMARK    3  A    between atoms: N2_7  and  C6_8 
ROOT
HETATM    1  C6  UNL     1      24.596   0.177  52.999  1.00  0.00     0.030 A 
HETATM    2  C7  UNL     1      24.331   1.199  52.203  1.00  0.00     0.040 A 
HETATM    3  C8  UNL     1      22.970   1.719  52.150  1.00  0.00    -0.008 A 
HETATM    4  C9  UNL     1      22.693   2.721  51.375  1.00  0.00     0.007 A 
HETATM    5  C10 UNL     1      21.330   3.273  51.294  1.00  0.00     0.064 A 
HETATM    6  C11 UNL     1      21.461   4.696  51.857  1.00  0.00     0.189 C 
HETATM    7  O1  UNL     1      22.004   5.559  50.912  1.00  0.00    -0.388 OA
HETATM    8  C12 UNL     1      21.031   6.358  50.327  1.00  0.00     0.187 C 
HETATM    9  C13 UNL     1      20.429   5.543  49.205  1.00  0.00     0.143 C 
HETATM   10  N3  UNL     1      19.833   4.318  49.645  1.00  0.00    -0.407 N 
HETATM   11  C14 UNL     1      18.654   4.502  50.368  1.00  0.00     0.143 C 
HETATM   12  C15 UNL     1      18.153   3.448  51.264  1.00  0.00     0.194 C 
HETATM   13  O2  UNL     1      19.019   2.946  52.235  1.00  0.00    -0.352 OA
HETATM   14  C16 UNL     1      20.371   2.554  52.182  1.00  0.00     0.065 A 
HETATM   15  C17 UNL     1      20.634   1.524  52.985  1.00  0.00     0.065 A 
HETATM   16  C18 UNL     1      22.014   1.052  52.992  1.00  0.00     0.064 A 
HETATM   17  N4  UNL     1      22.270   0.060  53.764  1.00  0.00    -0.283 NA
HETATM   18  C19 UNL     1      23.594  -0.519  53.880  1.00  0.00     0.206 A 
HETATM   19  C20 UNL     1      20.717   3.259  49.937  1.00  0.00     0.139 C 
ENDROOT
BRANCH   1  20
HETATM   20  N2  UNL     1      25.838  -0.482  53.206  1.00  0.00    -0.358 N 
HETATM   21  H6  UNL     1      25.868  -1.544  53.236  1.00  0.00     0.166 HD
BRANCH  20  22
HETATM   22  C5  UNL     1      27.239  -0.325  53.420  1.00  0.00     0.034 A 
HETATM   23  C4  UNL     1      28.067  -1.420  53.151  1.00  0.00     0.029 A 
HETATM   24  C3  UNL     1      29.447  -1.330  53.341  1.00  0.00     0.004 A 
HETATM   25  C2  UNL     1      29.873  -0.105  53.800  1.00  0.00     0.029 A 
HETATM   26  C1  UNL     1      29.137   1.010  54.086  1.00  0.00     0.027 A 
HETATM   27  C21 UNL     1      27.758   0.881  53.882  1.00  0.00     0.058 A 
BRANCH  26  28
HETATM   28  N1  UNL     1      29.743   2.206  54.556  1.00  0.00    -0.399 N 
HETATM   29  H1  UNL     1      30.735   2.567  54.500  1.00  0.00     0.156 HD
HETATM   30  H2  UNL     1      28.866   2.604  54.977  1.00  0.00     0.156 HD
ENDBRANCH  26  28
ENDBRANCH  20  22
ENDBRANCH   1  20
TORSDOF 3
ENDMDL
MODEL 2
REMARK VINA RESULT:      -9.4      1.816      2.395
REMARK  3 active torsions:
REMARK  status: ('A' for Active; 'I' for Inactive)
REMARK    1  A    between atoms: N1_1  and  C1_2 
REMARK    2  A    between atoms: C5_6  and  N2_7 
REMARK    3  A    between atoms: N2_7  and  C6_8 
ROOT
HETATM    1  C6  UNL     1      24.573  -0.563  54.322  1.00  0.00     0.030 A 
HETATM    2  C7  UNL     1      24.026   0.160  53.359  1.00  0.00     0.040 A 
HETATM    3  C8  UNL     1      22.580   0.111  53.174  1.00  0.00    -0.008 A 
HETATM    4  C9  UNL     1      22.026   0.813  52.235  1.00  0.00     0.007 A 
HETATM    5  C10 UNL     1      20.570   0.789  52.018  1.00  0.00     0.064 A 
HETATM    6  C11 UNL     1      20.112   2.219  52.341  1.00  0.00     0.189 C 
HETATM    7  O1  UNL     1      20.385   3.081  51.285  1.00  0.00    -0.388 OA
HETATM    8  C12 UNL     1      19.245   3.361  50.544  1.00  0.00     0.187 C 
HETATM    9  C13 UNL     1      19.094   2.230  49.553  1.00  0.00     0.143 C 
HETATM   10  N3  UNL     1      18.954   0.945  50.168  1.00  0.00    -0.407 N 
HETATM   11  C14 UNL     1      17.729   0.767  50.811  1.00  0.00     0.143 C 
HETATM   12  C15 UNL     1      17.571  -0.261  51.852  1.00  0.00     0.194 C 
HETATM   13  O2  UNL     1      18.466  -0.254  52.922  1.00  0.00    -0.352 OA
HETATM   14  C16 UNL     1      19.866  -0.107  52.980  1.00  0.00     0.065 A 
HETATM   15  C17 UNL     1      20.414  -0.836  53.951  1.00  0.00     0.065 A 
HETATM   16  C18 UNL     1      21.864  -0.743  54.083  1.00  0.00     0.064 A 
HETATM   17  N4  UNL     1      22.394  -1.444  55.016  1.00  0.00    -0.283 NA
HETATM   18  C19 UNL     1      23.821  -1.455  55.271  1.00  0.00     0.206 A 
HETATM   19  C20 UNL     1      20.136   0.353  50.662  1.00  0.00     0.139 C 
ENDROOT
BRANCH   1  20
HETATM   20  N2  UNL     1      25.945  -0.664  54.677  1.00  0.00    -0.358 N 
HETATM   21  H6  UNL     1      26.216  -1.147  55.584  1.00  0.00     0.166 HD
BRANCH  20  22
HETATM   22  C5  UNL     1      27.288  -0.365  54.305  1.00  0.00     0.034 A 
HETATM   23  C4  UNL     1      27.990  -1.322  53.565  1.00  0.00     0.029 A 
HETATM   24  C3  UNL     1      29.309  -1.090  53.171  1.00  0.00     0.004 A 
HETATM   25  C2  UNL     1      29.810   0.127  53.575  1.00  0.00     0.029 A 
HETATM   26  C1  UNL     1      29.197   1.114  54.295  1.00  0.00     0.027 A 
HETATM   27  C21 UNL     1      27.876   0.843  54.670  1.00  0.00     0.058 A 
BRANCH  26  28
HETATM   28  N1  UNL     1      29.867   2.321  54.630  1.00  0.00    -0.399 N 
HETATM   29  H1  UNL     1      29.807   3.298  54.232  1.00  0.00     0.156 HD
HETATM   30  H2  UNL     1      30.440   1.905  55.406  1.00  0.00     0.156 HD
ENDBRANCH  26  28
ENDBRANCH  20  22
ENDBRANCH   1  20
TORSDOF 3
ENDMDL
MODEL 3
REMARK VINA RESULT:      -9.1      3.303      4.444
REMARK  3 active torsions:
REMARK  status: ('A' for Active; 'I' for Inactive)
REMARK    1  A    between atoms: N1_1  and  C1_2 
REMARK    2  A    between atoms: C5_6  and  N2_7 
REMARK    3  A    between atoms: N2_7  and  C6_8 
ROOT
HETATM    1  C6  UNL     1      25.491   2.019  51.935  1.00  0.00     0.030 A 
HETATM    2  C7  UNL     1      25.891   2.891  51.025  1.00  0.00     0.040 A 
HETATM    3  C8  UNL     1      25.136   4.126  50.848  1.00  0.00    -0.008 A 
HETATM    4  C9  UNL     1      25.514   4.991  49.961  1.00  0.00     0.007 A 
HETATM    5  C10 UNL     1      24.777   6.249  49.754  1.00  0.00     0.064 A 
HETATM    6  C11 UNL     1      25.767   7.346  50.171  1.00  0.00     0.189 C 
HETATM    7  O1  UNL     1      26.703   7.581  49.171  1.00  0.00    -0.388 OA
HETATM    8  C12 UNL     1      26.413   8.737  48.458  1.00  0.00     0.187 C 
HETATM    9  C13 UNL     1      25.411   8.341  47.398  1.00  0.00     0.143 C 
HETATM   10  N3  UNL     1      24.198   7.798  47.931  1.00  0.00    -0.407 N 
HETATM   11  C14 UNL     1      23.399   8.745  48.570  1.00  0.00     0.143 C 
HETATM   12  C15 UNL     1      22.378   8.329  49.544  1.00  0.00     0.194 C 
HETATM   13  O2  UNL     1      22.775   7.516  50.605  1.00  0.00    -0.352 OA
HETATM   14  C16 UNL     1      23.600   6.375  50.661  1.00  0.00     0.065 A 
HETATM   15  C17 UNL     1      23.193   5.499  51.579  1.00  0.00     0.065 A 
HETATM   16  C18 UNL     1      23.992   4.285  51.706  1.00  0.00     0.064 A 
HETATM   17  N4  UNL     1      23.603   3.440  52.588  1.00  0.00    -0.283 NA
HETATM   18  C19 UNL     1      24.294   2.189  52.831  1.00  0.00     0.206 A 
HETATM   19  C20 UNL     1      24.252   6.460  48.376  1.00  0.00     0.139 C 
ENDROOT
BRANCH   1  20
HETATM   20  N2  UNL     1      26.071   0.767  52.272  1.00  0.00    -0.358 N 
HETATM   21  H6  UNL     1      25.489  -0.119  52.186  1.00  0.00     0.166 HD
BRANCH  20  22
HETATM   22  C5  UNL     1      27.237   0.090  52.735  1.00  0.00     0.034 A 
HETATM   23  C4  UNL     1      28.298   0.867  53.211  1.00  0.00     0.029 A 
HETATM   24  C3  UNL     1      29.467   0.265  53.677  1.00  0.00     0.004 A 
HETATM   25  C2  UNL     1      29.454  -1.110  53.616  1.00  0.00     0.029 A 
HETATM   26  C1  UNL     1      28.466  -1.942  53.168  1.00  0.00     0.027 A 
HETATM   27  C21 UNL     1      27.310  -1.300  52.710  1.00  0.00     0.058 A 
BRANCH  26  28
HETATM   28  N1  UNL     1      28.619  -3.354  53.175  1.00  0.00    -0.399 N 
HETATM   29  H1  UNL     1      28.532  -4.073  53.946  1.00  0.00     0.156 HD
HETATM   30  H2  UNL     1      28.848  -3.435  52.152  1.00  0.00     0.156 HD
ENDBRANCH  26  28
ENDBRANCH  20  22
ENDBRANCH   1  20
TORSDOF 3
ENDMDL
MODEL 4
REMARK VINA RESULT:      -8.7      4.188      5.674
REMARK  3 active torsions:
REMARK  status: ('A' for Active; 'I' for Inactive)
REMARK    1  A    between atoms: N1_1  and  C1_2 
REMARK    2  A    between atoms: C5_6  and  N2_7 
REMARK    3  A    between atoms: N2_7  and  C6_8 
ROOT
HETATM    1  C6  UNL     1      25.948   3.229  50.057  1.00  0.00     0.030 A 
HETATM    2  C7  UNL     1      24.645   3.136  49.851  1.00  0.00     0.040 A 
HETATM    3  C8  UNL     1      23.830   2.399  50.810  1.00  0.00    -0.008 A 
HETATM    4  C9  UNL     1      22.551   2.297  50.624  1.00  0.00     0.007 A 
HETATM    5  C10 UNL     1      21.696   1.561  51.569  1.00  0.00     0.064 A 
HETATM    6  C11 UNL     1      20.777   2.635  52.171  1.00  0.00     0.189 C 
HETATM    7  O1  UNL     1      19.749   2.960  51.294  1.00  0.00    -0.388 OA
HETATM    8  C12 UNL     1      18.551   2.364  51.666  1.00  0.00     0.187 C 
HETATM    9  C13 UNL     1      18.574   0.967  51.087  1.00  0.00     0.143 C 
HETATM   10  N3  UNL     1      19.665   0.170  51.560  1.00  0.00    -0.407 N 
HETATM   11  C14 UNL     1      19.540  -0.206  52.897  1.00  0.00     0.143 C 
HETATM   12  C15 UNL     1      20.720  -0.619  53.673  1.00  0.00     0.194 C 
HETATM   13  O2  UNL     1      21.815   0.244  53.711  1.00  0.00    -0.352 OA
HETATM   14  C16 UNL     1      22.470   0.983  52.706  1.00  0.00     0.065 A 
HETATM   15  C17 UNL     1      23.782   1.075  52.916  1.00  0.00     0.065 A 
HETATM   16  C18 UNL     1      24.540   1.825  51.921  1.00  0.00     0.064 A 
HETATM   17  N4  UNL     1      25.804   1.915  52.120  1.00  0.00    -0.283 NA
HETATM   18  C19 UNL     1      26.688   2.629  51.221  1.00  0.00     0.206 A 
HETATM   19  C20 UNL     1      20.927   0.428  50.984  1.00  0.00     0.139 C 
ENDROOT
BRANCH   1  20
HETATM   20  N2  UNL     1      26.921   3.893  49.261  1.00  0.00    -0.358 N 
HETATM   21  H6  UNL     1      27.740   3.340  48.868  1.00  0.00     0.166 HD
BRANCH  20  22
HETATM   22  C5  UNL     1      27.335   5.130  48.687  1.00  0.00     0.034 A 
HETATM   23  C4  UNL     1      28.678   5.260  48.315  1.00  0.00     0.029 A 
HETATM   24  C3  UNL     1      29.146   6.446  47.749  1.00  0.00     0.004 A 
HETATM   25  C2  UNL     1      28.185   7.420  47.607  1.00  0.00     0.029 A 
HETATM   26  C1  UNL     1      26.860   7.376  47.941  1.00  0.00     0.027 A 
HETATM   27  C21 UNL     1      26.429   6.170  48.506  1.00  0.00     0.058 A 
BRANCH  26  28
HETATM   28  N1  UNL     1      25.997   8.484  47.725  1.00  0.00    -0.399 N 
HETATM   29  H1  UNL     1      25.229   8.910  48.314  1.00  0.00     0.156 HD
HETATM   30  H2  UNL     1      26.386   8.730  46.780  1.00  0.00     0.156 HD
ENDBRANCH  26  28
ENDBRANCH  20  22
ENDBRANCH   1  20
TORSDOF 3
ENDMDL
MODEL 5
REMARK VINA RESULT:      -8.5      4.568      7.845
REMARK  3 active torsions:
REMARK  status: ('A' for Active; 'I' for Inactive)
REMARK    1  A    between atoms: N1_1  and  C1_2 
REMARK    2  A    between atoms: C5_6  and  N2_7 
REMARK    3  A    between atoms: N2_7  and  C6_8 
ROOT
HETATM    1  C6  UNL     1      25.135   4.918  49.315  1.00  0.00     0.030 A 
HETATM    2  C7  UNL     1      25.963   4.295  50.136  1.00  0.00     0.040 A 
HETATM    3  C8  UNL     1      25.476   3.147  50.893  1.00  0.00    -0.008 A 
HETATM    4  C9  UNL     1      26.274   2.524  51.702  1.00  0.00     0.007 A 
HETATM    5  C10 UNL     1      25.819   1.361  52.483  1.00  0.00     0.064 A 
HETATM    6  C11 UNL     1      26.648   0.188  51.940  1.00  0.00     0.189 C 
HETATM    7  O1  UNL     1      27.934   0.200  52.467  1.00  0.00    -0.388 OA
HETATM    8  C12 UNL     1      28.084  -0.743  53.476  1.00  0.00     0.187 C 
HETATM    9  C13 UNL     1      27.581  -0.091  54.744  1.00  0.00     0.143 C 
HETATM   10  N3  UNL     1      26.210   0.313  54.675  1.00  0.00    -0.407 N 
HETATM   11  C14 UNL     1      25.315  -0.757  54.672  1.00  0.00     0.143 C 
HETATM   12  C15 UNL     1      23.945  -0.586  54.163  1.00  0.00     0.194 C 
HETATM   13  O2  UNL     1      23.781  -0.062  52.881  1.00  0.00    -0.352 OA
HETATM   14  C16 UNL     1      24.389   1.024  52.221  1.00  0.00     0.065 A 
HETATM   15  C17 UNL     1      23.553   1.650  51.395  1.00  0.00     0.065 A 
HETATM   16  C18 UNL     1      24.101   2.790  50.668  1.00  0.00     0.064 A 
HETATM   17  N4  UNL     1      23.298   3.395  49.872  1.00  0.00    -0.283 NA
HETATM   18  C19 UNL     1      23.697   4.543  49.082  1.00  0.00     0.206 A 
HETATM   19  C20 UNL     1      25.940   1.499  53.960  1.00  0.00     0.139 C 
ENDROOT
BRANCH   1  20
HETATM   20  N2  UNL     1      25.395   6.045  48.489  1.00  0.00    -0.358 N 
HETATM   21  H6  UNL     1      24.856   6.162  47.579  1.00  0.00     0.166 HD
BRANCH  20  22
HETATM   22  C5  UNL     1      26.156   7.239  48.321  1.00  0.00     0.034 A 
HETATM   23  C4  UNL     1      26.082   7.893  47.087  1.00  0.00     0.029 A 
HETATM   24  C3  UNL     1      26.805   9.065  46.859  1.00  0.00     0.004 A 
HETATM   25  C2  UNL     1      27.559   9.478  47.934  1.00  0.00     0.029 A 
HETATM   26  C1  UNL     1      27.687   8.903  49.167  1.00  0.00     0.027 A 
HETATM   27  C21 UNL     1      26.947   7.730  49.356  1.00  0.00     0.058 A 
BRANCH  26  28
HETATM   28  N1  UNL     1      28.517   9.467  50.172  1.00  0.00    -0.399 N 
HETATM   29  H1  UNL     1      29.193   9.033  50.860  1.00  0.00     0.156 HD
HETATM   30  H2  UNL     1      28.225  10.461  49.996  1.00  0.00     0.156 HD
ENDBRANCH  26  28
ENDBRANCH  20  22
ENDBRANCH   1  20
TORSDOF 3
ENDMDL
MODEL 6
REMARK VINA RESULT:      -8.4      2.150      3.072
REMARK  3 active torsions:
REMARK  status: ('A' for Active; 'I' for Inactive)
REMARK    1  A    between atoms: N1_1  and  C1_2 
REMARK    2  A    between atoms: C5_6  and  N2_7 
REMARK    3  A    between atoms: N2_7  and  C6_8 
ROOT
HETATM    1  C6  UNL     1      24.714   1.610  52.579  1.00  0.00     0.030 A 
HETATM    2  C7  UNL     1      24.058   1.499  51.436  1.00  0.00     0.040 A 
HETATM    3  C8  UNL     1      23.253   2.623  50.971  1.00  0.00    -0.008 A 
HETATM    4  C9  UNL     1      22.603   2.532  49.853  1.00  0.00     0.007 A 
HETATM    5  C10 UNL     1      21.780   3.645  49.352  1.00  0.00     0.064 A 
HETATM    6  C11 UNL     1      22.479   4.084  48.057  1.00  0.00     0.189 C 
HETATM    7  O1  UNL     1      22.179   3.222  47.010  1.00  0.00    -0.388 OA
HETATM    8  C12 UNL     1      21.229   3.765  46.154  1.00  0.00     0.187 C 
HETATM    9  C13 UNL     1      19.881   3.457  46.766  1.00  0.00     0.143 C 
HETATM   10  N3  UNL     1      19.708   4.009  48.075  1.00  0.00    -0.407 N 
HETATM   11  C14 UNL     1      19.580   5.398  48.080  1.00  0.00     0.143 C 
HETATM   12  C15 UNL     1      19.844   6.170  49.305  1.00  0.00     0.194 C 
HETATM   13  O2  UNL     1      21.069   5.985  49.946  1.00  0.00    -0.352 OA
HETATM   14  C16 UNL     1      21.801   4.824  50.265  1.00  0.00     0.065 A 
HETATM   15  C17 UNL     1      22.460   4.939  51.417  1.00  0.00     0.065 A 
HETATM   16  C18 UNL     1      23.247   3.781  51.825  1.00  0.00     0.064 A 
HETATM   17  N4  UNL     1      23.882   3.888  52.933  1.00  0.00    -0.283 NA
HETATM   18  C19 UNL     1      24.706   2.823  53.469  1.00  0.00     0.206 A 
HETATM   19  C20 UNL     1      20.342   3.325  49.134  1.00  0.00     0.139 C 
ENDROOT
BRANCH   1  20
HETATM   20  N2  UNL     1      25.549   0.651  53.213  1.00  0.00    -0.358 N 
HETATM   21  H6  UNL     1      25.143   0.024  53.970  1.00  0.00     0.166 HD
BRANCH  20  22
HETATM   22  C5  UNL     1      26.857   0.090  53.292  1.00  0.00     0.034 A 
HETATM   23  C4  UNL     1      27.927   0.960  53.528  1.00  0.00     0.029 A 
HETATM   24  C3  UNL     1      29.232   0.473  53.615  1.00  0.00     0.004 A 
HETATM   25  C2  UNL     1      29.337  -0.889  53.449  1.00  0.00     0.029 A 
HETATM   26  C1  UNL     1      28.350  -1.806  53.216  1.00  0.00     0.027 A 
HETATM   27  C21 UNL     1      27.056  -1.279  53.137  1.00  0.00     0.058 A 
BRANCH  26  28
HETATM   28  N1  UNL     1      28.634  -3.190  53.068  1.00  0.00    -0.399 N 
HETATM   29  H1  UNL     1      28.471  -3.865  52.271  1.00  0.00     0.156 HD
HETATM   30  H2  UNL     1      29.060  -3.306  54.022  1.00  0.00     0.156 HD
ENDBRANCH  26  28
ENDBRANCH  20  22
ENDBRANCH   1  20
TORSDOF 3
ENDMDL
MODEL 7
REMARK VINA RESULT:      -8.4      5.883      7.096
REMARK  3 active torsions:
REMARK  status: ('A' for Active; 'I' for Inactive)
REMARK    1  A    between atoms: N1_1  and  C1_2 
REMARK    2  A    between atoms: C5_6  and  N2_7 
REMARK    3  A    between atoms: N2_7  and  C6_8 
ROOT
HETATM    1  C6  UNL     1      29.118   5.861  48.135  1.00  0.00     0.030 A 
HETATM    2  C7  UNL     1      28.235   4.945  48.495  1.00  0.00     0.040 A 
HETATM    3  C8  UNL     1      26.907   5.373  48.921  1.00  0.00    -0.008 A 
HETATM    4  C9  UNL     1      26.029   4.489  49.278  1.00  0.00     0.007 A 
HETATM    5  C10 UNL     1      24.679   4.883  49.714  1.00  0.00     0.064 A 
HETATM    6  C11 UNL     1      23.746   4.300  48.643  1.00  0.00     0.189 C 
HETATM    7  O1  UNL     1      23.551   2.937  48.838  1.00  0.00    -0.388 OA
HETATM    8  C12 UNL     1      22.317   2.674  49.419  1.00  0.00     0.187 C 
HETATM    9  C13 UNL     1      22.506   2.839  50.910  1.00  0.00     0.143 C 
HETATM   10  N3  UNL     1      22.937   4.150  51.291  1.00  0.00    -0.407 N 
HETATM   11  C14 UNL     1      21.951   5.125  51.138  1.00  0.00     0.143 C 
HETATM   12  C15 UNL     1      22.313   6.548  51.039  1.00  0.00     0.194 C 
HETATM   13  O2  UNL     1      23.247   6.921  50.073  1.00  0.00    -0.352 OA
HETATM   14  C16 UNL     1      24.481   6.361  49.688  1.00  0.00     0.065 A 
HETATM   15  C17 UNL     1      25.368   7.286  49.325  1.00  0.00     0.065 A 
HETATM   16  C18 UNL     1      26.676   6.793  48.910  1.00  0.00     0.064 A 
HETATM   17  N4  UNL     1      27.533   7.681  48.561  1.00  0.00    -0.283 NA
HETATM   18  C19 UNL     1      28.874   7.345  48.124  1.00  0.00     0.206 A 
HETATM   19  C20 UNL     1      24.301   4.446  51.087  1.00  0.00     0.139 C 
ENDROOT
BRANCH   1  20
HETATM   20  N2  UNL     1      30.454   5.670  47.690  1.00  0.00    -0.358 N 
HETATM   21  H6  UNL     1      30.971   6.477  47.228  1.00  0.00     0.166 HD
BRANCH  20  22
HETATM   22  C5  UNL     1      31.544   4.758  47.574  1.00  0.00     0.034 A 
HETATM   23  C4  UNL     1      31.356   3.613  46.792  1.00  0.00     0.029 A 
HETATM   24  C3  UNL     1      32.383   2.681  46.640  1.00  0.00     0.004 A 
HETATM   25  C2  UNL     1      33.540   3.003  47.313  1.00  0.00     0.029 A 
HETATM   26  C1  UNL     1      33.806   4.094  48.093  1.00  0.00     0.027 A 
HETATM   27  C21 UNL     1      32.751   5.005  48.220  1.00  0.00     0.058 A 
BRANCH  26  28
HETATM   28  N1  UNL     1      35.067   4.273  48.722  1.00  0.00    -0.399 N 
HETATM   29  H1  UNL     1      36.048   4.005  48.432  1.00  0.00     0.156 HD
HETATM   30  H2  UNL     1      34.686   4.762  49.571  1.00  0.00     0.156 HD
ENDBRANCH  26  28
ENDBRANCH  20  22
ENDBRANCH   1  20
TORSDOF 3
ENDMDL
MODEL 8
REMARK VINA RESULT:      -8.1      4.956      6.273
REMARK  3 active torsions:
REMARK  status: ('A' for Active; 'I' for Inactive)
REMARK    1  A    between atoms: N1_1  and  C1_2 
REMARK    2  A    between atoms: C5_6  and  N2_7 
REMARK    3  A    between atoms: N2_7  and  C6_8 
ROOT
HETATM    1  C6  UNL     1      25.664   3.124  50.368  1.00  0.00     0.030 A 
HETATM    2  C7  UNL     1      26.470   4.132  50.081  1.00  0.00     0.040 A 
HETATM    3  C8  UNL     1      25.938   5.275  49.346  1.00  0.00    -0.008 A 
HETATM    4  C9  UNL     1      26.714   6.271  49.056  1.00  0.00     0.007 A 
HETATM    5  C10 UNL     1      26.214   7.441  48.315  1.00  0.00     0.064 A 
HETATM    6  C11 UNL     1      26.325   8.602  49.314  1.00  0.00     0.189 C 
HETATM    7  O1  UNL     1      27.634   9.059  49.406  1.00  0.00    -0.388 OA
HETATM    8  C12 UNL     1      27.816  10.240  48.697  1.00  0.00     0.187 C 
HETATM    9  C13 UNL     1      28.079   9.838  47.263  1.00  0.00     0.143 C 
HETATM   10  N3  UNL     1      27.009   9.093  46.673  1.00  0.00    -0.407 N 
HETATM   11  C14 UNL     1      25.869   9.858  46.425  1.00  0.00     0.143 C 
HETATM   12  C15 UNL     1      24.557   9.214  46.256  1.00  0.00     0.194 C 
HETATM   13  O2  UNL     1      24.118   8.347  47.257  1.00  0.00    -0.352 OA
HETATM   14  C16 UNL     1      24.769   7.320  47.968  1.00  0.00     0.065 A 
HETATM   15  C17 UNL     1      23.954   6.306  48.256  1.00  0.00     0.065 A 
HETATM   16  C18 UNL     1      24.547   5.195  48.992  1.00  0.00     0.064 A 
HETATM   17  N4  UNL     1      23.765   4.217  49.270  1.00  0.00    -0.283 NA
HETATM   18  C19 UNL     1      24.208   3.044  49.997  1.00  0.00     0.206 A 
HETATM   19  C20 UNL     1      26.917   7.732  47.035  1.00  0.00     0.139 C 
ENDROOT
BRANCH   1  20
HETATM   20  N2  UNL     1      25.966   1.925  51.069  1.00  0.00    -0.358 N 
HETATM   21  H6  UNL     1      25.381   1.055  50.892  1.00  0.00     0.166 HD
BRANCH  20  22
HETATM   22  C5  UNL     1      26.815   1.297  52.026  1.00  0.00     0.034 A 
HETATM   23  C4  UNL     1      26.742  -0.095  52.149  1.00  0.00     0.029 A 
HETATM   24  C3  UNL     1      27.546  -0.770  53.069  1.00  0.00     0.004 A 
HETATM   25  C2  UNL     1      28.373   0.050  53.801  1.00  0.00     0.029 A 
HETATM   26  C1  UNL     1      28.506   1.409  53.745  1.00  0.00     0.027 A 
HETATM   27  C21 UNL     1      27.684   2.049  52.811  1.00  0.00     0.058 A 
BRANCH  26  28
HETATM   28  N1  UNL     1      29.418   2.107  54.582  1.00  0.00    -0.399 N 
HETATM   29  H1  UNL     1      30.466   2.037  54.702  1.00  0.00     0.156 HD
HETATM   30  H2  UNL     1      28.690   2.712  55.040  1.00  0.00     0.156 HD
ENDBRANCH  26  28
ENDBRANCH  20  22
ENDBRANCH   1  20
TORSDOF 3
ENDMDL
MODEL 9
REMARK VINA RESULT:      -8.1      3.036      3.982
REMARK  3 active torsions:
REMARK  status: ('A' for Active; 'I' for Inactive)
REMARK    1  A    between atoms: N1_1  and  C1_2 
REMARK    2  A    between atoms: C5_6  and  N2_7 
REMARK    3  A    between atoms: N2_7  and  C6_8 
ROOT
HETATM    1  C6  UNL     1      22.324  -0.475  53.227  1.00  0.00     0.030 A 
HETATM    2  C7  UNL     1      21.630   0.177  52.309  1.00  0.00     0.040 A 
HETATM    3  C8  UNL     1      20.182   0.001  52.261  1.00  0.00    -0.008 A 
HETATM    4  C9  UNL     1      19.487   0.632  51.368  1.00  0.00     0.007 A 
HETATM    5  C10 UNL     1      18.024   0.480  51.288  1.00  0.00     0.064 A 
HETATM    6  C11 UNL     1      17.475   1.872  51.632  1.00  0.00     0.189 C 
HETATM    7  O1  UNL     1      17.574   2.731  50.544  1.00  0.00    -0.388 OA
HETATM    8  C12 UNL     1      16.350   2.896  49.908  1.00  0.00     0.187 C 
HETATM    9  C13 UNL     1      16.209   1.734  48.951  1.00  0.00     0.143 C 
HETATM   10  N3  UNL     1      16.238   0.456  49.595  1.00  0.00    -0.407 N 
HETATM   11  C14 UNL     1      15.097   0.189  50.352  1.00  0.00     0.143 C 
HETATM   12  C15 UNL     1      15.125  -0.825  51.417  1.00  0.00     0.194 C 
HETATM   13  O2  UNL     1      16.110  -0.719  52.399  1.00  0.00    -0.352 OA
HETATM   14  C16 UNL     1      17.492  -0.452  52.324  1.00  0.00     0.065 A 
HETATM   15  C17 UNL     1      18.188  -1.110  53.249  1.00  0.00     0.065 A 
HETATM   16  C18 UNL     1      19.630  -0.891  53.244  1.00  0.00     0.064 A 
HETATM   17  N4  UNL     1      20.303  -1.524  54.134  1.00  0.00    -0.283 NA
HETATM   18  C19 UNL     1      21.742  -1.407  54.255  1.00  0.00     0.206 A 
HETATM   19  C20 UNL     1      17.507  -0.022  49.985  1.00  0.00     0.139 C 
ENDROOT
BRANCH   1  20
HETATM   20  N2  UNL     1      23.727  -0.452  53.453  1.00  0.00    -0.358 N 
HETATM   21  H6  UNL     1      24.133  -1.001  54.268  1.00  0.00     0.166 HD
BRANCH  20  22
HETATM   22  C5  UNL     1      24.987   0.048  53.014  1.00  0.00     0.034 A 
HETATM   23  C4  UNL     1      26.101  -0.790  53.137  1.00  0.00     0.029 A 
HETATM   24  C3  UNL     1      27.363  -0.359  52.727  1.00  0.00     0.004 A 
HETATM   25  C2  UNL     1      27.382   0.918  52.215  1.00  0.00     0.029 A 
HETATM   26  C1  UNL     1      26.349   1.799  52.061  1.00  0.00     0.027 A 
HETATM   27  C21 UNL     1      25.100   1.330  52.483  1.00  0.00     0.058 A 
BRANCH  26  28
HETATM   28  N1  UNL     1      26.545   3.093  51.509  1.00  0.00    -0.399 N 
HETATM   29  H1  UNL     1      26.075   4.022  51.695  1.00  0.00     0.156 HD
HETATM   30  H2  UNL     1      27.316   2.806  50.855  1.00  0.00     0.156 HD
ENDBRANCH  26  28
ENDBRANCH  20  22
ENDBRANCH   1  20
TORSDOF 3
ENDMDL
