MODEL 1
REMARK VINA RESULT:      -7.4      0.000      0.000
REMARK  6 active torsions:
REMARK  status: ('A' for Active; 'I' for Inactive)
REMARK    1  A    between atoms: C7_8  and  N2_9 
REMARK    2  A    between atoms: N2_9  and  C8_10 
REMARK    3  A    between atoms: C8_10  and  C9_11 
REMARK    4  A    between atoms: C10_13  and  C11_14 
REMARK    5  A    between atoms: C11_14  and  N3_15 
REMARK    6  A    between atoms: N3_15  and  C12_16 
ROOT
HETATM    1  C9  UNL     1      23.051   3.620  51.357  1.00  0.00     0.027 C 
HETATM    2 CL1  UNL     1      22.253   4.903  52.249  1.00  0.00    -0.087 Cl
HETATM    3  C10 UNL     1      24.400   3.684  51.378  1.00  0.00     0.014 C 
ENDROOT
BRANCH   1   4
HETATM    4  C8  UNL     1      22.354   2.537  50.637  1.00  0.00     0.165 C 
BRANCH   4   5
HETATM    5  N2  UNL     1      22.205   1.311  51.333  1.00  0.00    -0.412 N 
HETATM    6  H15 UNL     1      21.470   0.692  50.981  1.00  0.00     0.153 HD
BRANCH   5   7
HETATM    7  C7  UNL     1      22.209   1.347  52.755  1.00  0.00     0.082 C 
HETATM    8  C2  UNL     1      20.803   1.043  53.215  1.00  0.00     0.021 C 
HETATM    9  C1  UNL     1      20.077   0.196  52.203  1.00  0.00     0.014 C 
HETATM   10  C3  UNL     1      20.693   0.415  54.559  1.00  0.00     0.120 C 
HETATM   11  N1  UNL     1      20.991  -0.973  54.642  1.00  0.00    -0.421 N 
HETATM   12  C4  UNL     1      22.364  -1.341  54.648  1.00  0.00     0.113 C 
HETATM   13  H7  UNL     1      20.322  -1.629  54.238  1.00  0.00     0.153 HD
HETATM   14  C5  UNL     1      23.059  -0.946  53.375  1.00  0.00     0.021 C 
HETATM   15  C6  UNL     1      23.266   0.530  53.410  1.00  0.00     0.027 C 
ENDBRANCH   5   7
ENDBRANCH   4   5
ENDBRANCH   1   4
BRANCH   3  16
HETATM   16  C11 UNL     1      25.532   2.893  50.824  1.00  0.00     0.148 C 
BRANCH  16  17
HETATM   17  N3  UNL     1      26.775   3.131  51.560  1.00  0.00    -0.386 N 
HETATM   18  H21 UNL     1      27.290   4.027  51.546  1.00  0.00     0.160 HD
BRANCH  17  19
HETATM   19  C12 UNL     1      27.297   2.064  52.337  1.00  0.00     0.029 A 
HETATM   20  C13 UNL     1      28.204   2.289  53.348  1.00  0.00     0.029 A 
HETATM   21  C14 UNL     1      28.731   1.250  54.123  1.00  0.00     0.004 A 
HETATM   22  C15 UNL     1      28.309  -0.033  53.844  1.00  0.00     0.019 A 
HETATM   23  C16 UNL     1      27.410  -0.308  52.850  1.00  0.00     0.013 A 
HETATM   24 BR1  UNL     1      26.868  -2.099  52.516  1.00  0.00    -0.051 Br
HETATM   25  C17 UNL     1      26.923   0.755  52.117  1.00  0.00     0.048 A 
ENDBRANCH  17  19
ENDBRANCH  16  17
ENDBRANCH   3  16
TORSDOF 6
ENDMDL
MODEL 2
REMARK VINA RESULT:      -7.1      2.789      6.470
REMARK  6 active torsions:
REMARK  status: ('A' for Active; 'I' for Inactive)
REMARK    1  A    between atoms: C7_8  and  N2_9 
REMARK    2  A    between atoms: N2_9  and  C8_10 
REMARK    3  A    between atoms: C8_10  and  C9_11 
REMARK    4  A    between atoms: C10_13  and  C11_14 
REMARK    5  A    between atoms: C11_14  and  N3_15 
REMARK    6  A    between atoms: N3_15  and  C12_16 
ROOT
HETATM    1  C9  UNL     1      22.928  -0.272  53.943  1.00  0.00     0.027 C 
HETATM    2 CL1  UNL     1      23.070  -1.381  55.295  1.00  0.00    -0.087 Cl
HETATM    3  C10 UNL     1      21.658  -0.037  53.547  1.00  0.00     0.014 C 
ENDROOT
BRANCH   1   4
HETATM    4  C8  UNL     1      24.067   0.380  53.267  1.00  0.00     0.165 C 
BRANCH   4   5
HETATM    5  N2  UNL     1      25.343  -0.198  53.482  1.00  0.00    -0.412 N 
HETATM    6  H15 UNL     1      25.345  -1.208  53.646  1.00  0.00     0.153 HD
BRANCH   5   7
HETATM    7  C7  UNL     1      26.237   0.469  54.366  1.00  0.00     0.082 C 
HETATM    8  C2  UNL     1      27.517  -0.332  54.396  1.00  0.00     0.021 C 
HETATM    9  C1  UNL     1      27.708  -1.092  53.111  1.00  0.00     0.014 C 
HETATM   10  C3  UNL     1      28.749   0.446  54.702  1.00  0.00     0.120 C 
HETATM   11  N1  UNL     1      29.292   1.222  53.642  1.00  0.00    -0.421 N 
HETATM   12  C4  UNL     1      28.654   2.460  53.354  1.00  0.00     0.113 C 
HETATM   13  H7  UNL     1      29.748   0.729  52.874  1.00  0.00     0.153 HD
HETATM   14  C5  UNL     1      27.232   2.270  52.906  1.00  0.00     0.021 C 
HETATM   15  C6  UNL     1      26.421   1.923  54.107  1.00  0.00     0.027 C 
ENDBRANCH   5   7
ENDBRANCH   4   5
ENDBRANCH   1   4
BRANCH   3  16
HETATM   16  C11 UNL     1      20.981   0.781  52.506  1.00  0.00     0.148 C 
BRANCH  16  17
HETATM   17  N3  UNL     1      21.203   0.245  51.162  1.00  0.00    -0.386 N 
HETATM   18  H21 UNL     1      20.954  -0.718  50.878  1.00  0.00     0.160 HD
BRANCH  17  19
HETATM   19  C12 UNL     1      21.794   1.101  50.198  1.00  0.00     0.029 A 
HETATM   20  C13 UNL     1      21.391   1.088  48.882  1.00  0.00     0.029 A 
HETATM   21  C14 UNL     1      21.962   1.924  47.917  1.00  0.00     0.004 A 
HETATM   22  C15 UNL     1      22.962   2.782  48.326  1.00  0.00     0.019 A 
HETATM   23  C16 UNL     1      23.398   2.834  49.622  1.00  0.00     0.013 A 
HETATM   24 BR1  UNL     1      24.779   4.039  50.122  1.00  0.00    -0.051 Br
HETATM   25  C17 UNL     1      22.798   1.986  50.531  1.00  0.00     0.048 A 
ENDBRANCH  17  19
ENDBRANCH  16  17
ENDBRANCH   3  16
TORSDOF 6
ENDMDL
MODEL 3
REMARK VINA RESULT:      -7.1      2.082      5.568
REMARK  6 active torsions:
REMARK  status: ('A' for Active; 'I' for Inactive)
REMARK    1  A    between atoms: C7_8  and  N2_9 
REMARK    2  A    between atoms: N2_9  and  C8_10 
REMARK    3  A    between atoms: C8_10  and  C9_11 
REMARK    4  A    between atoms: C10_13  and  C11_14 
REMARK    5  A    between atoms: C11_14  and  N3_15 
REMARK    6  A    between atoms: N3_15  and  C12_16 
ROOT
HETATM    1  C9  UNL     1      23.762   3.405  51.666  1.00  0.00     0.027 C 
HETATM    2 CL1  UNL     1      23.707   4.496  53.038  1.00  0.00    -0.087 Cl
HETATM    3  C10 UNL     1      22.589   3.275  51.010  1.00  0.00     0.014 C 
ENDROOT
BRANCH   1   4
HETATM    4  C8  UNL     1      24.965   2.673  51.221  1.00  0.00     0.165 C 
BRANCH   4   5
HETATM    5  N2  UNL     1      25.293   1.500  51.947  1.00  0.00    -0.412 N 
HETATM    6  H15 UNL     1      24.639   0.721  51.840  1.00  0.00     0.153 HD
BRANCH   5   7
HETATM    7  C7  UNL     1      25.702   1.647  53.301  1.00  0.00     0.082 C 
HETATM    8  C2  UNL     1      25.548   0.298  53.964  1.00  0.00     0.021 C 
HETATM    9  C1  UNL     1      25.678  -0.815  52.958  1.00  0.00     0.014 C 
HETATM   10  C3  UNL     1      26.462   0.042  55.110  1.00  0.00     0.120 C 
HETATM   11  N1  UNL     1      27.805  -0.300  54.791  1.00  0.00    -0.421 N 
HETATM   12  C4  UNL     1      28.671   0.763  54.415  1.00  0.00     0.113 C 
HETATM   13  H7  UNL     1      27.981  -1.223  54.394  1.00  0.00     0.153 HD
HETATM   14  C5  UNL     1      28.214   1.444  53.156  1.00  0.00     0.021 C 
HETATM   15  C6  UNL     1      27.032   2.286  53.499  1.00  0.00     0.027 C 
ENDBRANCH   5   7
ENDBRANCH   4   5
ENDBRANCH   1   4
BRANCH   3  16
HETATM   16  C11 UNL     1      22.084   2.523  49.830  1.00  0.00     0.148 C 
BRANCH  16  17
HETATM   17  N3  UNL     1      22.109   1.077  50.054  1.00  0.00    -0.386 N 
HETATM   18  H21 UNL     1      22.642   0.413  49.467  1.00  0.00     0.160 HD
BRANCH  17  19
HETATM   19  C12 UNL     1      21.356   0.563  51.141  1.00  0.00     0.029 A 
HETATM   20  C13 UNL     1      19.980   0.574  51.131  1.00  0.00     0.029 A 
HETATM   21  C14 UNL     1      19.221   0.073  52.194  1.00  0.00     0.004 A 
HETATM   22  C15 UNL     1      19.902  -0.445  53.277  1.00  0.00     0.019 A 
HETATM   23  C16 UNL     1      21.268  -0.479  53.335  1.00  0.00     0.013 A 
HETATM   24 BR1  UNL     1      22.146  -1.207  54.855  1.00  0.00    -0.051 Br
HETATM   25  C17 UNL     1      21.965   0.029  52.257  1.00  0.00     0.048 A 
ENDBRANCH  17  19
ENDBRANCH  16  17
ENDBRANCH   3  16
TORSDOF 6
ENDMDL
MODEL 4
REMARK VINA RESULT:      -7.0      2.812      6.208
REMARK  6 active torsions:
REMARK  status: ('A' for Active; 'I' for Inactive)
REMARK    1  A    between atoms: C7_8  and  N2_9 
REMARK    2  A    between atoms: N2_9  and  C8_10 
REMARK    3  A    between atoms: C8_10  and  C9_11 
REMARK    4  A    between atoms: C10_13  and  C11_14 
REMARK    5  A    between atoms: C11_14  and  N3_15 
REMARK    6  A    between atoms: N3_15  and  C12_16 
ROOT
HETATM    1  C9  UNL     1      22.742  -0.971  54.366  1.00  0.00     0.027 C 
HETATM    2 CL1  UNL     1      23.441  -1.420  55.912  1.00  0.00    -0.087 Cl
HETATM    3  C10 UNL     1      21.406  -0.775  54.396  1.00  0.00     0.014 C 
ENDROOT
BRANCH   1   4
HETATM    4  C8  UNL     1      23.507  -0.802  53.115  1.00  0.00     0.165 C 
BRANCH   4   5
HETATM    5  N2  UNL     1      24.144   0.451  52.930  1.00  0.00    -0.412 N 
HETATM    6  H15 UNL     1      23.590   1.156  52.438  1.00  0.00     0.153 HD
BRANCH   5   7
HETATM    7  C7  UNL     1      25.494   0.452  52.483  1.00  0.00     0.082 C 
HETATM    8  C2  UNL     1      25.953   1.891  52.448  1.00  0.00     0.021 C 
HETATM    9  C1  UNL     1      25.192   2.724  53.445  1.00  0.00     0.014 C 
HETATM   10  C3  UNL     1      27.414   2.100  52.637  1.00  0.00     0.120 C 
HETATM   11  N1  UNL     1      27.904   2.007  53.968  1.00  0.00    -0.421 N 
HETATM   12  C4  UNL     1      28.082   0.700  54.501  1.00  0.00     0.113 C 
HETATM   13  H7  UNL     1      27.673   2.760  54.617  1.00  0.00     0.153 HD
HETATM   14  C5  UNL     1      26.786  -0.054  54.591  1.00  0.00     0.021 C 
HETATM   15  C6  UNL     1      26.407  -0.471  53.211  1.00  0.00     0.027 C 
ENDBRANCH   5   7
ENDBRANCH   4   5
ENDBRANCH   1   4
BRANCH   3  16
HETATM   16  C11 UNL     1      20.345  -0.394  53.426  1.00  0.00     0.148 C 
BRANCH  16  17
HETATM   17  N3  UNL     1      20.305   1.053  53.203  1.00  0.00    -0.386 N 
HETATM   18  H21 UNL     1      19.777   1.713  53.800  1.00  0.00     0.160 HD
BRANCH  17  19
HETATM   19  C12 UNL     1      21.034   1.572  52.103  1.00  0.00     0.029 A 
HETATM   20  C13 UNL     1      21.188   0.854  50.938  1.00  0.00     0.029 A 
HETATM   21  C14 UNL     1      21.904   1.349  49.844  1.00  0.00     0.004 A 
HETATM   22  C15 UNL     1      22.464   2.605  49.962  1.00  0.00     0.019 A 
HETATM   23  C16 UNL     1      22.340   3.358  51.097  1.00  0.00     0.013 A 
HETATM   24 BR1  UNL     1      23.135   5.081  51.197  1.00  0.00    -0.051 Br
HETATM   25  C17 UNL     1      21.623   2.819  52.146  1.00  0.00     0.048 A 
ENDBRANCH  17  19
ENDBRANCH  16  17
ENDBRANCH   3  16
TORSDOF 6
ENDMDL
MODEL 5
REMARK VINA RESULT:      -7.0      2.541      5.623
REMARK  6 active torsions:
REMARK  status: ('A' for Active; 'I' for Inactive)
REMARK    1  A    between atoms: C7_8  and  N2_9 
REMARK    2  A    between atoms: N2_9  and  C8_10 
REMARK    3  A    between atoms: C8_10  and  C9_11 
REMARK    4  A    between atoms: C10_13  and  C11_14 
REMARK    5  A    between atoms: C11_14  and  N3_15 
REMARK    6  A    between atoms: N3_15  and  C12_16 
ROOT
HETATM    1  C9  UNL     1      22.178  -0.092  53.227  1.00  0.00     0.027 C 
HETATM    2 CL1  UNL     1      20.950  -0.220  54.474  1.00  0.00    -0.087 Cl
HETATM    3  C10 UNL     1      21.823   0.678  52.175  1.00  0.00     0.014 C 
ENDROOT
BRANCH   1   4
HETATM    4  C8  UNL     1      23.501  -0.742  53.279  1.00  0.00     0.165 C 
BRANCH   4   5
HETATM    5  N2  UNL     1      24.577   0.054  53.747  1.00  0.00    -0.412 N 
HETATM    6  H15 UNL     1      24.312   0.952  54.158  1.00  0.00     0.153 HD
BRANCH   5   7
HETATM    7  C7  UNL     1      25.720   0.188  52.910  1.00  0.00     0.082 C 
HETATM    8  C2  UNL     1      25.790   1.634  52.476  1.00  0.00     0.021 C 
HETATM    9  C1  UNL     1      25.141   2.533  53.495  1.00  0.00     0.014 C 
HETATM   10  C3  UNL     1      27.153   2.140  52.162  1.00  0.00     0.120 C 
HETATM   11  N1  UNL     1      27.985   2.461  53.269  1.00  0.00    -0.421 N 
HETATM   12  C4  UNL     1      28.609   1.376  53.945  1.00  0.00     0.113 C 
HETATM   13  H7  UNL     1      27.758   3.295  53.812  1.00  0.00     0.153 HD
HETATM   14  C5  UNL     1      27.605   0.447  54.567  1.00  0.00     0.021 C 
HETATM   15  C6  UNL     1      26.987  -0.353  53.471  1.00  0.00     0.027 C 
ENDBRANCH   5   7
ENDBRANCH   4   5
ENDBRANCH   1   4
BRANCH   3  16
HETATM   16  C11 UNL     1      22.444   1.120  50.897  1.00  0.00     0.148 C 
BRANCH  16  17
HETATM   17  N3  UNL     1      21.976   2.448  50.496  1.00  0.00    -0.386 N 
HETATM   18  H21 UNL     1      21.030   2.638  50.124  1.00  0.00     0.160 HD
BRANCH  17  19
HETATM   19  C12 UNL     1      22.880   3.534  50.626  1.00  0.00     0.029 A 
HETATM   20  C13 UNL     1      22.591   4.618  51.424  1.00  0.00     0.029 A 
HETATM   21  C14 UNL     1      23.469   5.698  51.564  1.00  0.00     0.004 A 
HETATM   22  C15 UNL     1      24.659   5.648  50.867  1.00  0.00     0.019 A 
HETATM   23  C16 UNL     1      24.993   4.594  50.061  1.00  0.00     0.013 A 
HETATM   24 BR1  UNL     1      26.648   4.586  49.128  1.00  0.00    -0.051 Br
HETATM   25  C17 UNL     1      24.089   3.556  49.961  1.00  0.00     0.048 A 
ENDBRANCH  17  19
ENDBRANCH  16  17
ENDBRANCH   3  16
TORSDOF 6
ENDMDL
MODEL 6
REMARK VINA RESULT:      -7.0      3.581      5.943
REMARK  6 active torsions:
REMARK  status: ('A' for Active; 'I' for Inactive)
REMARK    1  A    between atoms: C7_8  and  N2_9 
REMARK    2  A    between atoms: N2_9  and  C8_10 
REMARK    3  A    between atoms: C8_10  and  C9_11 
REMARK    4  A    between atoms: C10_13  and  C11_14 
REMARK    5  A    between atoms: C11_14  and  N3_15 
REMARK    6  A    between atoms: N3_15  and  C12_16 
ROOT
HETATM    1  C9  UNL     1      22.713   1.080  51.726  1.00  0.00     0.027 C 
HETATM    2 CL1  UNL     1      21.329   0.168  51.151  1.00  0.00    -0.087 Cl
HETATM    3  C10 UNL     1      23.088   2.092  50.914  1.00  0.00     0.014 C 
ENDROOT
BRANCH   1   4
HETATM    4  C8  UNL     1      23.435   0.809  52.985  1.00  0.00     0.165 C 
BRANCH   4   5
HETATM    5  N2  UNL     1      24.769   0.349  52.859  1.00  0.00    -0.412 N 
HETATM    6  H15 UNL     1      24.871  -0.629  52.576  1.00  0.00     0.153 HD
BRANCH   5   7
HETATM    7  C7  UNL     1      25.690   0.684  53.891  1.00  0.00     0.082 C 
HETATM    8  C2  UNL     1      26.735  -0.406  53.931  1.00  0.00     0.021 C 
HETATM    9  C1  UNL     1      26.884  -1.058  52.582  1.00  0.00     0.014 C 
HETATM   10  C3  UNL     1      28.072   0.010  54.433  1.00  0.00     0.120 C 
HETATM   11  N1  UNL     1      28.898   0.730  53.527  1.00  0.00    -0.421 N 
HETATM   12  C4  UNL     1      28.605   2.109  53.342  1.00  0.00     0.113 C 
HETATM   13  H7  UNL     1      29.308   0.219  52.745  1.00  0.00     0.153 HD
HETATM   14  C5  UNL     1      27.238   2.321  52.755  1.00  0.00     0.021 C 
HETATM   15  C6  UNL     1      26.238   2.066  53.831  1.00  0.00     0.027 C 
ENDBRANCH   5   7
ENDBRANCH   4   5
ENDBRANCH   1   4
BRANCH   3  16
HETATM   16  C11 UNL     1      24.140   3.144  50.908  1.00  0.00     0.148 C 
BRANCH  16  17
HETATM   17  N3  UNL     1      24.029   4.019  49.740  1.00  0.00    -0.386 N 
HETATM   18  H21 UNL     1      23.146   4.185  49.227  1.00  0.00     0.160 HD
BRANCH  17  19
HETATM   19  C12 UNL     1      25.204   4.675  49.291  1.00  0.00     0.029 A 
HETATM   20  C13 UNL     1      26.426   4.041  49.291  1.00  0.00     0.029 A 
HETATM   21  C14 UNL     1      27.595   4.671  48.853  1.00  0.00     0.004 A 
HETATM   22  C15 UNL     1      27.491   5.974  48.410  1.00  0.00     0.019 A 
HETATM   23  C16 UNL     1      26.300   6.648  48.390  1.00  0.00     0.013 A 
HETATM   24 BR1  UNL     1      26.224   8.441  47.767  1.00  0.00    -0.051 Br
HETATM   25  C17 UNL     1      25.179   5.976  48.834  1.00  0.00     0.048 A 
ENDBRANCH  17  19
ENDBRANCH  16  17
ENDBRANCH   3  16
TORSDOF 6
ENDMDL
MODEL 7
REMARK VINA RESULT:      -7.0      2.111      5.739
REMARK  6 active torsions:
REMARK  status: ('A' for Active; 'I' for Inactive)
REMARK    1  A    between atoms: C7_8  and  N2_9 
REMARK    2  A    between atoms: N2_9  and  C8_10 
REMARK    3  A    between atoms: C8_10  and  C9_11 
REMARK    4  A    between atoms: C10_13  and  C11_14 
REMARK    5  A    between atoms: C11_14  and  N3_15 
REMARK    6  A    between atoms: N3_15  and  C12_16 
ROOT
HETATM    1  C9  UNL     1      23.914   3.732  51.537  1.00  0.00     0.027 C 
HETATM    2 CL1  UNL     1      23.768   4.611  53.048  1.00  0.00    -0.087 Cl
HETATM    3  C10 UNL     1      22.736   3.451  50.940  1.00  0.00     0.014 C 
ENDROOT
BRANCH   1   4
HETATM    4  C8  UNL     1      25.193   3.319  50.924  1.00  0.00     0.165 C 
BRANCH   4   5
HETATM    5  N2  UNL     1      26.191   2.841  51.810  1.00  0.00    -0.412 N 
HETATM    6  H15 UNL     1      27.054   3.390  51.836  1.00  0.00     0.153 HD
BRANCH   5   7
HETATM    7  C7  UNL     1      26.467   1.446  51.812  1.00  0.00     0.082 C 
HETATM    8  C2  UNL     1      27.728   1.241  52.619  1.00  0.00     0.021 C 
HETATM    9  C1  UNL     1      27.895   2.330  53.644  1.00  0.00     0.014 C 
HETATM   10  C3  UNL     1      27.854  -0.087  53.278  1.00  0.00     0.120 C 
HETATM   11  N1  UNL     1      27.097  -0.284  54.465  1.00  0.00    -0.421 N 
HETATM   12  C4  UNL     1      25.711  -0.560  54.309  1.00  0.00     0.113 C 
HETATM   13  H7  UNL     1      27.394   0.207  55.309  1.00  0.00     0.153 HD
HETATM   14  C5  UNL     1      24.979   0.578  53.656  1.00  0.00     0.021 C 
HETATM   15  C6  UNL     1      25.330   0.572  52.207  1.00  0.00     0.027 C 
ENDBRANCH   5   7
ENDBRANCH   4   5
ENDBRANCH   1   4
BRANCH   3  16
HETATM   16  C11 UNL     1      22.285   2.765  49.699  1.00  0.00     0.148 C 
BRANCH  16  17
HETATM   17  N3  UNL     1      22.221   1.313  49.872  1.00  0.00    -0.386 N 
HETATM   18  H21 UNL     1      22.804   0.643  49.341  1.00  0.00     0.160 HD
BRANCH  17  19
HETATM   19  C12 UNL     1      21.304   0.800  50.825  1.00  0.00     0.029 A 
HETATM   20  C13 UNL     1      19.945   0.850  50.614  1.00  0.00     0.029 A 
HETATM   21  C14 UNL     1      19.025   0.350  51.542  1.00  0.00     0.004 A 
HETATM   22  C15 UNL     1      19.526  -0.207  52.701  1.00  0.00     0.019 A 
HETATM   23  C16 UNL     1      20.867  -0.279  52.958  1.00  0.00     0.013 A 
HETATM   24 BR1  UNL     1      21.493  -1.059  54.574  1.00  0.00    -0.051 Br
HETATM   25  C17 UNL     1      21.728   0.229  52.007  1.00  0.00     0.048 A 
ENDBRANCH  17  19
ENDBRANCH  16  17
ENDBRANCH   3  16
TORSDOF 6
ENDMDL
MODEL 8
REMARK VINA RESULT:      -6.9      2.712      5.877
REMARK  6 active torsions:
REMARK  status: ('A' for Active; 'I' for Inactive)
REMARK    1  A    between atoms: C7_8  and  N2_9 
REMARK    2  A    between atoms: N2_9  and  C8_10 
REMARK    3  A    between atoms: C8_10  and  C9_11 
REMARK    4  A    between atoms: C10_13  and  C11_14 
REMARK    5  A    between atoms: C11_14  and  N3_15 
REMARK    6  A    between atoms: N3_15  and  C12_16 
ROOT
HETATM    1  C9  UNL     1      27.311   1.593  52.939  1.00  0.00     0.027 C 
HETATM    2 CL1  UNL     1      28.632   2.532  53.611  1.00  0.00    -0.087 Cl
HETATM    3  C10 UNL     1      27.039   0.454  53.612  1.00  0.00     0.014 C 
ENDROOT
BRANCH   1   4
HETATM    4  C8  UNL     1      26.529   1.976  51.747  1.00  0.00     0.165 C 
BRANCH   4   5
HETATM    5  N2  UNL     1      25.452   2.873  51.962  1.00  0.00    -0.412 N 
HETATM    6  H15 UNL     1      25.033   2.840  52.894  1.00  0.00     0.153 HD
BRANCH   5   7
HETATM    7  C7  UNL     1      24.454   2.970  50.952  1.00  0.00     0.082 C 
HETATM    8  C2  UNL     1      23.247   3.628  51.578  1.00  0.00     0.021 C 
HETATM    9  C1  UNL     1      23.652   4.519  52.722  1.00  0.00     0.014 C 
HETATM   10  C3  UNL     1      22.377   4.388  50.639  1.00  0.00     0.120 C 
HETATM   11  N1  UNL     1      22.836   5.673  50.242  1.00  0.00    -0.421 N 
HETATM   12  C4  UNL     1      23.849   5.717  49.244  1.00  0.00     0.113 C 
HETATM   13  H7  UNL     1      22.813   6.423  50.933  1.00  0.00     0.153 HD
HETATM   14  C5  UNL     1      25.120   5.057  49.700  1.00  0.00     0.021 C 
HETATM   15  C6  UNL     1      24.901   3.583  49.672  1.00  0.00     0.027 C 
ENDBRANCH   5   7
ENDBRANCH   4   5
ENDBRANCH   1   4
BRANCH   3  16
HETATM   16  C11 UNL     1      26.069  -0.668  53.497  1.00  0.00     0.148 C 
BRANCH  16  17
HETATM   17  N3  UNL     1      25.053  -0.619  54.550  1.00  0.00    -0.386 N 
HETATM   18  H21 UNL     1      25.271  -0.575  55.560  1.00  0.00     0.160 HD
BRANCH  17  19
HETATM   19  C12 UNL     1      23.690  -0.633  54.154  1.00  0.00     0.029 A 
HETATM   20  C13 UNL     1      22.711  -1.157  54.968  1.00  0.00     0.029 A 
HETATM   21  C14 UNL     1      21.363  -1.180  54.595  1.00  0.00     0.004 A 
HETATM   22  C15 UNL     1      21.032  -0.653  53.363  1.00  0.00     0.019 A 
HETATM   23  C16 UNL     1      21.967  -0.121  52.519  1.00  0.00     0.013 A 
HETATM   24 BR1  UNL     1      21.446   0.590  50.836  1.00  0.00    -0.051 Br
HETATM   25  C17 UNL     1      23.282  -0.124  52.939  1.00  0.00     0.048 A 
ENDBRANCH  17  19
ENDBRANCH  16  17
ENDBRANCH   3  16
TORSDOF 6
ENDMDL
MODEL 9
REMARK VINA RESULT:      -6.9      3.056      5.811
REMARK  6 active torsions:
REMARK  status: ('A' for Active; 'I' for Inactive)
REMARK    1  A    between atoms: C7_8  and  N2_9 
REMARK    2  A    between atoms: N2_9  and  C8_10 
REMARK    3  A    between atoms: C8_10  and  C9_11 
REMARK    4  A    between atoms: C10_13  and  C11_14 
REMARK    5  A    between atoms: C11_14  and  N3_15 
REMARK    6  A    between atoms: N3_15  and  C12_16 
ROOT
HETATM    1  C9  UNL     1      26.026   4.169  49.916  1.00  0.00     0.027 C 
HETATM    2 CL1  UNL     1      27.359   4.594  48.858  1.00  0.00    -0.087 Cl
HETATM    3  C10 UNL     1      25.126   5.159  50.102  1.00  0.00     0.014 C 
ENDROOT
BRANCH   1   4
HETATM    4  C8  UNL     1      25.853   2.855  50.565  1.00  0.00     0.165 C 
BRANCH   4   5
HETATM    5  N2  UNL     1      26.764   2.540  51.604  1.00  0.00    -0.412 N 
HETATM    6  H15 UNL     1      27.648   3.055  51.583  1.00  0.00     0.153 HD
BRANCH   5   7
HETATM    7  C7  UNL     1      26.976   1.167  51.912  1.00  0.00     0.082 C 
HETATM    8  C2  UNL     1      28.105   1.102  52.913  1.00  0.00     0.021 C 
HETATM    9  C1  UNL     1      28.179   2.368  53.724  1.00  0.00     0.014 C 
HETATM   10  C3  UNL     1      28.081  -0.073  53.826  1.00  0.00     0.120 C 
HETATM   11  N1  UNL     1      27.161  -0.021  54.909  1.00  0.00    -0.421 N 
HETATM   12  C4  UNL     1      25.798  -0.297  54.614  1.00  0.00     0.113 C 
HETATM   13  H7  UNL     1      27.363   0.621  55.676  1.00  0.00     0.153 HD
HETATM   14  C5  UNL     1      25.213   0.704  53.658  1.00  0.00     0.021 C 
HETATM   15  C6  UNL     1      25.757   0.407  52.301  1.00  0.00     0.027 C 
ENDBRANCH   5   7
ENDBRANCH   4   5
ENDBRANCH   1   4
BRANCH   3  16
HETATM   16  C11 UNL     1      23.858   5.344  50.858  1.00  0.00     0.148 C 
BRANCH  16  17
HETATM   17  N3  UNL     1      22.683   5.112  50.016  1.00  0.00    -0.386 N 
HETATM   18  H21 UNL     1      22.080   5.867  49.648  1.00  0.00     0.160 HD
BRANCH  17  19
HETATM   19  C12 UNL     1      22.358   3.770  49.691  1.00  0.00     0.029 A 
HETATM   20  C13 UNL     1      22.253   3.352  48.383  1.00  0.00     0.029 A 
HETATM   21  C14 UNL     1      21.933   2.034  48.043  1.00  0.00     0.004 A 
HETATM   22  C15 UNL     1      21.721   1.141  49.074  1.00  0.00     0.019 A 
HETATM   23  C16 UNL     1      21.814   1.507  50.389  1.00  0.00     0.013 A 
HETATM   24 BR1  UNL     1      21.511   0.229  51.763  1.00  0.00    -0.051 Br
HETATM   25  C17 UNL     1      22.133   2.821  50.666  1.00  0.00     0.048 A 
ENDBRANCH  17  19
ENDBRANCH  16  17
ENDBRANCH   3  16
TORSDOF 6
ENDMDL
