MODEL 1
REMARK VINA RESULT:      -8.1      0.000      0.000
REMARK  4 active torsions:
REMARK  status: ('A' for Active; 'I' for Inactive)
REMARK    1  A    between atoms: C2_2  and  N1_3 
REMARK    2  A    between atoms: C2_2  and  C14_19 
REMARK    3  A    between atoms: N1_3  and  C3_4 
REMARK    4  A    between atoms: C7_10  and  C8_11 
ROOT
HETATM    1  C3  UNL     1      22.624   2.438  49.986  1.00  0.00     0.138 A 
HETATM    2  N2  UNL     1      22.342   2.821  48.736  1.00  0.00    -0.224 NA
HETATM    3  C4  UNL     1      22.821   3.974  48.237  1.00  0.00     0.237 A 
HETATM    4  N3  UNL     1      23.602   4.769  49.000  1.00  0.00    -0.224 NA
HETATM    5  C5  UNL     1      23.928   4.445  50.266  1.00  0.00     0.138 A 
HETATM    6  C6  UNL     1      23.427   3.244  50.783  1.00  0.00     0.060 A 
HETATM    7  C7  UNL     1      24.073   3.431  52.096  1.00  0.00     0.157 A 
HETATM    8  N4  UNL     1      24.568   4.664  51.517  1.00  0.00    -0.361 N 
HETATM    9  H12 UNL     1      25.180   5.448  51.880  1.00  0.00     0.162 HD
ENDROOT
BRANCH   1  10
HETATM   10  N1  UNL     1      22.117   1.219  50.514  1.00  0.00    -0.366 N 
HETATM   11  H5  UNL     1      22.487   0.305  50.176  1.00  0.00     0.161 HD
BRANCH  10  12
HETATM   12  C2  UNL     1      21.081   1.189  51.526  1.00  0.00     0.112 C 
HETATM   13  C1  UNL     1      19.780   0.613  50.997  1.00  0.00     0.037 C 
BRANCH  12  14
HETATM   14  C14 UNL     1      21.523   0.459  52.740  1.00  0.00    -0.036 A 
HETATM   15  C15 UNL     1      20.849   0.278  53.928  1.00  0.00     0.009 A 
HETATM   16  C16 UNL     1      21.427  -0.440  54.955  1.00  0.00     0.001 A 
HETATM   17  C17 UNL     1      22.679  -1.008  54.869  1.00  0.00     0.000 A 
HETATM   18  C18 UNL     1      23.348  -0.822  53.675  1.00  0.00     0.001 A 
HETATM   19  C19 UNL     1      22.796  -0.106  52.622  1.00  0.00     0.009 A 
ENDBRANCH  12  14
ENDBRANCH  10  12
ENDBRANCH   1  10
BRANCH   7  20
HETATM   20  C8  UNL     1      25.161   2.465  52.410  1.00  0.00    -0.031 A 
HETATM   21  C9  UNL     1      25.824   1.791  51.406  1.00  0.00     0.011 A 
HETATM   22  C10 UNL     1      26.814   0.919  51.816  1.00  0.00     0.019 A 
HETATM   23  C11 UNL     1      27.168   0.692  53.128  1.00  0.00     0.011 A 
HETATM   24 BR1  UNL     1      28.560  -0.542  53.579  1.00  0.00    -0.051 Br
HETATM   25  C12 UNL     1      26.460   1.403  54.069  1.00  0.00     0.019 A 
HETATM   26  C13 UNL     1      25.462   2.288  53.747  1.00  0.00     0.011 A 
ENDBRANCH   7  20
TORSDOF 4
ENDMDL
MODEL 2
REMARK VINA RESULT:      -7.9      3.063      5.176
REMARK  4 active torsions:
REMARK  status: ('A' for Active; 'I' for Inactive)
REMARK    1  A    between atoms: C2_2  and  N1_3 
REMARK    2  A    between atoms: C2_2  and  C14_19 
REMARK    3  A    between atoms: N1_3  and  C3_4 
REMARK    4  A    between atoms: C7_10  and  C8_11 
ROOT
HETATM    1  C3  UNL     1      23.640  -0.778  53.807  1.00  0.00     0.138 A 
HETATM    2  N2  UNL     1      23.626  -1.335  55.023  1.00  0.00    -0.224 NA
HETATM    3  C4  UNL     1      24.677  -1.218  55.854  1.00  0.00     0.237 A 
HETATM    4  N3  UNL     1      25.772  -0.529  55.467  1.00  0.00    -0.224 NA
HETATM    5  C5  UNL     1      25.854   0.059  54.259  1.00  0.00     0.138 A 
HETATM    6  C6  UNL     1      24.759  -0.065  53.395  1.00  0.00     0.060 A 
HETATM    7  C7  UNL     1      25.397   0.721  52.322  1.00  0.00     0.157 A 
HETATM    8  N4  UNL     1      26.505   0.822  53.250  1.00  0.00    -0.361 N 
HETATM    9  H12 UNL     1      27.455   1.288  53.206  1.00  0.00     0.162 HD
ENDROOT
BRANCH   1  10
HETATM   10  N1  UNL     1      22.530  -0.902  52.928  1.00  0.00    -0.366 N 
HETATM   11  H5  UNL     1      22.606  -1.478  52.062  1.00  0.00     0.161 HD
BRANCH  10  12
HETATM   12  C2  UNL     1      21.263  -0.249  53.188  1.00  0.00     0.112 C 
HETATM   13  C1  UNL     1      21.163   0.256  54.617  1.00  0.00     0.037 C 
BRANCH  12  14
HETATM   14  C14 UNL     1      21.006   0.849  52.224  1.00  0.00    -0.036 A 
HETATM   15  C15 UNL     1      20.384   2.059  52.445  1.00  0.00     0.009 A 
HETATM   16  C16 UNL     1      20.235   2.964  51.413  1.00  0.00     0.001 A 
HETATM   17  C17 UNL     1      20.682   2.730  50.131  1.00  0.00     0.000 A 
HETATM   18  C18 UNL     1      21.304   1.516  49.919  1.00  0.00     0.001 A 
HETATM   19  C19 UNL     1      21.471   0.582  50.933  1.00  0.00     0.009 A 
ENDBRANCH  12  14
ENDBRANCH  10  12
ENDBRANCH   1  10
BRANCH   7  20
HETATM   20  C8  UNL     1      24.762   2.037  52.038  1.00  0.00    -0.031 A 
HETATM   21  C9  UNL     1      24.133   2.752  53.035  1.00  0.00     0.011 A 
HETATM   22  C10 UNL     1      23.579   3.959  52.655  1.00  0.00     0.019 A 
HETATM   23  C11 UNL     1      23.618   4.474  51.378  1.00  0.00     0.011 A 
HETATM   24 BR1  UNL     1      22.814   6.162  50.966  1.00  0.00    -0.051 Br
HETATM   25  C12 UNL     1      24.263   3.701  50.441  1.00  0.00     0.019 A 
HETATM   26  C13 UNL     1      24.840   2.491  50.735  1.00  0.00     0.011 A 
ENDBRANCH   7  20
TORSDOF 4
ENDMDL
MODEL 3
REMARK VINA RESULT:      -7.8      3.029      5.167
REMARK  4 active torsions:
REMARK  status: ('A' for Active; 'I' for Inactive)
REMARK    1  A    between atoms: C2_2  and  N1_3 
REMARK    2  A    between atoms: C2_2  and  C14_19 
REMARK    3  A    between atoms: N1_3  and  C3_4 
REMARK    4  A    between atoms: C7_10  and  C8_11 
ROOT
HETATM    1  C3  UNL     1      26.624  -0.039  53.500  1.00  0.00     0.138 A 
HETATM    2  N2  UNL     1      27.399  -0.223  54.575  1.00  0.00    -0.224 NA
HETATM    3  C4  UNL     1      28.355   0.663  54.903  1.00  0.00     0.237 A 
HETATM    4  N3  UNL     1      28.548   1.763  54.144  1.00  0.00    -0.224 NA
HETATM    5  C5  UNL     1      27.804   2.013  53.049  1.00  0.00     0.138 A 
HETATM    6  C6  UNL     1      26.810   1.088  52.709  1.00  0.00     0.060 A 
HETATM    7  C7  UNL     1      26.377   1.848  51.521  1.00  0.00     0.157 A 
HETATM    8  N4  UNL     1      27.419   2.776  51.913  1.00  0.00    -0.361 N 
HETATM    9  H12 UNL     1      27.773   3.690  51.510  1.00  0.00     0.162 HD
ENDROOT
BRANCH   1  10
HETATM   10  N1  UNL     1      25.614  -0.977  53.152  1.00  0.00    -0.366 N 
HETATM   11  H5  UNL     1      25.650  -1.474  52.236  1.00  0.00     0.161 HD
BRANCH  10  12
HETATM   12  C2  UNL     1      24.508  -1.282  54.037  1.00  0.00     0.112 C 
HETATM   13  C1  UNL     1      24.780  -0.846  55.465  1.00  0.00     0.037 C 
BRANCH  12  14
HETATM   14  C14 UNL     1      23.236  -0.698  53.543  1.00  0.00    -0.036 A 
HETATM   15  C15 UNL     1      22.847  -0.461  52.243  1.00  0.00     0.009 A 
HETATM   16  C16 UNL     1      21.612   0.095  51.975  1.00  0.00     0.001 A 
HETATM   17  C17 UNL     1      20.710   0.441  52.958  1.00  0.00     0.000 A 
HETATM   18  C18 UNL     1      21.108   0.199  54.258  1.00  0.00     0.001 A 
HETATM   19  C19 UNL     1      22.342  -0.358  54.563  1.00  0.00     0.009 A 
ENDBRANCH  12  14
ENDBRANCH  10  12
ENDBRANCH   1  10
BRANCH   7  20
HETATM   20  C8  UNL     1      25.015   2.440  51.609  1.00  0.00    -0.031 A 
HETATM   21  C9  UNL     1      24.482   2.817  52.824  1.00  0.00     0.011 A 
HETATM   22  C10 UNL     1      23.210   3.353  52.784  1.00  0.00     0.019 A 
HETATM   23  C11 UNL     1      22.466   3.529  51.637  1.00  0.00     0.011 A 
HETATM   24 BR1  UNL     1      20.708   4.286  51.703  1.00  0.00    -0.051 Br
HETATM   25  C12 UNL     1      23.068   3.129  50.467  1.00  0.00     0.019 A 
HETATM   26  C13 UNL     1      24.328   2.586  50.419  1.00  0.00     0.011 A 
ENDBRANCH   7  20
TORSDOF 4
ENDMDL
MODEL 4
REMARK VINA RESULT:      -7.7      2.445      5.680
REMARK  4 active torsions:
REMARK  status: ('A' for Active; 'I' for Inactive)
REMARK    1  A    between atoms: C2_2  and  N1_3 
REMARK    2  A    between atoms: C2_2  and  C14_19 
REMARK    3  A    between atoms: N1_3  and  C3_4 
REMARK    4  A    between atoms: C7_10  and  C8_11 
ROOT
HETATM    1  C3  UNL     1      23.156   4.337  51.681  1.00  0.00     0.138 A 
HETATM    2  N2  UNL     1      22.033   4.926  52.108  1.00  0.00    -0.224 NA
HETATM    3  C4  UNL     1      20.909   4.216  52.312  1.00  0.00     0.237 A 
HETATM    4  N3  UNL     1      20.900   2.885  52.086  1.00  0.00    -0.224 NA
HETATM    5  C5  UNL     1      21.993   2.227  51.656  1.00  0.00     0.138 A 
HETATM    6  C6  UNL     1      23.162   2.969  51.444  1.00  0.00     0.060 A 
HETATM    7  C7  UNL     1      23.943   1.792  51.015  1.00  0.00     0.157 A 
HETATM    8  N4  UNL     1      22.710   1.068  51.249  1.00  0.00    -0.361 N 
HETATM    9  H12 UNL     1      22.431   0.050  51.155  1.00  0.00     0.162 HD
ENDROOT
BRANCH   1  10
HETATM   10  N1  UNL     1      24.343   5.088  51.464  1.00  0.00    -0.366 N 
HETATM   11  H5  UNL     1      25.153   4.992  52.114  1.00  0.00     0.161 HD
BRANCH  10  12
HETATM   12  C2  UNL     1      24.483   6.005  50.351  1.00  0.00     0.112 C 
HETATM   13  C1  UNL     1      24.316   7.453  50.778  1.00  0.00     0.037 C 
BRANCH  12  14
HETATM   14  C14 UNL     1      25.773   5.812  49.643  1.00  0.00    -0.036 A 
HETATM   15  C15 UNL     1      26.427   4.634  49.353  1.00  0.00     0.009 A 
HETATM   16  C16 UNL     1      27.631   4.653  48.678  1.00  0.00     0.001 A 
HETATM   17  C17 UNL     1      28.245   5.814  48.260  1.00  0.00     0.000 A 
HETATM   18  C18 UNL     1      27.583   6.989  48.554  1.00  0.00     0.001 A 
HETATM   19  C19 UNL     1      26.371   7.007  49.231  1.00  0.00     0.009 A 
ENDBRANCH  12  14
ENDBRANCH  10  12
ENDBRANCH   1  10
BRANCH   7  20
HETATM   20  C8  UNL     1      25.034   1.385  51.941  1.00  0.00    -0.031 A 
HETATM   21  C9  UNL     1      24.781   0.568  53.022  1.00  0.00     0.011 A 
HETATM   22  C10 UNL     1      25.871   0.258  53.812  1.00  0.00     0.019 A 
HETATM   23  C11 UNL     1      27.155   0.703  53.590  1.00  0.00     0.011 A 
HETATM   24 BR1  UNL     1      28.591   0.206  54.755  1.00  0.00    -0.051 Br
HETATM   25  C12 UNL     1      27.325   1.513  52.492  1.00  0.00     0.019 A 
HETATM   26  C13 UNL     1      26.297   1.870  51.656  1.00  0.00     0.011 A 
ENDBRANCH   7  20
TORSDOF 4
ENDMDL
MODEL 5
REMARK VINA RESULT:      -7.7      1.739      2.106
REMARK  4 active torsions:
REMARK  status: ('A' for Active; 'I' for Inactive)
REMARK    1  A    between atoms: C2_2  and  N1_3 
REMARK    2  A    between atoms: C2_2  and  C14_19 
REMARK    3  A    between atoms: N1_3  and  C3_4 
REMARK    4  A    between atoms: C7_10  and  C8_11 
ROOT
HETATM    1  C3  UNL     1      20.963   4.198  51.613  1.00  0.00     0.138 A 
HETATM    2  N2  UNL     1      20.286   4.737  50.593  1.00  0.00    -0.224 NA
HETATM    3  C4  UNL     1      20.782   5.778  49.901  1.00  0.00     0.237 A 
HETATM    4  N3  UNL     1      21.984   6.298  50.231  1.00  0.00    -0.224 NA
HETATM    5  C5  UNL     1      22.721   5.805  51.244  1.00  0.00     0.138 A 
HETATM    6  C6  UNL     1      22.201   4.721  51.963  1.00  0.00     0.060 A 
HETATM    7  C7  UNL     1      23.365   4.641  52.867  1.00  0.00     0.157 A 
HETATM    8  N4  UNL     1      23.861   5.763  52.093  1.00  0.00    -0.361 N 
HETATM    9  H12 UNL     1      24.744   6.345  52.135  1.00  0.00     0.162 HD
ENDROOT
BRANCH   1  10
HETATM   10  N1  UNL     1      20.438   3.098  52.344  1.00  0.00    -0.366 N 
HETATM   11  H5  UNL     1      19.997   3.249  53.278  1.00  0.00     0.161 HD
BRANCH  10  12
HETATM   12  C2  UNL     1      20.488   1.741  51.839  1.00  0.00     0.112 C 
HETATM   13  C1  UNL     1      21.215   1.652  50.509  1.00  0.00     0.037 C 
BRANCH  12  14
HETATM   14  C14 UNL     1      21.087   0.811  52.828  1.00  0.00    -0.036 A 
HETATM   15  C15 UNL     1      20.733   0.612  54.145  1.00  0.00     0.009 A 
HETATM   16  C16 UNL     1      21.414  -0.307  54.918  1.00  0.00     0.001 A 
HETATM   17  C17 UNL     1      22.462  -1.066  54.443  1.00  0.00     0.000 A 
HETATM   18  C18 UNL     1      22.809  -0.860  53.123  1.00  0.00     0.001 A 
HETATM   19  C19 UNL     1      22.147   0.056  52.317  1.00  0.00     0.009 A 
ENDBRANCH  12  14
ENDBRANCH  10  12
ENDBRANCH   1  10
BRANCH   7  20
HETATM   20  C8  UNL     1      24.203   3.421  52.714  1.00  0.00    -0.031 A 
HETATM   21  C9  UNL     1      24.721   2.773  53.814  1.00  0.00     0.011 A 
HETATM   22  C10 UNL     1      25.485   1.652  53.550  1.00  0.00     0.019 A 
HETATM   23  C11 UNL     1      25.750   1.159  52.291  1.00  0.00     0.011 A 
HETATM   24 BR1  UNL     1      26.823  -0.407  52.046  1.00  0.00    -0.051 Br
HETATM   25  C12 UNL     1      25.196   1.863  51.246  1.00  0.00     0.019 A 
HETATM   26  C13 UNL     1      24.427   2.985  51.421  1.00  0.00     0.011 A 
ENDBRANCH   7  20
TORSDOF 4
ENDMDL
MODEL 6
REMARK VINA RESULT:      -7.4      3.337      6.622
REMARK  4 active torsions:
REMARK  status: ('A' for Active; 'I' for Inactive)
REMARK    1  A    between atoms: C2_2  and  N1_3 
REMARK    2  A    between atoms: C2_2  and  C14_19 
REMARK    3  A    between atoms: N1_3  and  C3_4 
REMARK    4  A    between atoms: C7_10  and  C8_11 
ROOT
HETATM    1  C3  UNL     1      25.416   1.788  52.122  1.00  0.00     0.138 A 
HETATM    2  N2  UNL     1      26.569   1.192  51.797  1.00  0.00    -0.224 NA
HETATM    3  C4  UNL     1      26.807  -0.090  52.127  1.00  0.00     0.237 A 
HETATM    4  N3  UNL     1      25.875  -0.800  52.798  1.00  0.00    -0.224 NA
HETATM    5  C5  UNL     1      24.692  -0.265  53.156  1.00  0.00     0.138 A 
HETATM    6  C6  UNL     1      24.447   1.070  52.812  1.00  0.00     0.060 A 
HETATM    7  C7  UNL     1      23.105   1.080  53.424  1.00  0.00     0.157 A 
HETATM    8  N4  UNL     1      23.405  -0.299  53.759  1.00  0.00    -0.361 N 
HETATM    9  H12 UNL     1      22.871  -1.060  54.264  1.00  0.00     0.162 HD
ENDROOT
BRANCH   1  10
HETATM   10  N1  UNL     1      25.165   3.143  51.775  1.00  0.00    -0.366 N 
HETATM   11  H5  UNL     1      25.346   3.905  52.463  1.00  0.00     0.161 HD
BRANCH  10  12
HETATM   12  C2  UNL     1      24.656   3.523  50.472  1.00  0.00     0.112 C 
HETATM   13  C1  UNL     1      23.242   4.071  50.548  1.00  0.00     0.037 C 
BRANCH  12  14
HETATM   14  C14 UNL     1      25.557   4.488  49.794  1.00  0.00    -0.036 A 
HETATM   15  C15 UNL     1      25.364   5.835  49.574  1.00  0.00     0.009 A 
HETATM   16  C16 UNL     1      26.325   6.578  48.918  1.00  0.00     0.001 A 
HETATM   17  C17 UNL     1      27.506   6.044  48.452  1.00  0.00     0.000 A 
HETATM   18  C18 UNL     1      27.691   4.695  48.678  1.00  0.00     0.001 A 
HETATM   19  C19 UNL     1      26.746   3.917  49.333  1.00  0.00     0.009 A 
ENDBRANCH  12  14
ENDBRANCH  10  12
ENDBRANCH   1  10
BRANCH   7  20
HETATM   20  C8  UNL     1      21.973   1.207  52.467  1.00  0.00    -0.031 A 
HETATM   21  C9  UNL     1      22.042   0.648  51.208  1.00  0.00     0.011 A 
HETATM   22  C10 UNL     1      20.932   0.832  50.406  1.00  0.00     0.019 A 
HETATM   23  C11 UNL     1      19.797   1.518  50.777  1.00  0.00     0.011 A 
HETATM   24 BR1  UNL     1      18.317   1.708  49.579  1.00  0.00    -0.051 Br
HETATM   25  C12 UNL     1      19.807   2.045  52.048  1.00  0.00     0.019 A 
HETATM   26  C13 UNL     1      20.868   1.909  52.908  1.00  0.00     0.011 A 
ENDBRANCH   7  20
TORSDOF 4
ENDMDL
MODEL 7
REMARK VINA RESULT:      -7.2      6.948      8.822
REMARK  4 active torsions:
REMARK  status: ('A' for Active; 'I' for Inactive)
REMARK    1  A    between atoms: C2_2  and  N1_3 
REMARK    2  A    between atoms: C2_2  and  C14_19 
REMARK    3  A    between atoms: N1_3  and  C3_4 
REMARK    4  A    between atoms: C7_10  and  C8_11 
ROOT
HETATM    1  C3  UNL     1      27.479   8.934  49.229  1.00  0.00     0.138 A 
HETATM    2  N2  UNL     1      26.367   9.568  48.843  1.00  0.00    -0.224 NA
HETATM    3  C4  UNL     1      26.378  10.883  48.559  1.00  0.00     0.237 A 
HETATM    4  N3  UNL     1      27.526  11.587  48.661  1.00  0.00    -0.224 NA
HETATM    5  C5  UNL     1      28.683  11.013  49.042  1.00  0.00     0.138 A 
HETATM    6  C6  UNL     1      28.668   9.644  49.337  1.00  0.00     0.060 A 
HETATM    7  C7  UNL     1      30.106   9.604  49.666  1.00  0.00     0.157 A 
HETATM    8  N4  UNL     1      30.071  11.018  49.350  1.00  0.00    -0.361 N 
HETATM    9  H12 UNL     1      30.803  11.784  49.345  1.00  0.00     0.162 HD
ENDROOT
BRANCH   1  10
HETATM   10  N1  UNL     1      27.467   7.545  49.529  1.00  0.00    -0.366 N 
HETATM   11  H5  UNL     1      27.528   7.220  50.519  1.00  0.00     0.161 HD
BRANCH  10  12
HETATM   12  C2  UNL     1      27.370   6.533  48.497  1.00  0.00     0.112 C 
HETATM   13  C1  UNL     1      28.723   5.934  48.154  1.00  0.00     0.037 C 
BRANCH  12  14
HETATM   14  C14 UNL     1      26.403   5.469  48.863  1.00  0.00    -0.036 A 
HETATM   15  C15 UNL     1      25.027   5.530  48.889  1.00  0.00     0.009 A 
HETATM   16  C16 UNL     1      24.287   4.425  49.260  1.00  0.00     0.001 A 
HETATM   17  C17 UNL     1      24.853   3.222  49.618  1.00  0.00     0.000 A 
HETATM   18  C18 UNL     1      26.233   3.169  49.589  1.00  0.00     0.001 A 
HETATM   19  C19 UNL     1      27.008   4.260  49.222  1.00  0.00     0.009 A 
ENDBRANCH  12  14
ENDBRANCH  10  12
ENDBRANCH   1  10
BRANCH   7  20
HETATM   20  C8  UNL     1      30.949   8.823  48.720  1.00  0.00    -0.031 A 
HETATM   21  C9  UNL     1      30.831   8.992  47.357  1.00  0.00     0.011 A 
HETATM   22  C10 UNL     1      31.664   8.213  46.578  1.00  0.00     0.019 A 
HETATM   23  C11 UNL     1      32.578   7.305  47.068  1.00  0.00     0.011 A 
HETATM   24 BR1  UNL     1      33.683   6.278  45.890  1.00  0.00    -0.051 Br
HETATM   25  C12 UNL     1      32.634   7.196  48.438  1.00  0.00     0.019 A 
HETATM   26  C13 UNL     1      31.843   7.932  49.283  1.00  0.00     0.011 A 
ENDBRANCH   7  20
TORSDOF 4
ENDMDL
MODEL 8
REMARK VINA RESULT:      -7.2      3.100      5.962
REMARK  4 active torsions:
REMARK  status: ('A' for Active; 'I' for Inactive)
REMARK    1  A    between atoms: C2_2  and  N1_3 
REMARK    2  A    between atoms: C2_2  and  C14_19 
REMARK    3  A    between atoms: N1_3  and  C3_4 
REMARK    4  A    between atoms: C7_10  and  C8_11 
ROOT
HETATM    1  C3  UNL     1      25.540   1.758  52.532  1.00  0.00     0.138 A 
HETATM    2  N2  UNL     1      26.732   1.237  52.219  1.00  0.00    -0.224 NA
HETATM    3  C4  UNL     1      26.968  -0.082  52.336  1.00  0.00     0.237 A 
HETATM    4  N3  UNL     1      25.993  -0.907  52.776  1.00  0.00    -0.224 NA
HETATM    5  C5  UNL     1      24.770  -0.452  53.108  1.00  0.00     0.138 A 
HETATM    6  C6  UNL     1      24.528   0.922  52.986  1.00  0.00     0.060 A 
HETATM    7  C7  UNL     1      23.134   0.814  53.458  1.00  0.00     0.157 A 
HETATM    8  N4  UNL     1      23.432  -0.600  53.568  1.00  0.00    -0.361 N 
HETATM    9  H12 UNL     1      22.871  -1.444  53.876  1.00  0.00     0.162 HD
ENDROOT
BRANCH   1  10
HETATM   10  N1  UNL     1      25.292   3.152  52.410  1.00  0.00    -0.366 N 
HETATM   11  H5  UNL     1      25.286   3.762  53.256  1.00  0.00     0.161 HD
BRANCH  10  12
HETATM   12  C2  UNL     1      25.042   3.781  51.129  1.00  0.00     0.112 C 
HETATM   13  C1  UNL     1      25.361   2.858  49.966  1.00  0.00     0.037 C 
BRANCH  12  14
HETATM   14  C14 UNL     1      23.651   4.287  51.031  1.00  0.00    -0.036 A 
HETATM   15  C15 UNL     1      22.818   4.712  52.043  1.00  0.00     0.009 A 
HETATM   16  C16 UNL     1      21.542   5.155  51.755  1.00  0.00     0.001 A 
HETATM   17  C17 UNL     1      21.028   5.201  50.478  1.00  0.00     0.000 A 
HETATM   18  C18 UNL     1      21.869   4.774  49.470  1.00  0.00     0.001 A 
HETATM   19  C19 UNL     1      23.157   4.322  49.723  1.00  0.00     0.009 A 
ENDBRANCH  12  14
ENDBRANCH  10  12
ENDBRANCH   1  10
BRANCH   7  20
HETATM   20  C8  UNL     1      22.094   1.105  52.433  1.00  0.00    -0.031 A 
HETATM   21  C9  UNL     1      22.333   0.877  51.095  1.00  0.00     0.011 A 
HETATM   22  C10 UNL     1      21.296   1.186  50.236  1.00  0.00     0.019 A 
HETATM   23  C11 UNL     1      20.075   1.692  50.627  1.00  0.00     0.011 A 
HETATM   24 BR1  UNL     1      18.709   2.083  49.345  1.00  0.00    -0.051 Br
HETATM   25  C12 UNL     1      19.917   1.891  51.979  1.00  0.00     0.019 A 
HETATM   26  C13 UNL     1      20.896   1.611  52.899  1.00  0.00     0.011 A 
ENDBRANCH   7  20
TORSDOF 4
ENDMDL
MODEL 9
REMARK VINA RESULT:      -7.1      1.883      2.663
REMARK  4 active torsions:
REMARK  status: ('A' for Active; 'I' for Inactive)
REMARK    1  A    between atoms: C2_2  and  N1_3 
REMARK    2  A    between atoms: C2_2  and  C14_19 
REMARK    3  A    between atoms: N1_3  and  C3_4 
REMARK    4  A    between atoms: C7_10  and  C8_11 
ROOT
HETATM    1  C3  UNL     1      22.364   5.379  49.582  1.00  0.00     0.138 A 
HETATM    2  N2  UNL     1      22.473   6.334  48.651  1.00  0.00    -0.224 NA
HETATM    3  C4  UNL     1      23.217   7.433  48.865  1.00  0.00     0.237 A 
HETATM    4  N3  UNL     1      23.872   7.589  50.036  1.00  0.00    -0.224 NA
HETATM    5  C5  UNL     1      23.809   6.668  51.017  1.00  0.00     0.138 A 
HETATM    6  C6  UNL     1      23.032   5.525  50.791  1.00  0.00     0.060 A 
HETATM    7  C7  UNL     1      23.332   4.945  52.114  1.00  0.00     0.157 A 
HETATM    8  N4  UNL     1      24.123   6.146  52.301  1.00  0.00    -0.361 N 
HETATM    9  H12 UNL     1      24.719   6.511  53.097  1.00  0.00     0.162 HD
ENDROOT
BRANCH   1  10
HETATM   10  N1  UNL     1      21.576   4.218  49.356  1.00  0.00    -0.366 N 
HETATM   11  H5  UNL     1      21.809   3.568  48.574  1.00  0.00     0.161 HD
BRANCH  10  12
HETATM   12  C2  UNL     1      20.434   3.887  50.184  1.00  0.00     0.112 C 
HETATM   13  C1  UNL     1      19.182   3.643  49.361  1.00  0.00     0.037 C 
BRANCH  12  14
HETATM   14  C14 UNL     1      20.717   2.728  51.066  1.00  0.00    -0.036 A 
HETATM   15  C15 UNL     1      20.322   2.524  52.371  1.00  0.00     0.009 A 
HETATM   16  C16 UNL     1      20.684   1.370  53.036  1.00  0.00     0.001 A 
HETATM   17  C17 UNL     1      21.442   0.372  52.462  1.00  0.00     0.000 A 
HETATM   18  C18 UNL     1      21.832   0.585  51.155  1.00  0.00     0.001 A 
HETATM   19  C19 UNL     1      21.486   1.733  50.456  1.00  0.00     0.009 A 
ENDBRANCH  12  14
ENDBRANCH  10  12
ENDBRANCH   1  10
BRANCH   7  20
HETATM   20  C8  UNL     1      24.160   3.709  52.091  1.00  0.00    -0.031 A 
HETATM   21  C9  UNL     1      24.931   3.391  50.994  1.00  0.00     0.011 A 
HETATM   22  C10 UNL     1      25.656   2.219  51.085  1.00  0.00     0.019 A 
HETATM   23  C11 UNL     1      25.653   1.375  52.174  1.00  0.00     0.011 A 
HETATM   24 BR1  UNL     1      26.701  -0.227  52.189  1.00  0.00    -0.051 Br
HETATM   25  C12 UNL     1      24.858   1.763  53.228  1.00  0.00     0.019 A 
HETATM   26  C13 UNL     1      24.107   2.911  53.218  1.00  0.00     0.011 A 
ENDBRANCH   7  20
TORSDOF 4
ENDMDL
