MODEL 1
REMARK VINA RESULT:      -8.7      0.000      0.000
REMARK  9 active torsions:
REMARK  status: ('A' for Active; 'I' for Inactive)
REMARK    1  A    between atoms: N1_1  and  C1_2 
REMARK    2  A    between atoms: C1_2  and  O1_3 
REMARK    3  A    between atoms: O1_3  and  C2_4 
REMARK    4  A    between atoms: C2_4  and  C3_5 
REMARK    5  A    between atoms: C6_8  and  C7_9 
REMARK    6  A    between atoms: C7_9  and  O2_10 
REMARK    7  A    between atoms: C9_12  and  C10_13 
REMARK    8  A    between atoms: C10_13  and  C11_14 
REMARK    9  A    between atoms: C17_20  and  C18_21 
ROOT
HETATM    1  C3  UNL     1      25.247   5.904  48.908  1.00  0.00    -0.028 A 
HETATM    2  C4  UNL     1      26.057   6.913  48.430  1.00  0.00     0.010 A 
HETATM    3  C5  UNL     1      27.412   6.597  48.240  1.00  0.00     0.010 A 
HETATM    4  C6  UNL     1      27.958   5.364  48.503  1.00  0.00    -0.034 A 
HETATM    5  C8  UNL     1      27.126   4.365  48.984  1.00  0.00     0.017 A 
HETATM    6  C9  UNL     1      25.800   4.677  49.168  1.00  0.00    -0.044 A 
ENDROOT
BRANCH   6   7
HETATM    7  C10 UNL     1      24.959   3.616  49.771  1.00  0.00     0.096 C 
BRANCH   7   8
HETATM    8  C11 UNL     1      25.732   2.833  50.781  1.00  0.00     0.011 A 
HETATM    9  C12 UNL     1      26.597   1.843  50.673  1.00  0.00     0.012 A 
HETATM   10  C13 UNL     1      27.070   1.446  51.929  1.00  0.00     0.090 A 
HETATM   11  C14 UNL     1      26.909   0.049  52.419  1.00  0.00    -0.001 A 
HETATM   12  C20 UNL     1      26.227   2.279  52.932  1.00  0.00     0.108 A 
HETATM   13  C15 UNL     1      26.011  -0.916  52.855  1.00  0.00    -0.003 A 
HETATM   14  C18 UNL     1      27.717  -1.026  52.913  1.00  0.00     0.020 A 
HETATM   15  C17 UNL     1      27.236  -0.115  53.844  1.00  0.00     0.008 A 
HETATM   16  C16 UNL     1      25.644  -0.280  54.007  1.00  0.00     0.015 A 
HETATM   17  C19 UNL     1      26.396   0.631  54.822  1.00  0.00     0.131 A 
HETATM   18  N2  UNL     1      26.299   2.041  54.249  1.00  0.00    -0.269 NA
HETATM   19  N3  UNL     1      25.427   3.199  52.144  1.00  0.00    -0.348 N 
HETATM   20  H19 UNL     1      24.848   3.884  52.646  1.00  0.00     0.167 HD
ENDBRANCH   7   8
ENDBRANCH   6   7
BRANCH   1  21
HETATM   21  C2  UNL     1      23.797   6.222  49.048  1.00  0.00     0.209 C 
BRANCH  21  22
HETATM   22  O1  UNL     1      23.763   7.467  49.669  1.00  0.00    -0.358 OA
BRANCH  22  23
HETATM   23  C1  UNL     1      23.347   7.467  50.970  1.00  0.00     0.434 C 
BRANCH  23  24
HETATM   24  N1  UNL     1      24.333   6.988  51.925  1.00  0.00     0.101 N 
HETATM   25  H1  UNL     1      23.916   6.915  52.867  1.00  0.00     0.315 HD
HETATM   26  H2  UNL     1      24.635   6.015  51.676  1.00  0.00     0.315 HD
ENDBRANCH  23  24
ENDBRANCH  22  23
ENDBRANCH  21  22
ENDBRANCH   1  21
BRANCH   4  27
HETATM   27  C7  UNL     1      29.437   5.258  48.208  1.00  0.00     0.202 C 
BRANCH  27  28
HETATM   28  O2  UNL     1      30.128   5.665  49.353  1.00  0.00    -0.396 OA
HETATM   29  H11 UNL     1      30.621   6.510  49.193  1.00  0.00     0.209 HD
ENDBRANCH  27  28
ENDBRANCH   4  27
TORSDOF 9
ENDMDL
MODEL 2
REMARK VINA RESULT:      -8.6      4.305      6.001
REMARK  9 active torsions:
REMARK  status: ('A' for Active; 'I' for Inactive)
REMARK    1  A    between atoms: N1_1  and  C1_2 
REMARK    2  A    between atoms: C1_2  and  O1_3 
REMARK    3  A    between atoms: O1_3  and  C2_4 
REMARK    4  A    between atoms: C2_4  and  C3_5 
REMARK    5  A    between atoms: C6_8  and  C7_9 
REMARK    6  A    between atoms: C7_9  and  O2_10 
REMARK    7  A    between atoms: C9_12  and  C10_13 
REMARK    8  A    between atoms: C10_13  and  C11_14 
REMARK    9  A    between atoms: C17_20  and  C18_21 
ROOT
HETATM    1  C3  UNL     1      21.835   0.836  52.370  1.00  0.00    -0.028 A 
HETATM    2  C4  UNL     1      20.912   0.238  51.536  1.00  0.00     0.010 A 
HETATM    3  C5  UNL     1      20.982   0.574  50.175  1.00  0.00     0.010 A 
HETATM    4  C6  UNL     1      21.900   1.448  49.644  1.00  0.00    -0.034 A 
HETATM    5  C8  UNL     1      22.817   2.038  50.500  1.00  0.00     0.017 A 
HETATM    6  C9  UNL     1      22.747   1.707  51.832  1.00  0.00    -0.044 A 
ENDROOT
BRANCH   6   7
HETATM    7  C10 UNL     1      23.680   2.426  52.731  1.00  0.00     0.096 C 
BRANCH   7   8
HETATM    8  C11 UNL     1      25.059   1.859  52.631  1.00  0.00     0.011 A 
HETATM    9  C12 UNL     1      25.510   0.636  52.426  1.00  0.00     0.012 A 
HETATM   10  C13 UNL     1      26.908   0.612  52.399  1.00  0.00     0.090 A 
HETATM   11  C14 UNL     1      27.693  -0.231  53.344  1.00  0.00    -0.001 A 
HETATM   12  C20 UNL     1      27.320   2.059  52.780  1.00  0.00     0.108 A 
HETATM   13  C15 UNL     1      28.077  -0.418  54.665  1.00  0.00    -0.003 A 
HETATM   14  C18 UNL     1      28.696  -1.254  53.307  1.00  0.00     0.020 A 
HETATM   15  C17 UNL     1      29.135   0.064  53.335  1.00  0.00     0.008 A 
HETATM   16  C16 UNL     1      28.829   0.718  54.772  1.00  0.00     0.015 A 
HETATM   17  C19 UNL     1      29.549   1.430  53.756  1.00  0.00     0.131 A 
HETATM   18  N2  UNL     1      28.604   2.366  53.010  1.00  0.00    -0.269 NA
HETATM   19  N3  UNL     1      26.098   2.837  52.857  1.00  0.00    -0.348 N 
HETATM   20  H19 UNL     1      26.179   3.846  53.035  1.00  0.00     0.167 HD
ENDBRANCH   7   8
ENDBRANCH   6   7
BRANCH   1  21
HETATM   21  C2  UNL     1      21.801   0.430  53.804  1.00  0.00     0.209 C 
BRANCH  21  22
HETATM   22  O1  UNL     1      22.577  -0.724  53.867  1.00  0.00    -0.358 OA
BRANCH  22  23
HETATM   23  C1  UNL     1      22.395  -1.499  54.977  1.00  0.00     0.434 C 
BRANCH  23  24
HETATM   24  N1  UNL     1      23.552  -1.592  55.851  1.00  0.00     0.101 N 
HETATM   25  H1  UNL     1      23.729  -0.685  56.312  1.00  0.00     0.315 HD
HETATM   26  H2  UNL     1      23.363  -2.270  56.629  1.00  0.00     0.315 HD
ENDBRANCH  23  24
ENDBRANCH  22  23
ENDBRANCH  21  22
ENDBRANCH   1  21
BRANCH   4  27
HETATM   27  C7  UNL     1      21.788   1.642  48.149  1.00  0.00     0.202 C 
BRANCH  27  28
HETATM   28  O2  UNL     1      20.474   2.025  47.868  1.00  0.00    -0.396 OA
HETATM   29  H11 UNL     1      20.448   2.733  47.174  1.00  0.00     0.209 HD
ENDBRANCH  27  28
ENDBRANCH   4  27
TORSDOF 9
ENDMDL
MODEL 3
REMARK VINA RESULT:      -8.3      4.013      5.986
REMARK  9 active torsions:
REMARK  status: ('A' for Active; 'I' for Inactive)
REMARK    1  A    between atoms: N1_1  and  C1_2 
REMARK    2  A    between atoms: C1_2  and  O1_3 
REMARK    3  A    between atoms: O1_3  and  C2_4 
REMARK    4  A    between atoms: C2_4  and  C3_5 
REMARK    5  A    between atoms: C6_8  and  C7_9 
REMARK    6  A    between atoms: C7_9  and  O2_10 
REMARK    7  A    between atoms: C9_12  and  C10_13 
REMARK    8  A    between atoms: C10_13  and  C11_14 
REMARK    9  A    between atoms: C17_20  and  C18_21 
ROOT
HETATM    1  C3  UNL     1      22.070   1.174  50.923  1.00  0.00    -0.028 A 
HETATM    2  C4  UNL     1      21.120   0.210  51.189  1.00  0.00     0.010 A 
HETATM    3  C5  UNL     1      21.017  -0.223  52.520  1.00  0.00     0.010 A 
HETATM    4  C6  UNL     1      21.797   0.253  53.547  1.00  0.00    -0.034 A 
HETATM    5  C8  UNL     1      22.746   1.220  53.257  1.00  0.00     0.017 A 
HETATM    6  C9  UNL     1      22.845   1.643  51.953  1.00  0.00    -0.044 A 
ENDROOT
BRANCH   6   7
HETATM    7  C10 UNL     1      23.931   2.608  51.662  1.00  0.00     0.096 C 
BRANCH   7   8
HETATM    8  C11 UNL     1      25.271   1.983  51.875  1.00  0.00     0.011 A 
HETATM    9  C12 UNL     1      25.716   0.750  51.723  1.00  0.00     0.012 A 
HETATM   10  C13 UNL     1      27.076   0.662  52.040  1.00  0.00     0.090 A 
HETATM   11  C14 UNL     1      27.572  -0.255  53.103  1.00  0.00    -0.001 A 
HETATM   12  C20 UNL     1      27.430   2.071  52.586  1.00  0.00     0.108 A 
HETATM   13  C15 UNL     1      27.610  -0.517  54.466  1.00  0.00    -0.003 A 
HETATM   14  C18 UNL     1      28.517  -1.321  53.260  1.00  0.00     0.020 A 
HETATM   15  C17 UNL     1      28.981  -0.028  53.465  1.00  0.00     0.008 A 
HETATM   16  C16 UNL     1      28.350   0.577  54.815  1.00  0.00     0.015 A 
HETATM   17  C19 UNL     1      29.324   1.299  54.047  1.00  0.00     0.131 A 
HETATM   18  N2  UNL     1      28.626   2.309  53.142  1.00  0.00    -0.269 NA
HETATM   19  N3  UNL     1      26.254   2.901  52.401  1.00  0.00    -0.348 N 
HETATM   20  H19 UNL     1      26.323   3.896  52.646  1.00  0.00     0.167 HD
ENDBRANCH   7   8
ENDBRANCH   6   7
BRANCH   1  21
HETATM   21  C2  UNL     1      22.136   1.679  49.522  1.00  0.00     0.209 C 
BRANCH  21  22
HETATM   22  O1  UNL     1      21.087   2.589  49.421  1.00  0.00    -0.358 OA
BRANCH  22  23
HETATM   23  C1  UNL     1      20.409   2.579  48.235  1.00  0.00     0.434 C 
BRANCH  23  24
HETATM   24  N1  UNL     1      19.020   2.162  48.330  1.00  0.00     0.101 N 
HETATM   25  H1  UNL     1      18.567   2.605  49.145  1.00  0.00     0.315 HD
HETATM   26  H2  UNL     1      18.483   2.498  47.494  1.00  0.00     0.315 HD
ENDBRANCH  23  24
ENDBRANCH  22  23
ENDBRANCH  21  22
ENDBRANCH   1  21
BRANCH   4  27
HETATM   27  C7  UNL     1      21.493  -0.355  54.897  1.00  0.00     0.202 C 
BRANCH  27  28
HETATM   28  O2  UNL     1      20.890  -1.597  54.678  1.00  0.00    -0.396 OA
HETATM   29  H11 UNL     1      20.113  -1.728  55.281  1.00  0.00     0.209 HD
ENDBRANCH  27  28
ENDBRANCH   4  27
TORSDOF 9
ENDMDL
MODEL 4
REMARK VINA RESULT:      -8.0      3.100      7.756
REMARK  9 active torsions:
REMARK  status: ('A' for Active; 'I' for Inactive)
REMARK    1  A    between atoms: N1_1  and  C1_2 
REMARK    2  A    between atoms: C1_2  and  O1_3 
REMARK    3  A    between atoms: O1_3  and  C2_4 
REMARK    4  A    between atoms: C2_4  and  C3_5 
REMARK    5  A    between atoms: C6_8  and  C7_9 
REMARK    6  A    between atoms: C7_9  and  O2_10 
REMARK    7  A    between atoms: C9_12  and  C10_13 
REMARK    8  A    between atoms: C10_13  and  C11_14 
REMARK    9  A    between atoms: C17_20  and  C18_21 
ROOT
HETATM    1  C3  UNL     1      26.519   0.274  53.428  1.00  0.00    -0.028 A 
HETATM    2  C4  UNL     1      25.719  -0.435  54.300  1.00  0.00     0.010 A 
HETATM    3  C5  UNL     1      24.350  -0.489  53.997  1.00  0.00     0.010 A 
HETATM    4  C6  UNL     1      23.780   0.114  52.903  1.00  0.00    -0.034 A 
HETATM    5  C8  UNL     1      24.601   0.823  52.040  1.00  0.00     0.017 A 
HETATM    6  C9  UNL     1      25.942   0.875  52.339  1.00  0.00    -0.044 A 
ENDROOT
BRANCH   6   7
HETATM    7  C10 UNL     1      26.775   1.717  51.449  1.00  0.00     0.096 C 
BRANCH   7   8
HETATM    8  C11 UNL     1      25.975   2.838  50.871  1.00  0.00     0.011 A 
HETATM    9  C12 UNL     1      25.837   3.297  49.642  1.00  0.00     0.012 A 
HETATM   10  C13 UNL     1      24.947   4.375  49.603  1.00  0.00     0.090 A 
HETATM   11  C14 UNL     1      25.359   5.710  49.086  1.00  0.00    -0.001 A 
HETATM   12  C20 UNL     1      24.620   4.652  51.095  1.00  0.00     0.108 A 
HETATM   13  C15 UNL     1      26.142   6.834  49.311  1.00  0.00    -0.003 A 
HETATM   14  C18 UNL     1      24.951   6.662  48.096  1.00  0.00     0.020 A 
HETATM   15  C17 UNL     1      24.378   6.773  49.356  1.00  0.00     0.008 A 
HETATM   16  C16 UNL     1      25.476   7.270  50.421  1.00  0.00     0.015 A 
HETATM   17  C19 UNL     1      24.100   7.091  50.784  1.00  0.00     0.131 A 
HETATM   18  N2  UNL     1      23.912   5.732  51.451  1.00  0.00    -0.269 NA
HETATM   19  N3  UNL     1      25.255   3.599  51.866  1.00  0.00    -0.348 N 
HETATM   20  H19 UNL     1      25.092   3.578  52.880  1.00  0.00     0.167 HD
ENDBRANCH   7   8
ENDBRANCH   6   7
BRANCH   1  21
HETATM   21  C2  UNL     1      27.982   0.278  53.716  1.00  0.00     0.209 C 
BRANCH  21  22
HETATM   22  O1  UNL     1      28.265  -1.016  54.145  1.00  0.00    -0.358 OA
BRANCH  22  23
HETATM   23  C1  UNL     1      29.019  -1.769  53.291  1.00  0.00     0.434 C 
BRANCH  23  24
HETATM   24  N1  UNL     1      28.566  -3.140  53.126  1.00  0.00     0.101 N 
HETATM   25  H1  UNL     1      29.096  -3.606  52.372  1.00  0.00     0.315 HD
HETATM   26  H2  UNL     1      28.768  -3.694  53.994  1.00  0.00     0.315 HD
ENDBRANCH  23  24
ENDBRANCH  22  23
ENDBRANCH  21  22
ENDBRANCH   1  21
BRANCH   4  27
HETATM   27  C7  UNL     1      22.287  -0.094  52.778  1.00  0.00     0.202 C 
BRANCH  27  28
HETATM   28  O2  UNL     1      21.867  -0.827  53.892  1.00  0.00    -0.396 OA
HETATM   29  H11 UNL     1      21.385  -0.250  54.539  1.00  0.00     0.209 HD
ENDBRANCH  27  28
ENDBRANCH   4  27
TORSDOF 9
ENDMDL
MODEL 5
REMARK VINA RESULT:      -7.8      2.110      2.921
REMARK  9 active torsions:
REMARK  status: ('A' for Active; 'I' for Inactive)
REMARK    1  A    between atoms: N1_1  and  C1_2 
REMARK    2  A    between atoms: C1_2  and  O1_3 
REMARK    3  A    between atoms: O1_3  and  C2_4 
REMARK    4  A    between atoms: C2_4  and  C3_5 
REMARK    5  A    between atoms: C6_8  and  C7_9 
REMARK    6  A    between atoms: C7_9  and  O2_10 
REMARK    7  A    between atoms: C9_12  and  C10_13 
REMARK    8  A    between atoms: C10_13  and  C11_14 
REMARK    9  A    between atoms: C17_20  and  C18_21 
ROOT
HETATM    1  C3  UNL     1      23.105   4.796  49.263  1.00  0.00    -0.028 A 
HETATM    2  C4  UNL     1      23.445   5.598  48.194  1.00  0.00     0.010 A 
HETATM    3  C5  UNL     1      24.533   6.467  48.380  1.00  0.00     0.010 A 
HETATM    4  C6  UNL     1      25.255   6.557  49.544  1.00  0.00    -0.034 A 
HETATM    5  C8  UNL     1      24.895   5.743  50.606  1.00  0.00     0.017 A 
HETATM    6  C9  UNL     1      23.830   4.893  50.423  1.00  0.00    -0.044 A 
ENDROOT
BRANCH   6   7
HETATM    7  C10 UNL     1      23.414   4.105  51.606  1.00  0.00     0.096 C 
BRANCH   7   8
HETATM    8  C11 UNL     1      24.474   3.126  51.994  1.00  0.00     0.011 A 
HETATM    9  C12 UNL     1      25.032   2.115  51.357  1.00  0.00     0.012 A 
HETATM   10  C13 UNL     1      26.006   1.496  52.148  1.00  0.00     0.090 A 
HETATM   11  C14 UNL     1      25.925   0.052  52.501  1.00  0.00    -0.001 A 
HETATM   12  C20 UNL     1      25.889   2.209  53.521  1.00  0.00     0.108 A 
HETATM   13  C15 UNL     1      25.241  -0.914  53.227  1.00  0.00    -0.003 A 
HETATM   14  C18 UNL     1      26.721  -1.136  52.398  1.00  0.00     0.020 A 
HETATM   15  C17 UNL     1      26.889  -0.357  53.535  1.00  0.00     0.008 A 
HETATM   16  C16 UNL     1      25.580  -0.447  54.466  1.00  0.00     0.015 A 
HETATM   17  C19 UNL     1      26.750   0.275  54.876  1.00  0.00     0.131 A 
HETATM   18  N2  UNL     1      26.570   1.761  54.585  1.00  0.00    -0.269 NA
HETATM   19  N3  UNL     1      24.934   3.290  53.353  1.00  0.00    -0.348 N 
HETATM   20  H19 UNL     1      24.776   3.921  54.148  1.00  0.00     0.167 HD
ENDBRANCH   7   8
ENDBRANCH   6   7
BRANCH   1  21
HETATM   21  C2  UNL     1      21.991   3.828  49.044  1.00  0.00     0.209 C 
BRANCH  21  22
HETATM   22  O1  UNL     1      22.373   3.093  47.925  1.00  0.00    -0.358 OA
BRANCH  22  23
HETATM   23  C1  UNL     1      22.172   1.744  48.009  1.00  0.00     0.434 C 
BRANCH  23  24
HETATM   24  N1  UNL     1      21.800   1.265  49.329  1.00  0.00     0.101 N 
HETATM   25  H1  UNL     1      21.039   1.843  49.721  1.00  0.00     0.315 HD
HETATM   26  H2  UNL     1      21.409   0.294  49.264  1.00  0.00     0.315 HD
ENDBRANCH  23  24
ENDBRANCH  22  23
ENDBRANCH  21  22
ENDBRANCH   1  21
BRANCH   4  27
HETATM   27  C7  UNL     1      26.390   7.556  49.502  1.00  0.00     0.202 C 
BRANCH  27  28
HETATM   28  O2  UNL     1      27.571   6.847  49.265  1.00  0.00    -0.396 OA
HETATM   29  H11 UNL     1      28.362   7.444  49.310  1.00  0.00     0.209 HD
ENDBRANCH  27  28
ENDBRANCH   4  27
TORSDOF 9
ENDMDL
MODEL 6
REMARK VINA RESULT:      -7.7      2.663      4.320
REMARK  9 active torsions:
REMARK  status: ('A' for Active; 'I' for Inactive)
REMARK    1  A    between atoms: N1_1  and  C1_2 
REMARK    2  A    between atoms: C1_2  and  O1_3 
REMARK    3  A    between atoms: O1_3  and  C2_4 
REMARK    4  A    between atoms: C2_4  and  C3_5 
REMARK    5  A    between atoms: C6_8  and  C7_9 
REMARK    6  A    between atoms: C7_9  and  O2_10 
REMARK    7  A    between atoms: C9_12  and  C10_13 
REMARK    8  A    between atoms: C10_13  and  C11_14 
REMARK    9  A    between atoms: C17_20  and  C18_21 
ROOT
HETATM    1  C3  UNL     1      22.428   4.383  51.188  1.00  0.00    -0.028 A 
HETATM    2  C4  UNL     1      21.083   4.093  51.291  1.00  0.00     0.010 A 
HETATM    3  C5  UNL     1      20.681   2.811  50.882  1.00  0.00     0.010 A 
HETATM    4  C6  UNL     1      21.539   1.855  50.395  1.00  0.00    -0.034 A 
HETATM    5  C8  UNL     1      22.886   2.169  50.299  1.00  0.00     0.017 A 
HETATM    6  C9  UNL     1      23.277   3.424  50.700  1.00  0.00    -0.044 A 
ENDROOT
BRANCH   6   7
HETATM    7  C10 UNL     1      24.706   3.757  50.497  1.00  0.00     0.096 C 
BRANCH   7   8
HETATM    8  C11 UNL     1      25.581   2.895  51.349  1.00  0.00     0.011 A 
HETATM    9  C12 UNL     1      26.486   1.980  51.061  1.00  0.00     0.012 A 
HETATM   10  C13 UNL     1      27.057   1.452  52.224  1.00  0.00     0.090 A 
HETATM   11  C14 UNL     1      26.998  -0.004  52.532  1.00  0.00    -0.001 A 
HETATM   12  C20 UNL     1      26.239   2.097  53.375  1.00  0.00     0.108 A 
HETATM   13  C15 UNL     1      26.180  -1.068  52.885  1.00  0.00    -0.003 A 
HETATM   14  C18 UNL     1      27.890  -1.085  52.831  1.00  0.00     0.020 A 
HETATM   15  C17 UNL     1      27.423  -0.333  53.902  1.00  0.00     0.008 A 
HETATM   16  C16 UNL     1      25.856  -0.609  54.131  1.00  0.00     0.015 A 
HETATM   17  C19 UNL     1      26.611   0.230  55.016  1.00  0.00     0.131 A 
HETATM   18  N2  UNL     1      26.407   1.695  54.642  1.00  0.00    -0.269 NA
HETATM   19  N3  UNL     1      25.345   3.063  52.764  1.00  0.00    -0.348 N 
HETATM   20  H19 UNL     1      24.765   3.643  53.383  1.00  0.00     0.167 HD
ENDBRANCH   7   8
ENDBRANCH   6   7
BRANCH   1  21
HETATM   21  C2  UNL     1      22.862   5.721  51.682  1.00  0.00     0.209 C 
BRANCH  21  22
HETATM   22  O1  UNL     1      22.368   6.625  50.746  1.00  0.00    -0.358 OA
BRANCH  22  23
HETATM   23  C1  UNL     1      23.146   7.725  50.519  1.00  0.00     0.434 C 
BRANCH  23  24
HETATM   24  N1  UNL     1      24.276   7.868  51.421  1.00  0.00     0.101 N 
HETATM   25  H1  UNL     1      25.154   7.969  50.886  1.00  0.00     0.315 HD
HETATM   26  H2  UNL     1      24.185   8.752  51.978  1.00  0.00     0.315 HD
ENDBRANCH  23  24
ENDBRANCH  22  23
ENDBRANCH  21  22
ENDBRANCH   1  21
BRANCH   4  27
HETATM   27  C7  UNL     1      20.877   0.546  50.031  1.00  0.00     0.202 C 
BRANCH  27  28
HETATM   28  O2  UNL     1      19.844   0.324  50.946  1.00  0.00    -0.396 OA
HETATM   29  H11 UNL     1      19.326  -0.489  50.712  1.00  0.00     0.209 HD
ENDBRANCH  27  28
ENDBRANCH   4  27
TORSDOF 9
ENDMDL
MODEL 7
REMARK VINA RESULT:      -7.7      1.753      3.638
REMARK  9 active torsions:
REMARK  status: ('A' for Active; 'I' for Inactive)
REMARK    1  A    between atoms: N1_1  and  C1_2 
REMARK    2  A    between atoms: C1_2  and  O1_3 
REMARK    3  A    between atoms: O1_3  and  C2_4 
REMARK    4  A    between atoms: C2_4  and  C3_5 
REMARK    5  A    between atoms: C6_8  and  C7_9 
REMARK    6  A    between atoms: C7_9  and  O2_10 
REMARK    7  A    between atoms: C9_12  and  C10_13 
REMARK    8  A    between atoms: C10_13  and  C11_14 
REMARK    9  A    between atoms: C17_20  and  C18_21 
ROOT
HETATM    1  C3  UNL     1      26.589   5.610  49.103  1.00  0.00    -0.028 A 
HETATM    2  C4  UNL     1      26.607   6.989  49.160  1.00  0.00     0.010 A 
HETATM    3  C5  UNL     1      25.476   7.611  49.713  1.00  0.00     0.010 A 
HETATM    4  C6  UNL     1      24.379   6.934  50.186  1.00  0.00    -0.034 A 
HETATM    5  C8  UNL     1      24.381   5.549  50.117  1.00  0.00     0.017 A 
HETATM    6  C9  UNL     1      25.488   4.942  49.575  1.00  0.00    -0.044 A 
ENDROOT
BRANCH   6   7
HETATM    7  C10 UNL     1      25.418   3.469  49.432  1.00  0.00     0.096 C 
BRANCH   7   8
HETATM    8  C11 UNL     1      25.649   2.793  50.744  1.00  0.00     0.011 A 
HETATM    9  C12 UNL     1      26.712   2.681  51.517  1.00  0.00     0.012 A 
HETATM   10  C13 UNL     1      26.420   1.953  52.675  1.00  0.00     0.090 A 
HETATM   11  C14 UNL     1      27.157   0.706  53.020  1.00  0.00    -0.001 A 
HETATM   12  C20 UNL     1      24.964   1.461  52.457  1.00  0.00     0.108 A 
HETATM   13  C15 UNL     1      27.388  -0.621  52.681  1.00  0.00    -0.003 A 
HETATM   14  C18 UNL     1      27.921   0.163  54.105  1.00  0.00     0.020 A 
HETATM   15  C17 UNL     1      26.548  -0.051  54.126  1.00  0.00     0.008 A 
HETATM   16  C16 UNL     1      26.130  -1.075  52.959  1.00  0.00     0.015 A 
HETATM   17  C19 UNL     1      25.174  -0.580  53.907  1.00  0.00     0.131 A 
HETATM   18  N2  UNL     1      24.402   0.589  53.305  1.00  0.00    -0.269 NA
HETATM   19  N3  UNL     1      24.492   2.080  51.231  1.00  0.00    -0.348 N 
HETATM   20  H19 UNL     1      23.514   1.922  50.958  1.00  0.00     0.167 HD
ENDBRANCH   7   8
ENDBRANCH   6   7
BRANCH   1  21
HETATM   21  C2  UNL     1      27.816   4.948  48.575  1.00  0.00     0.209 C 
BRANCH  21  22
HETATM   22  O1  UNL     1      28.661   5.994  48.218  1.00  0.00    -0.358 OA
BRANCH  22  23
HETATM   23  C1  UNL     1      29.997   5.713  48.254  1.00  0.00     0.434 C 
BRANCH  23  24
HETATM   24  N1  UNL     1      30.693   6.216  49.427  1.00  0.00     0.101 N 
HETATM   25  H1  UNL     1      30.592   7.241  49.493  1.00  0.00     0.315 HD
HETATM   26  H2  UNL     1      30.254   5.834  50.300  1.00  0.00     0.315 HD
ENDBRANCH  23  24
ENDBRANCH  22  23
ENDBRANCH  21  22
ENDBRANCH   1  21
BRANCH   4  27
HETATM   27  C7  UNL     1      23.289   7.819  50.747  1.00  0.00     0.202 C 
BRANCH  27  28
HETATM   28  O2  UNL     1      22.340   8.015  49.739  1.00  0.00    -0.396 OA
HETATM   29  H11 UNL     1      21.433   7.758  50.048  1.00  0.00     0.209 HD
ENDBRANCH  27  28
ENDBRANCH   4  27
TORSDOF 9
ENDMDL
MODEL 8
REMARK VINA RESULT:      -7.5      3.422      7.143
REMARK  9 active torsions:
REMARK  status: ('A' for Active; 'I' for Inactive)
REMARK    1  A    between atoms: N1_1  and  C1_2 
REMARK    2  A    between atoms: C1_2  and  O1_3 
REMARK    3  A    between atoms: O1_3  and  C2_4 
REMARK    4  A    between atoms: C2_4  and  C3_5 
REMARK    5  A    between atoms: C6_8  and  C7_9 
REMARK    6  A    between atoms: C7_9  and  O2_10 
REMARK    7  A    between atoms: C9_12  and  C10_13 
REMARK    8  A    between atoms: C10_13  and  C11_14 
REMARK    9  A    between atoms: C17_20  and  C18_21 
ROOT
HETATM    1  C3  UNL     1      24.769   0.084  53.271  1.00  0.00    -0.028 A 
HETATM    2  C4  UNL     1      25.914  -0.669  53.432  1.00  0.00     0.010 A 
HETATM    3  C5  UNL     1      27.120   0.038  53.561  1.00  0.00     0.010 A 
HETATM    4  C6  UNL     1      27.215   1.409  53.534  1.00  0.00    -0.034 A 
HETATM    5  C8  UNL     1      26.053   2.145  53.370  1.00  0.00     0.017 A 
HETATM    6  C9  UNL     1      24.873   1.451  53.244  1.00  0.00    -0.044 A 
ENDROOT
BRANCH   6   7
HETATM    7  C10 UNL     1      23.664   2.265  52.978  1.00  0.00     0.096 C 
BRANCH   7   8
HETATM    8  C11 UNL     1      23.607   2.683  51.544  1.00  0.00     0.011 A 
HETATM    9  C12 UNL     1      24.042   3.754  50.908  1.00  0.00     0.012 A 
HETATM   10  C13 UNL     1      23.760   3.677  49.540  1.00  0.00     0.090 A 
HETATM   11  C14 UNL     1      22.940   4.712  48.852  1.00  0.00    -0.001 A 
HETATM   12  C20 UNL     1      22.904   2.389  49.401  1.00  0.00     0.108 A 
HETATM   13  C15 UNL     1      21.674   5.266  48.712  1.00  0.00    -0.003 A 
HETATM   14  C18 UNL     1      23.038   5.608  47.738  1.00  0.00     0.020 A 
HETATM   15  C17 UNL     1      22.541   4.335  47.487  1.00  0.00     0.008 A 
HETATM   16  C16 UNL     1      21.085   4.169  48.149  1.00  0.00     0.015 A 
HETATM   17  C19 UNL     1      21.670   3.136  47.343  1.00  0.00     0.131 A 
HETATM   18  N2  UNL     1      22.314   2.082  48.237  1.00  0.00    -0.269 NA
HETATM   19  N3  UNL     1      22.887   1.753  50.706  1.00  0.00    -0.348 N 
HETATM   20  H19 UNL     1      22.419   0.843  50.792  1.00  0.00     0.167 HD
ENDBRANCH   7   8
ENDBRANCH   6   7
BRANCH   1  21
HETATM   21  C2  UNL     1      23.482  -0.665  53.198  1.00  0.00     0.209 C 
BRANCH  21  22
HETATM   22  O1  UNL     1      23.062  -0.782  54.520  1.00  0.00    -0.358 OA
BRANCH  22  23
HETATM   23  C1  UNL     1      21.741  -1.082  54.696  1.00  0.00     0.434 C 
BRANCH  23  24
HETATM   24  N1  UNL     1      20.885   0.065  54.950  1.00  0.00     0.101 N 
HETATM   25  H1  UNL     1      20.281  -0.112  55.770  1.00  0.00     0.315 HD
HETATM   26  H2  UNL     1      21.466   0.900  55.205  1.00  0.00     0.315 HD
ENDBRANCH  23  24
ENDBRANCH  22  23
ENDBRANCH  21  22
ENDBRANCH   1  21
BRANCH   4  27
HETATM   27  C7  UNL     1      28.619   1.942  53.706  1.00  0.00     0.202 C 
BRANCH  27  28
HETATM   28  O2  UNL     1      28.797   2.974  52.780  1.00  0.00    -0.396 OA
HETATM   29  H11 UNL     1      28.574   2.674  51.862  1.00  0.00     0.209 HD
ENDBRANCH  27  28
ENDBRANCH   4  27
TORSDOF 9
ENDMDL
MODEL 9
REMARK VINA RESULT:      -7.5      2.967      6.960
REMARK  9 active torsions:
REMARK  status: ('A' for Active; 'I' for Inactive)
REMARK    1  A    between atoms: N1_1  and  C1_2 
REMARK    2  A    between atoms: C1_2  and  O1_3 
REMARK    3  A    between atoms: O1_3  and  C2_4 
REMARK    4  A    between atoms: C2_4  and  C3_5 
REMARK    5  A    between atoms: C6_8  and  C7_9 
REMARK    6  A    between atoms: C7_9  and  O2_10 
REMARK    7  A    between atoms: C9_12  and  C10_13 
REMARK    8  A    between atoms: C10_13  and  C11_14 
REMARK    9  A    between atoms: C17_20  and  C18_21 
ROOT
HETATM    1  C3  UNL     1      24.842   0.102  53.250  1.00  0.00    -0.028 A 
HETATM    2  C4  UNL     1      25.876  -0.795  53.425  1.00  0.00     0.010 A 
HETATM    3  C5  UNL     1      27.146  -0.252  53.676  1.00  0.00     0.010 A 
HETATM    4  C6  UNL     1      27.406   1.095  53.752  1.00  0.00    -0.034 A 
HETATM    5  C8  UNL     1      26.353   1.978  53.571  1.00  0.00     0.017 A 
HETATM    6  C9  UNL     1      25.111   1.445  53.326  1.00  0.00    -0.044 A 
ENDROOT
BRANCH   6   7
HETATM    7  C10 UNL     1      24.028   2.417  53.046  1.00  0.00     0.096 C 
BRANCH   7   8
HETATM    8  C11 UNL     1      24.273   3.130  51.756  1.00  0.00     0.011 A 
HETATM    9  C12 UNL     1      25.368   3.367  51.060  1.00  0.00     0.012 A 
HETATM   10  C13 UNL     1      25.079   4.075  49.889  1.00  0.00     0.090 A 
HETATM   11  C14 UNL     1      25.698   5.399  49.603  1.00  0.00    -0.001 A 
HETATM   12  C20 UNL     1      23.566   4.403  50.008  1.00  0.00     0.108 A 
HETATM   13  C15 UNL     1      25.759   6.738  49.965  1.00  0.00    -0.003 A 
HETATM   14  C18 UNL     1      26.470   6.036  48.577  1.00  0.00     0.020 A 
HETATM   15  C17 UNL     1      25.087   6.099  48.461  1.00  0.00     0.008 A 
HETATM   16  C16 UNL     1      24.481   7.057  49.602  1.00  0.00     0.015 A 
HETATM   17  C19 UNL     1      23.652   6.474  48.587  1.00  0.00     0.131 A 
HETATM   18  N2  UNL     1      22.972   5.220  49.128  1.00  0.00    -0.269 NA
HETATM   19  N3  UNL     1      23.081   3.721  51.194  1.00  0.00    -0.348 N 
HETATM   20  H19 UNL     1      22.075   3.768  51.399  1.00  0.00     0.167 HD
ENDBRANCH   7   8
ENDBRANCH   6   7
BRANCH   1  21
HETATM   21  C2  UNL     1      23.483  -0.476  53.047  1.00  0.00     0.209 C 
BRANCH  21  22
HETATM   22  O1  UNL     1      23.021  -0.760  54.329  1.00  0.00    -0.358 OA
BRANCH  22  23
HETATM   23  C1  UNL     1      21.706  -1.117  54.417  1.00  0.00     0.434 C 
BRANCH  23  24
HETATM   24  N1  UNL     1      20.807  -0.039  54.794  1.00  0.00     0.101 N 
HETATM   25  H1  UNL     1      20.185  -0.342  55.561  1.00  0.00     0.315 HD
HETATM   26  H2  UNL     1      21.353   0.769  55.179  1.00  0.00     0.315 HD
ENDBRANCH  23  24
ENDBRANCH  22  23
ENDBRANCH  21  22
ENDBRANCH   1  21
BRANCH   4  27
HETATM   27  C7  UNL     1      28.848   1.439  54.045  1.00  0.00     0.202 C 
BRANCH  27  28
HETATM   28  O2  UNL     1      29.214   2.490  53.199  1.00  0.00    -0.396 OA
HETATM   29  H11 UNL     1      29.021   2.271  52.252  1.00  0.00     0.209 HD
ENDBRANCH  27  28
ENDBRANCH   4  27
TORSDOF 9
ENDMDL
