MODEL 1
REMARK VINA RESULT:      -7.7      0.000      0.000
REMARK  2 active torsions:
REMARK  status: ('A' for Active; 'I' for Inactive)
REMARK    1  A    between atoms: C7_10  and  C8_11 
REMARK    2  A    between atoms: C8_11  and  C9_12 
ROOT
HETATM    1  C1  UNL     1      26.221   3.803  50.107  1.00  0.00     0.110 C 
HETATM    2  S1  UNL     1      24.426   3.681  50.005  1.00  0.00    -0.056 SA
HETATM    3  C2  UNL     1      23.858   2.200  50.816  1.00  0.00     0.163 A 
HETATM    4  N1  UNL     1      22.751   2.643  50.447  1.00  0.00    -0.281 N 
HETATM    5  C3  UNL     1      21.453   2.073  50.651  1.00  0.00     0.314 C 
HETATM    6  O1  UNL     1      21.606   0.701  51.000  1.00  0.00    -0.343 OA
HETATM    7  C4  UNL     1      20.680   0.221  51.926  1.00  0.00     0.133 C 
HETATM    8  C5  UNL     1      21.771   0.338  52.743  1.00  0.00     0.009 C 
HETATM    9  C6  UNL     1      23.174   0.659  53.057  1.00  0.00     0.069 C 
HETATM   10  C7  UNL     1      24.290   1.108  52.466  1.00  0.00    -0.002 C 
HETATM   11  N2  UNL     1      25.009   1.581  51.295  1.00  0.00    -0.342 N 
HETATM   12  H19 UNL     1      25.966   1.431  51.063  1.00  0.00     0.167 HD
ENDROOT
BRANCH  10  13
HETATM   13  C8  UNL     1      25.191   1.108  53.565  1.00  0.00     0.066 C 
BRANCH  13  14
HETATM   14  C9  UNL     1      25.863  -0.150  54.030  1.00  0.00    -0.018 A 
HETATM   15  C10 UNL     1      25.027  -0.884  55.074  1.00  0.00     0.020 C 
HETATM   16  C11 UNL     1      27.085   0.314  54.729  1.00  0.00    -0.014 A 
HETATM   17  C12 UNL     1      28.399   0.184  54.674  1.00  0.00     0.038 A 
HETATM   18  C13 UNL     1      28.816  -0.694  53.588  1.00  0.00     0.112 A 
HETATM   19  F1  UNL     1      30.113  -0.967  53.351  1.00  0.00    -0.206 F 
HETATM   20  C14 UNL     1      27.780  -1.152  52.916  1.00  0.00     0.016 A 
HETATM   21  C15 UNL     1      26.326  -1.040  52.938  1.00  0.00     0.043 A 
ENDBRANCH  13  14
ENDBRANCH  10  13
TORSDOF 2
ENDMDL
MODEL 2
REMARK VINA RESULT:      -7.7      1.776      2.417
REMARK  2 active torsions:
REMARK  status: ('A' for Active; 'I' for Inactive)
REMARK    1  A    between atoms: C7_10  and  C8_11 
REMARK    2  A    between atoms: C8_11  and  C9_12 
ROOT
HETATM    1  C1  UNL     1      23.670   4.254  51.153  1.00  0.00     0.110 C 
HETATM    2  S1  UNL     1      22.249   3.429  51.892  1.00  0.00    -0.056 SA
HETATM    3  C2  UNL     1      22.663   1.752  52.328  1.00  0.00     0.163 A 
HETATM    4  N1  UNL     1      21.473   1.753  52.709  1.00  0.00    -0.281 N 
HETATM    5  C3  UNL     1      20.732   0.683  53.308  1.00  0.00     0.314 C 
HETATM    6  O1  UNL     1      21.414  -0.541  53.059  1.00  0.00    -0.343 OA
HETATM    7  C4  UNL     1      21.349  -1.474  54.094  1.00  0.00     0.133 C 
HETATM    8  C5  UNL     1      22.632  -1.034  54.272  1.00  0.00     0.009 C 
HETATM    9  C6  UNL     1      23.817  -0.216  53.959  1.00  0.00     0.069 C 
HETATM   10  C7  UNL     1      24.228   0.721  53.093  1.00  0.00    -0.002 C 
HETATM   11  N2  UNL     1      23.995   1.596  51.957  1.00  0.00    -0.342 N 
HETATM   12  H19 UNL     1      24.646   1.879  51.259  1.00  0.00     0.167 HD
ENDROOT
BRANCH  10  13
HETATM   13  C8  UNL     1      25.556   0.941  53.551  1.00  0.00     0.066 C 
BRANCH  13  14
HETATM   14  C9  UNL     1      26.746   0.604  52.703  1.00  0.00    -0.018 A 
HETATM   15  C10 UNL     1      26.731   1.365  51.381  1.00  0.00     0.020 C 
HETATM   16  C11 UNL     1      26.568  -0.828  52.359  1.00  0.00    -0.014 A 
HETATM   17  C12 UNL     1      27.187  -1.987  52.485  1.00  0.00     0.038 A 
HETATM   18  C13 UNL     1      28.461  -1.854  53.182  1.00  0.00     0.112 A 
HETATM   19  F1  UNL     1      29.258  -2.914  53.419  1.00  0.00    -0.206 F 
HETATM   20  C14 UNL     1      28.694  -0.603  53.521  1.00  0.00     0.016 A 
HETATM   21  C15 UNL     1      28.049   0.700  53.404  1.00  0.00     0.043 A 
ENDBRANCH  13  14
ENDBRANCH  10  13
TORSDOF 2
ENDMDL
MODEL 3
REMARK VINA RESULT:      -7.5      2.496      3.801
REMARK  2 active torsions:
REMARK  status: ('A' for Active; 'I' for Inactive)
REMARK    1  A    between atoms: C7_10  and  C8_11 
REMARK    2  A    between atoms: C8_11  and  C9_12 
ROOT
HETATM    1  C1  UNL     1      21.685  -1.531  54.309  1.00  0.00     0.110 C 
HETATM    2  S1  UNL     1      20.535  -0.332  53.614  1.00  0.00    -0.056 SA
HETATM    3  C2  UNL     1      21.402   1.143  53.115  1.00  0.00     0.163 A 
HETATM    4  N1  UNL     1      20.247   1.489  52.788  1.00  0.00    -0.281 N 
HETATM    5  C3  UNL     1      19.824   2.723  52.196  1.00  0.00     0.314 C 
HETATM    6  O1  UNL     1      20.848   3.694  52.382  1.00  0.00    -0.343 OA
HETATM    7  C4  UNL     1      21.008   4.592  51.326  1.00  0.00     0.133 C 
HETATM    8  C5  UNL     1      22.094   3.790  51.102  1.00  0.00     0.009 C 
HETATM    9  C6  UNL     1      23.000   2.662  51.382  1.00  0.00     0.069 C 
HETATM   10  C7  UNL     1      23.160   1.655  52.253  1.00  0.00    -0.002 C 
HETATM   11  N2  UNL     1      22.738   0.903  53.422  1.00  0.00    -0.342 N 
HETATM   12  H19 UNL     1      23.311   0.448  54.097  1.00  0.00     0.167 HD
ENDROOT
BRANCH  10  13
HETATM   13  C8  UNL     1      24.339   1.048  51.742  1.00  0.00     0.066 C 
BRANCH  13  14
HETATM   14  C9  UNL     1      25.703   1.561  52.093  1.00  0.00    -0.018 A 
HETATM   15  C10 UNL     1      26.257   2.482  51.011  1.00  0.00     0.020 C 
HETATM   16  C11 UNL     1      26.568   0.356  52.094  1.00  0.00    -0.014 A 
HETATM   17  C12 UNL     1      27.364  -0.324  52.900  1.00  0.00     0.038 A 
HETATM   18  C13 UNL     1      27.440   0.277  54.226  1.00  0.00     0.112 A 
HETATM   19  F1  UNL     1      28.196  -0.254  55.206  1.00  0.00    -0.206 F 
HETATM   20  C14 UNL     1      26.696   1.361  54.306  1.00  0.00     0.016 A 
HETATM   21  C15 UNL     1      25.811   2.144  53.453  1.00  0.00     0.043 A 
ENDBRANCH  13  14
ENDBRANCH  10  13
TORSDOF 2
ENDMDL
MODEL 4
REMARK VINA RESULT:      -7.4      1.719      3.062
REMARK  2 active torsions:
REMARK  status: ('A' for Active; 'I' for Inactive)
REMARK    1  A    between atoms: C7_10  and  C8_11 
REMARK    2  A    between atoms: C8_11  and  C9_12 
ROOT
HETATM    1  C1  UNL     1      21.157   0.038  53.122  1.00  0.00     0.110 C 
HETATM    2  S1  UNL     1      21.596   0.579  51.460  1.00  0.00    -0.056 SA
HETATM    3  C2  UNL     1      22.834   1.859  51.530  1.00  0.00     0.163 A 
HETATM    4  N1  UNL     1      22.707   1.794  50.290  1.00  0.00    -0.281 N 
HETATM    5  C3  UNL     1      23.388   2.557  49.286  1.00  0.00     0.314 C 
HETATM    6  O1  UNL     1      23.965   3.705  49.899  1.00  0.00    -0.343 OA
HETATM    7  C4  UNL     1      25.196   4.097  49.372  1.00  0.00     0.133 C 
HETATM    8  C5  UNL     1      25.627   3.516  50.534  1.00  0.00     0.009 C 
HETATM    9  C6  UNL     1      25.454   2.817  51.819  1.00  0.00     0.069 C 
HETATM   10  C7  UNL     1      24.489   2.317  52.603  1.00  0.00    -0.002 C 
HETATM   11  N2  UNL     1      23.090   2.046  52.886  1.00  0.00    -0.342 N 
HETATM   12  H19 UNL     1      22.634   2.040  53.771  1.00  0.00     0.167 HD
ENDROOT
BRANCH  10  13
HETATM   13  C8  UNL     1      25.261   1.807  53.682  1.00  0.00     0.066 C 
BRANCH  13  14
HETATM   14  C9  UNL     1      25.683   0.370  53.737  1.00  0.00    -0.018 A 
HETATM   15  C10 UNL     1      24.603  -0.514  54.351  1.00  0.00     0.020 C 
HETATM   16  C11 UNL     1      26.824   0.349  54.685  1.00  0.00    -0.014 A 
HETATM   17  C12 UNL     1      28.101   0.016  54.731  1.00  0.00     0.038 A 
HETATM   18  C13 UNL     1      28.577  -0.504  53.456  1.00  0.00     0.112 A 
HETATM   19  F1  UNL     1      29.851  -0.904  53.279  1.00  0.00    -0.206 F 
HETATM   20  C14 UNL     1      27.615  -0.520  52.555  1.00  0.00     0.016 A 
HETATM   21  C15 UNL     1      26.204  -0.169  52.457  1.00  0.00     0.043 A 
ENDBRANCH  13  14
ENDBRANCH  10  13
TORSDOF 2
ENDMDL
MODEL 5
REMARK VINA RESULT:      -7.3      2.679      4.352
REMARK  2 active torsions:
REMARK  status: ('A' for Active; 'I' for Inactive)
REMARK    1  A    between atoms: C7_10  and  C8_11 
REMARK    2  A    between atoms: C8_11  and  C9_12 
ROOT
HETATM    1  C1  UNL     1      21.912   4.310  52.200  1.00  0.00     0.110 C 
HETATM    2  S1  UNL     1      22.609   5.308  50.873  1.00  0.00    -0.056 SA
HETATM    3  C2  UNL     1      24.346   4.961  50.682  1.00  0.00     0.163 A 
HETATM    4  N1  UNL     1      24.230   5.818  49.781  1.00  0.00    -0.281 N 
HETATM    5  C3  UNL     1      25.240   6.323  48.899  1.00  0.00     0.314 C 
HETATM    6  O1  UNL     1      26.518   6.006  49.440  1.00  0.00    -0.343 OA
HETATM    7  C4  UNL     1      27.497   5.696  48.496  1.00  0.00     0.133 C 
HETATM    8  C5  UNL     1      27.221   4.436  48.951  1.00  0.00     0.009 C 
HETATM    9  C6  UNL     1      26.530   3.443  49.791  1.00  0.00     0.069 C 
HETATM   10  C7  UNL     1      25.596   3.370  50.751  1.00  0.00    -0.002 C 
HETATM   11  N2  UNL     1      24.634   3.995  51.642  1.00  0.00    -0.342 N 
HETATM   12  H19 UNL     1      24.387   3.720  52.566  1.00  0.00     0.167 HD
ENDROOT
BRANCH  10  13
HETATM   13  C8  UNL     1      25.560   1.968  50.980  1.00  0.00     0.066 C 
BRANCH  13  14
HETATM   14  C9  UNL     1      25.819   1.386  52.338  1.00  0.00    -0.018 A 
HETATM   15  C10 UNL     1      24.588   1.470  53.233  1.00  0.00     0.020 C 
HETATM   16  C11 UNL     1      26.833   2.284  52.943  1.00  0.00    -0.014 A 
HETATM   17  C12 UNL     1      28.054   2.246  53.445  1.00  0.00     0.038 A 
HETATM   18  C13 UNL     1      28.617   0.902  53.410  1.00  0.00     0.112 A 
HETATM   19  F1  UNL     1      29.854   0.635  53.872  1.00  0.00    -0.206 F 
HETATM   20  C14 UNL     1      27.771   0.040  52.884  1.00  0.00     0.016 A 
HETATM   21  C15 UNL     1      26.426   0.033  52.323  1.00  0.00     0.043 A 
ENDBRANCH  13  14
ENDBRANCH  10  13
TORSDOF 2
ENDMDL
MODEL 6
REMARK VINA RESULT:      -7.1      2.984      5.019
REMARK  2 active torsions:
REMARK  status: ('A' for Active; 'I' for Inactive)
REMARK    1  A    between atoms: C7_10  and  C8_11 
REMARK    2  A    between atoms: C8_11  and  C9_12 
ROOT
HETATM    1  C1  UNL     1      27.827   2.193  52.997  1.00  0.00     0.110 C 
HETATM    2  S1  UNL     1      26.639   0.840  53.036  1.00  0.00    -0.056 SA
HETATM    3  C2  UNL     1      24.982   1.472  53.199  1.00  0.00     0.163 A 
HETATM    4  N1  UNL     1      24.711   0.253  53.170  1.00  0.00    -0.281 N 
HETATM    5  C3  UNL     1      23.426  -0.374  53.252  1.00  0.00     0.314 C 
HETATM    6  O1  UNL     1      22.492   0.566  53.775  1.00  0.00    -0.343 OA
HETATM    7  C4  UNL     1      21.206   0.477  53.242  1.00  0.00     0.133 C 
HETATM    8  C5  UNL     1      21.644   1.592  52.581  1.00  0.00     0.009 C 
HETATM    9  C6  UNL     1      22.622   2.637  52.230  1.00  0.00     0.069 C 
HETATM   10  C7  UNL     1      23.872   3.023  52.521  1.00  0.00    -0.002 C 
HETATM   11  N2  UNL     1      25.122   2.856  53.244  1.00  0.00    -0.342 N 
HETATM   12  H19 UNL     1      25.733   3.566  53.581  1.00  0.00     0.167 HD
ENDROOT
BRANCH  10  13
HETATM   13  C8  UNL     1      23.997   4.168  51.687  1.00  0.00     0.066 C 
BRANCH  13  14
HETATM   14  C9  UNL     1      24.247   4.043  50.214  1.00  0.00    -0.018 A 
HETATM   15  C10 UNL     1      23.140   3.260  49.517  1.00  0.00     0.020 C 
HETATM   16  C11 UNL     1      25.471   3.212  50.111  1.00  0.00    -0.014 A 
HETATM   17  C12 UNL     1      26.697   3.264  49.622  1.00  0.00     0.038 A 
HETATM   18  C13 UNL     1      26.969   4.536  48.964  1.00  0.00     0.112 A 
HETATM   19  F1  UNL     1      28.160   4.804  48.395  1.00  0.00    -0.206 F 
HETATM   20  C14 UNL     1      25.922   5.335  49.012  1.00  0.00     0.016 A 
HETATM   21  C15 UNL     1      24.561   5.322  49.532  1.00  0.00     0.043 A 
ENDBRANCH  13  14
ENDBRANCH  10  13
TORSDOF 2
ENDMDL
MODEL 7
REMARK VINA RESULT:      -7.1      3.315      6.103
REMARK  2 active torsions:
REMARK  status: ('A' for Active; 'I' for Inactive)
REMARK    1  A    between atoms: C7_10  and  C8_11 
REMARK    2  A    between atoms: C8_11  and  C9_12 
ROOT
HETATM    1  C1  UNL     1      22.615  -0.867  53.934  1.00  0.00     0.110 C 
HETATM    2  S1  UNL     1      24.221  -0.898  54.749  1.00  0.00    -0.056 SA
HETATM    3  C2  UNL     1      25.398   0.082  53.839  1.00  0.00     0.163 A 
HETATM    4  N1  UNL     1      26.149  -0.296  54.763  1.00  0.00    -0.281 N 
HETATM    5  C3  UNL     1      27.535   0.008  54.962  1.00  0.00     0.314 C 
HETATM    6  O1  UNL     1      28.076   0.494  53.738  1.00  0.00    -0.343 OA
HETATM    7  C4  UNL     1      29.039   1.494  53.875  1.00  0.00     0.133 C 
HETATM    8  C5  UNL     1      27.979   2.260  53.471  1.00  0.00     0.009 C 
HETATM    9  C6  UNL     1      26.589   2.493  53.043  1.00  0.00     0.069 C 
HETATM   10  C7  UNL     1      25.453   1.823  52.807  1.00  0.00    -0.002 C 
HETATM   11  N2  UNL     1      24.691   0.587  52.752  1.00  0.00    -0.342 N 
HETATM   12  H19 UNL     1      23.968   0.341  52.113  1.00  0.00     0.167 HD
ENDROOT
BRANCH  10  13
HETATM   13  C8  UNL     1      24.592   2.886  52.421  1.00  0.00     0.066 C 
BRANCH  13  14
HETATM   14  C9  UNL     1      24.361   3.227  50.979  1.00  0.00    -0.018 A 
HETATM   15  C10 UNL     1      23.182   2.453  50.398  1.00  0.00     0.020 C 
HETATM   16  C11 UNL     1      25.569   2.730  50.278  1.00  0.00    -0.014 A 
HETATM   17  C12 UNL     1      26.555   3.169  49.516  1.00  0.00     0.038 A 
HETATM   18  C13 UNL     1      26.452   4.600  49.261  1.00  0.00     0.112 A 
HETATM   19  F1  UNL     1      27.354   5.256  48.506  1.00  0.00    -0.206 F 
HETATM   20  C14 UNL     1      25.395   5.119  49.852  1.00  0.00     0.016 A 
HETATM   21  C15 UNL     1      24.289   4.681  50.694  1.00  0.00     0.043 A 
ENDBRANCH  13  14
ENDBRANCH  10  13
TORSDOF 2
ENDMDL
MODEL 8
REMARK VINA RESULT:      -7.0      3.302      5.879
REMARK  2 active torsions:
REMARK  status: ('A' for Active; 'I' for Inactive)
REMARK    1  A    between atoms: C7_10  and  C8_11 
REMARK    2  A    between atoms: C8_11  and  C9_12 
ROOT
HETATM    1  C1  UNL     1      25.654   4.900  49.586  1.00  0.00     0.110 C 
HETATM    2  S1  UNL     1      26.395   3.295  49.933  1.00  0.00    -0.056 SA
HETATM    3  C2  UNL     1      25.780   2.647  51.474  1.00  0.00     0.163 A 
HETATM    4  N1  UNL     1      26.547   1.708  51.173  1.00  0.00    -0.281 N 
HETATM    5  C3  UNL     1      26.803   0.502  51.902  1.00  0.00     0.314 C 
HETATM    6  O1  UNL     1      26.361   0.677  53.244  1.00  0.00    -0.343 OA
HETATM    7  C4  UNL     1      25.815  -0.461  53.838  1.00  0.00     0.133 C 
HETATM    8  C5  UNL     1      24.663   0.233  53.586  1.00  0.00     0.009 C 
HETATM    9  C6  UNL     1      23.875   1.376  53.092  1.00  0.00     0.069 C 
HETATM   10  C7  UNL     1      24.040   2.570  52.505  1.00  0.00    -0.002 C 
HETATM   11  N2  UNL     1      24.889   3.607  51.944  1.00  0.00    -0.342 N 
HETATM   12  H19 UNL     1      24.750   4.592  51.972  1.00  0.00     0.167 HD
ENDROOT
BRANCH  10  13
HETATM   13  C8  UNL     1      22.690   2.999  52.394  1.00  0.00     0.066 C 
BRANCH  13  14
HETATM   14  C9  UNL     1      21.859   2.676  51.188  1.00  0.00    -0.018 A 
HETATM   15  C10 UNL     1      21.937   3.778  50.137  1.00  0.00     0.020 C 
HETATM   16  C11 UNL     1      20.461   2.675  51.685  1.00  0.00    -0.014 A 
HETATM   17  C12 UNL     1      19.415   1.875  51.774  1.00  0.00     0.038 A 
HETATM   18  C13 UNL     1      19.686   0.558  51.211  1.00  0.00     0.112 A 
HETATM   19  F1  UNL     1      18.756  -0.417  51.198  1.00  0.00    -0.206 F 
HETATM   20  C14 UNL     1      20.915   0.478  50.744  1.00  0.00     0.016 A 
HETATM   21  C15 UNL     1      22.094   1.326  50.622  1.00  0.00     0.043 A 
ENDBRANCH  13  14
ENDBRANCH  10  13
TORSDOF 2
ENDMDL
MODEL 9
REMARK VINA RESULT:      -6.9      3.408      6.147
REMARK  2 active torsions:
REMARK  status: ('A' for Active; 'I' for Inactive)
REMARK    1  A    between atoms: C7_10  and  C8_11 
REMARK    2  A    between atoms: C8_11  and  C9_12 
ROOT
HETATM    1  C1  UNL     1      20.750  -0.185  52.740  1.00  0.00     0.110 C 
HETATM    2  S1  UNL     1      22.170  -0.767  53.684  1.00  0.00    -0.056 SA
HETATM    3  C2  UNL     1      23.627   0.164  53.251  1.00  0.00     0.163 A 
HETATM    4  N1  UNL     1      24.140  -0.599  54.095  1.00  0.00    -0.281 N 
HETATM    5  C3  UNL     1      25.504  -0.652  54.532  1.00  0.00     0.314 C 
HETATM    6  O1  UNL     1      26.314   0.031  53.581  1.00  0.00    -0.343 OA
HETATM    7  C4  UNL     1      27.390   0.736  54.121  1.00  0.00     0.133 C 
HETATM    8  C5  UNL     1      26.552   1.783  53.850  1.00  0.00     0.009 C 
HETATM    9  C6  UNL     1      25.310   2.404  53.359  1.00  0.00     0.069 C 
HETATM   10  C7  UNL     1      24.135   2.072  52.804  1.00  0.00    -0.002 C 
HETATM   11  N2  UNL     1      23.203   1.081  52.294  1.00  0.00    -0.342 N 
HETATM   12  H19 UNL     1      22.567   1.174  51.533  1.00  0.00     0.167 HD
ENDROOT
BRANCH  10  13
HETATM   13  C8  UNL     1      23.536   3.353  52.663  1.00  0.00     0.066 C 
BRANCH  13  14
HETATM   14  C9  UNL     1      23.609   4.117  51.376  1.00  0.00    -0.018 A 
HETATM   15  C10 UNL     1      23.616   5.624  51.612  1.00  0.00     0.020 C 
HETATM   16  C11 UNL     1      22.333   3.812  50.685  1.00  0.00    -0.014 A 
HETATM   17  C12 UNL     1      21.887   3.289  49.557  1.00  0.00     0.038 A 
HETATM   18  C13 UNL     1      22.975   2.865  48.685  1.00  0.00     0.112 A 
HETATM   19  F1  UNL     1      22.746   2.303  47.482  1.00  0.00    -0.206 F 
HETATM   20  C14 UNL     1      24.150   3.106  49.230  1.00  0.00     0.016 A 
HETATM   21  C15 UNL     1      24.688   3.677  50.458  1.00  0.00     0.043 A 
ENDBRANCH  13  14
ENDBRANCH  10  13
TORSDOF 2
ENDMDL
