MODEL 1
REMARK VINA RESULT:      -8.3      0.000      0.000
REMARK  9 active torsions:
REMARK  status: ('A' for Active; 'I' for Inactive)
REMARK    1  A    between atoms: C2_2  and  O1_3 
REMARK    2  A    between atoms: O1_3  and  C3_4 
REMARK    3  A    between atoms: C6_8  and  O2_9 
REMARK    4  A    between atoms: O2_9  and  C7_10 
REMARK    5  A    between atoms: C8_11  and  C9_12 
REMARK    6  A    between atoms: C12_15  and  O3_16 
REMARK    7  A    between atoms: O3_16  and  C13_17 
REMARK    8  A    between atoms: C13_17  and  C14_18 
REMARK    9  A    between atoms: C14_18  and  C15_19 
ROOT
HETATM    1  C9  UNL     1      26.229   3.665  49.768  1.00  0.00     0.020 A 
HETATM    2  C10 UNL     1      26.629   2.718  50.685  1.00  0.00     0.023 A 
HETATM    3  C11 UNL     1      25.667   1.909  51.308  1.00  0.00     0.038 A 
HETATM    4  C12 UNL     1      24.300   2.041  51.018  1.00  0.00     0.068 A 
HETATM    5  C21 UNL     1      23.949   3.000  50.094  1.00  0.00     0.038 A 
HETATM    6  C22 UNL     1      24.895   3.793  49.485  1.00  0.00     0.023 A 
ENDROOT
BRANCH   1   7
HETATM    7  C8  UNL     1      27.132   4.541  49.077  1.00  0.00    -0.037 C 
HETATM    8  C7  UNL     1      27.906   5.266  48.504  1.00  0.00     0.060 C 
BRANCH   8   9
HETATM    9  O2  UNL     1      28.797   6.116  47.865  1.00  0.00    -0.288 OA
BRANCH   9  10
HETATM   10  C6  UNL     1      30.102   6.199  48.404  1.00  0.00     0.216 A 
HETATM   11  C5  UNL     1      30.563   7.606  48.544  1.00  0.00     0.062 A 
HETATM   12  C4  UNL     1      31.749   8.233  47.974  1.00  0.00     0.068 A 
HETATM   13  N1  UNL     1      29.673   8.182  49.298  1.00  0.00    -0.302 NA
HETATM   14  C3  UNL     1      32.501   7.431  47.238  1.00  0.00     0.092 A 
HETATM   15  C24 UNL     1      32.170   6.028  47.016  1.00  0.00     0.066 A 
HETATM   16  C23 UNL     1      31.086   5.489  47.548  1.00  0.00     0.039 A 
HETATM   17 CL1  UNL     1      33.284   5.124  46.015  1.00  0.00    -0.082 Cl
HETATM   18  H7  UNL     1      29.743   9.187  49.565  1.00  0.00     0.186 HD
BRANCH  14  19
HETATM   19  O1  UNL     1      33.596   8.122  46.747  1.00  0.00    -0.350 OA
BRANCH  19  20
HETATM   20  C2  UNL     1      34.528   8.723  47.638  1.00  0.00     0.171 C 
HETATM   21  C1  UNL     1      35.379   7.660  48.306  1.00  0.00     0.034 C 
ENDBRANCH  19  20
ENDBRANCH  14  19
ENDBRANCH   9  10
ENDBRANCH   8   9
ENDBRANCH   1   7
BRANCH   4  22
HETATM   22  O3  UNL     1      23.640   1.116  51.783  1.00  0.00    -0.351 OA
BRANCH  22  23
HETATM   23  C13 UNL     1      23.581   0.936  53.145  1.00  0.00     0.180 C 
BRANCH  23  24
HETATM   24  C14 UNL     1      24.053  -0.376  53.683  1.00  0.00     0.065 C 
BRANCH  24  25
HETATM   25  C15 UNL     1      25.552  -0.399  53.751  1.00  0.00    -0.056 A 
HETATM   26  C16 UNL     1      26.216  -1.224  52.851  1.00  0.00     0.007 A 
HETATM   27  C17 UNL     1      27.574  -1.281  52.872  1.00  0.00     0.001 A 
HETATM   28  C18 UNL     1      28.322  -0.543  53.759  1.00  0.00     0.000 A 
HETATM   29  C19 UNL     1      27.617   0.255  54.624  1.00  0.00     0.001 A 
HETATM   30  C20 UNL     1      26.239   0.373  54.674  1.00  0.00     0.007 A 
ENDBRANCH  24  25
ENDBRANCH  23  24
ENDBRANCH  22  23
ENDBRANCH   4  22
TORSDOF 9
ENDMDL
MODEL 2
REMARK VINA RESULT:      -8.0      1.419      2.176
REMARK  9 active torsions:
REMARK  status: ('A' for Active; 'I' for Inactive)
REMARK    1  A    between atoms: C2_2  and  O1_3 
REMARK    2  A    between atoms: O1_3  and  C3_4 
REMARK    3  A    between atoms: C6_8  and  O2_9 
REMARK    4  A    between atoms: O2_9  and  C7_10 
REMARK    5  A    between atoms: C8_11  and  C9_12 
REMARK    6  A    between atoms: C12_15  and  O3_16 
REMARK    7  A    between atoms: O3_16  and  C13_17 
REMARK    8  A    between atoms: C13_17  and  C14_18 
REMARK    9  A    between atoms: C14_18  and  C15_19 
ROOT
HETATM    1  C9  UNL     1      26.196   4.254  49.409  1.00  0.00     0.020 A 
HETATM    2  C10 UNL     1      24.901   4.651  49.153  1.00  0.00     0.023 A 
HETATM    3  C11 UNL     1      23.837   3.978  49.770  1.00  0.00     0.038 A 
HETATM    4  C12 UNL     1      24.059   2.904  50.646  1.00  0.00     0.068 A 
HETATM    5  C21 UNL     1      25.369   2.544  50.871  1.00  0.00     0.038 A 
HETATM    6  C22 UNL     1      26.412   3.207  50.264  1.00  0.00     0.023 A 
ENDROOT
BRANCH   1   7
HETATM    7  C8  UNL     1      27.353   4.876  48.829  1.00  0.00    -0.037 C 
HETATM    8  C7  UNL     1      28.330   5.404  48.361  1.00  0.00     0.060 C 
BRANCH   8   9
HETATM    9  O2  UNL     1      29.441   6.034  47.819  1.00  0.00    -0.288 OA
BRANCH   9  10
HETATM   10  C6  UNL     1      30.663   5.886  48.515  1.00  0.00     0.216 A 
HETATM   11  C5  UNL     1      31.312   7.195  48.792  1.00  0.00     0.062 A 
HETATM   12  C4  UNL     1      32.643   7.649  48.407  1.00  0.00     0.068 A 
HETATM   13  N1  UNL     1      30.431   7.876  49.466  1.00  0.00    -0.302 NA
HETATM   14  C3  UNL     1      33.351   6.767  47.720  1.00  0.00     0.092 A 
HETATM   15  C24 UNL     1      32.841   5.444  47.377  1.00  0.00     0.066 A 
HETATM   16  C23 UNL     1      31.628   5.064  47.742  1.00  0.00     0.039 A 
HETATM   17 CL1  UNL     1      33.923   4.414  46.465  1.00  0.00    -0.082 Cl
HETATM   18  H7  UNL     1      30.620   8.845  49.798  1.00  0.00     0.186 HD
BRANCH  14  19
HETATM   19  O1  UNL     1      34.593   7.294  47.406  1.00  0.00    -0.350 OA
BRANCH  19  20
HETATM   20  C2  UNL     1      35.618   7.360  48.390  1.00  0.00     0.171 C 
HETATM   21  C1  UNL     1      35.739   6.032  49.114  1.00  0.00     0.034 C 
ENDBRANCH  19  20
ENDBRANCH  14  19
ENDBRANCH   9  10
ENDBRANCH   8   9
ENDBRANCH   1   7
BRANCH   4  22
HETATM   22  O3  UNL     1      22.829   2.476  51.070  1.00  0.00    -0.351 OA
BRANCH  22  23
HETATM   23  C13 UNL     1      22.426   1.881  52.242  1.00  0.00     0.180 C 
BRANCH  23  24
HETATM   24  C14 UNL     1      22.259   0.395  52.234  1.00  0.00     0.065 C 
BRANCH  24  25
HETATM   25  C15 UNL     1      22.969  -0.212  53.408  1.00  0.00    -0.056 A 
HETATM   26  C16 UNL     1      24.355  -0.118  53.429  1.00  0.00     0.007 A 
HETATM   27  C17 UNL     1      25.046  -0.653  54.472  1.00  0.00     0.001 A 
HETATM   28  C18 UNL     1      24.416  -1.287  55.516  1.00  0.00     0.000 A 
HETATM   29  C19 UNL     1      23.047  -1.351  55.446  1.00  0.00     0.001 A 
HETATM   30  C20 UNL     1      22.266  -0.836  54.425  1.00  0.00     0.007 A 
ENDBRANCH  24  25
ENDBRANCH  23  24
ENDBRANCH  22  23
ENDBRANCH   4  22
TORSDOF 9
ENDMDL
MODEL 3
REMARK VINA RESULT:      -8.0      1.894      2.756
REMARK  9 active torsions:
REMARK  status: ('A' for Active; 'I' for Inactive)
REMARK    1  A    between atoms: C2_2  and  O1_3 
REMARK    2  A    between atoms: O1_3  and  C3_4 
REMARK    3  A    between atoms: C6_8  and  O2_9 
REMARK    4  A    between atoms: O2_9  and  C7_10 
REMARK    5  A    between atoms: C8_11  and  C9_12 
REMARK    6  A    between atoms: C12_15  and  O3_16 
REMARK    7  A    between atoms: O3_16  and  C13_17 
REMARK    8  A    between atoms: C13_17  and  C14_18 
REMARK    9  A    between atoms: C14_18  and  C15_19 
ROOT
HETATM    1  C9  UNL     1      26.836   4.999  48.975  1.00  0.00     0.020 A 
HETATM    2  C10 UNL     1      26.791   3.710  49.459  1.00  0.00     0.023 A 
HETATM    3  C11 UNL     1      25.565   3.173  49.880  1.00  0.00     0.038 A 
HETATM    4  C12 UNL     1      24.378   3.920  49.820  1.00  0.00     0.068 A 
HETATM    5  C21 UNL     1      24.474   5.203  49.328  1.00  0.00     0.038 A 
HETATM    6  C22 UNL     1      25.678   5.728  48.916  1.00  0.00     0.023 A 
ENDROOT
BRANCH   1   7
HETATM    7  C8  UNL     1      28.037   5.641  48.519  1.00  0.00    -0.037 C 
HETATM    8  C7  UNL     1      29.057   6.167  48.149  1.00  0.00     0.060 C 
BRANCH   8   9
HETATM    9  O2  UNL     1      30.228   6.788  47.741  1.00  0.00    -0.288 OA
BRANCH   9  10
HETATM   10  C6  UNL     1      31.444   6.155  48.091  1.00  0.00     0.216 A 
HETATM   11  C5  UNL     1      32.620   6.818  47.468  1.00  0.00     0.062 A 
HETATM   12  C4  UNL     1      33.632   6.236  46.594  1.00  0.00     0.068 A 
HETATM   13  N1  UNL     1      32.567   8.054  47.869  1.00  0.00    -0.302 NA
HETATM   14  C3  UNL     1      33.464   4.951  46.331  1.00  0.00     0.092 A 
HETATM   15  C24 UNL     1      32.355   4.175  46.875  1.00  0.00     0.066 A 
HETATM   16  C23 UNL     1      31.453   4.733  47.665  1.00  0.00     0.039 A 
HETATM   17 CL1  UNL     1      32.298   2.487  46.416  1.00  0.00    -0.082 Cl
HETATM   18  H7  UNL     1      33.278   8.759  47.581  1.00  0.00     0.186 HD
BRANCH  14  19
HETATM   19  O1  UNL     1      34.474   4.499  45.498  1.00  0.00    -0.350 OA
BRANCH  19  20
HETATM   20  C2  UNL     1      34.603   5.012  44.178  1.00  0.00     0.171 C 
HETATM   21  C1  UNL     1      33.343   4.733  43.379  1.00  0.00     0.034 C 
ENDBRANCH  19  20
ENDBRANCH  14  19
ENDBRANCH   9  10
ENDBRANCH   8   9
ENDBRANCH   1   7
BRANCH   4  22
HETATM   22  O3  UNL     1      23.378   3.116  50.298  1.00  0.00    -0.351 OA
BRANCH  22  23
HETATM   23  C13 UNL     1      23.409   1.869  50.876  1.00  0.00     0.180 C 
BRANCH  23  24
HETATM   24  C14 UNL     1      23.119   1.785  52.340  1.00  0.00     0.065 C 
BRANCH  24  25
HETATM   25  C15 UNL     1      24.300   1.215  53.070  1.00  0.00    -0.056 A 
HETATM   26  C16 UNL     1      25.326   2.092  53.401  1.00  0.00     0.007 A 
HETATM   27  C17 UNL     1      26.418   1.624  54.063  1.00  0.00     0.001 A 
HETATM   28  C18 UNL     1      26.545   0.302  54.420  1.00  0.00     0.000 A 
HETATM   29  C19 UNL     1      25.504  -0.520  54.069  1.00  0.00     0.001 A 
HETATM   30  C20 UNL     1      24.358  -0.131  53.397  1.00  0.00     0.007 A 
ENDBRANCH  24  25
ENDBRANCH  23  24
ENDBRANCH  22  23
ENDBRANCH   4  22
TORSDOF 9
ENDMDL
MODEL 4
REMARK VINA RESULT:      -7.9      3.239      8.896
REMARK  9 active torsions:
REMARK  status: ('A' for Active; 'I' for Inactive)
REMARK    1  A    between atoms: C2_2  and  O1_3 
REMARK    2  A    between atoms: O1_3  and  C3_4 
REMARK    3  A    between atoms: C6_8  and  O2_9 
REMARK    4  A    between atoms: O2_9  and  C7_10 
REMARK    5  A    between atoms: C8_11  and  C9_12 
REMARK    6  A    between atoms: C12_15  and  O3_16 
REMARK    7  A    between atoms: O3_16  and  C13_17 
REMARK    8  A    between atoms: C13_17  and  C14_18 
REMARK    9  A    between atoms: C14_18  and  C15_19 
ROOT
HETATM    1  C9  UNL     1      26.247   5.173  48.965  1.00  0.00     0.020 A 
HETATM    2  C10 UNL     1      26.266   6.504  48.607  1.00  0.00     0.023 A 
HETATM    3  C11 UNL     1      27.462   7.081  48.157  1.00  0.00     0.038 A 
HETATM    4  C12 UNL     1      28.646   6.334  48.060  1.00  0.00     0.068 A 
HETATM    5  C21 UNL     1      28.578   5.008  48.428  1.00  0.00     0.038 A 
HETATM    6  C22 UNL     1      27.402   4.444  48.870  1.00  0.00     0.023 A 
ENDROOT
BRANCH   1   7
HETATM    7  C8  UNL     1      25.077   4.488  49.438  1.00  0.00    -0.037 C 
HETATM    8  C7  UNL     1      24.103   3.914  49.854  1.00  0.00     0.060 C 
BRANCH   8   9
HETATM    9  O2  UNL     1      22.992   3.232  50.329  1.00  0.00    -0.288 OA
BRANCH   9  10
HETATM   10  C6  UNL     1      23.136   2.555  51.562  1.00  0.00     0.216 A 
HETATM   11  C5  UNL     1      23.628   3.452  52.641  1.00  0.00     0.062 A 
HETATM   12  C4  UNL     1      24.819   3.306  53.470  1.00  0.00     0.068 A 
HETATM   13  N1  UNL     1      22.762   4.421  52.700  1.00  0.00    -0.302 NA
HETATM   14  C3  UNL     1      25.544   2.229  53.214  1.00  0.00     0.092 A 
HETATM   15  C24 UNL     1      25.179   1.262  52.184  1.00  0.00     0.066 A 
HETATM   16  C23 UNL     1      24.092   1.424  51.449  1.00  0.00     0.039 A 
HETATM   17 CL1  UNL     1      26.259  -0.101  51.990  1.00  0.00    -0.082 Cl
HETATM   18  H7  UNL     1      22.859   5.206  53.378  1.00  0.00     0.186 HD
BRANCH  14  19
HETATM   19  O1  UNL     1      26.645   2.185  54.052  1.00  0.00    -0.350 OA
BRANCH  19  20
HETATM   20  C2  UNL     1      27.951   2.417  53.540  1.00  0.00     0.171 C 
HETATM   21  C1  UNL     1      28.913   1.362  54.055  1.00  0.00     0.034 C 
ENDBRANCH  19  20
ENDBRANCH  14  19
ENDBRANCH   9  10
ENDBRANCH   8   9
ENDBRANCH   1   7
BRANCH   4  22
HETATM   22  O3  UNL     1      29.615   7.182  47.594  1.00  0.00    -0.351 OA
BRANCH  22  23
HETATM   23  C13 UNL     1      30.920   6.958  47.223  1.00  0.00     0.180 C 
BRANCH  23  24
HETATM   24  C14 UNL     1      31.884   6.582  48.302  1.00  0.00     0.065 C 
BRANCH  24  25
HETATM   25  C15 UNL     1      32.609   5.322  47.933  1.00  0.00    -0.056 A 
HETATM   26  C16 UNL     1      33.963   5.255  48.236  1.00  0.00     0.007 A 
HETATM   27  C17 UNL     1      34.665   4.134  47.921  1.00  0.00     0.001 A 
HETATM   28  C18 UNL     1      34.078   3.053  47.308  1.00  0.00     0.000 A 
HETATM   29  C19 UNL     1      32.739   3.170  47.031  1.00  0.00     0.001 A 
HETATM   30  C20 UNL     1      31.949   4.271  47.315  1.00  0.00     0.007 A 
ENDBRANCH  24  25
ENDBRANCH  23  24
ENDBRANCH  22  23
ENDBRANCH   4  22
TORSDOF 9
ENDMDL
MODEL 5
REMARK VINA RESULT:      -7.8      2.135      2.895
REMARK  9 active torsions:
REMARK  status: ('A' for Active; 'I' for Inactive)
REMARK    1  A    between atoms: C2_2  and  O1_3 
REMARK    2  A    between atoms: O1_3  and  C3_4 
REMARK    3  A    between atoms: C6_8  and  O2_9 
REMARK    4  A    between atoms: O2_9  and  C7_10 
REMARK    5  A    between atoms: C8_11  and  C9_12 
REMARK    6  A    between atoms: C12_15  and  O3_16 
REMARK    7  A    between atoms: O3_16  and  C13_17 
REMARK    8  A    between atoms: C13_17  and  C14_18 
REMARK    9  A    between atoms: C14_18  and  C15_19 
ROOT
HETATM    1  C9  UNL     1      26.964   5.737  48.658  1.00  0.00     0.020 A 
HETATM    2  C10 UNL     1      27.435   4.467  48.909  1.00  0.00     0.023 A 
HETATM    3  C11 UNL     1      26.611   3.540  49.563  1.00  0.00     0.038 A 
HETATM    4  C12 UNL     1      25.310   3.876  49.970  1.00  0.00     0.068 A 
HETATM    5  C21 UNL     1      24.883   5.157  49.696  1.00  0.00     0.038 A 
HETATM    6  C22 UNL     1      25.695   6.065  49.054  1.00  0.00     0.023 A 
ENDROOT
BRANCH   1   7
HETATM    7  C8  UNL     1      27.728   6.757  47.997  1.00  0.00    -0.037 C 
HETATM    8  C7  UNL     1      28.376   7.600  47.429  1.00  0.00     0.060 C 
BRANCH   8   9
HETATM    9  O2  UNL     1      29.141   8.566  46.791  1.00  0.00    -0.288 OA
BRANCH   9  10
HETATM   10  C6  UNL     1      30.545   8.475  46.943  1.00  0.00     0.216 A 
HETATM   11  C5  UNL     1      31.182   7.726  45.829  1.00  0.00     0.062 A 
HETATM   12  C4  UNL     1      32.018   6.533  45.898  1.00  0.00     0.068 A 
HETATM   13  N1  UNL     1      30.837   8.363  44.748  1.00  0.00    -0.302 NA
HETATM   14  C3  UNL     1      32.225   6.071  47.120  1.00  0.00     0.092 A 
HETATM   15  C24 UNL     1      31.661   6.706  48.306  1.00  0.00     0.066 A 
HETATM   16  C23 UNL     1      30.906   7.788  48.209  1.00  0.00     0.039 A 
HETATM   17 CL1  UNL     1      32.044   5.953  49.839  1.00  0.00    -0.082 Cl
HETATM   18  H7  UNL     1      31.146   8.054  43.803  1.00  0.00     0.186 HD
BRANCH  14  19
HETATM   19  O1  UNL     1      33.027   4.944  47.074  1.00  0.00    -0.350 OA
BRANCH  19  20
HETATM   20  C2  UNL     1      32.447   3.650  46.954  1.00  0.00     0.171 C 
HETATM   21  C1  UNL     1      33.285   2.627  47.698  1.00  0.00     0.034 C 
ENDBRANCH  19  20
ENDBRANCH  14  19
ENDBRANCH   9  10
ENDBRANCH   8   9
ENDBRANCH   1   7
BRANCH   4  22
HETATM   22  O3  UNL     1      24.781   2.764  50.569  1.00  0.00    -0.351 OA
BRANCH  22  23
HETATM   23  C13 UNL     1      24.931   2.254  51.836  1.00  0.00     0.180 C 
BRANCH  23  24
HETATM   24  C14 UNL     1      25.511   0.881  51.957  1.00  0.00     0.065 C 
BRANCH  24  25
HETATM   25  C15 UNL     1      26.842   0.941  52.646  1.00  0.00    -0.056 A 
HETATM   26  C16 UNL     1      27.472  -0.267  52.917  1.00  0.00     0.007 A 
HETATM   27  C17 UNL     1      28.681  -0.266  53.541  1.00  0.00     0.001 A 
HETATM   28  C18 UNL     1      29.309   0.899  53.914  1.00  0.00     0.000 A 
HETATM   29  C19 UNL     1      28.645   2.063  53.622  1.00  0.00     0.001 A 
HETATM   30  C20 UNL     1      27.415   2.155  52.993  1.00  0.00     0.007 A 
ENDBRANCH  24  25
ENDBRANCH  23  24
ENDBRANCH  22  23
ENDBRANCH   4  22
TORSDOF 9
ENDMDL
MODEL 6
REMARK VINA RESULT:      -7.8      2.602      4.046
REMARK  9 active torsions:
REMARK  status: ('A' for Active; 'I' for Inactive)
REMARK    1  A    between atoms: C2_2  and  O1_3 
REMARK    2  A    between atoms: O1_3  and  C3_4 
REMARK    3  A    between atoms: C6_8  and  O2_9 
REMARK    4  A    between atoms: O2_9  and  C7_10 
REMARK    5  A    between atoms: C8_11  and  C9_12 
REMARK    6  A    between atoms: C12_15  and  O3_16 
REMARK    7  A    between atoms: O3_16  and  C13_17 
REMARK    8  A    between atoms: C13_17  and  C14_18 
REMARK    9  A    between atoms: C14_18  and  C15_19 
ROOT
HETATM    1  C9  UNL     1      27.034   4.858  48.896  1.00  0.00     0.020 A 
HETATM    2  C10 UNL     1      26.727   3.571  49.282  1.00  0.00     0.023 A 
HETATM    3  C11 UNL     1      25.413   3.256  49.657  1.00  0.00     0.038 A 
HETATM    4  C12 UNL     1      24.397   4.225  49.648  1.00  0.00     0.068 A 
HETATM    5  C21 UNL     1      24.752   5.496  49.254  1.00  0.00     0.038 A 
HETATM    6  C22 UNL     1      26.043   5.802  48.887  1.00  0.00     0.023 A 
ENDROOT
BRANCH   1   7
HETATM    7  C8  UNL     1      28.346   5.281  48.495  1.00  0.00    -0.037 C 
HETATM    8  C7  UNL     1      29.451   5.644  48.178  1.00  0.00     0.060 C 
BRANCH   8   9
HETATM    9  O2  UNL     1      30.713   6.083  47.806  1.00  0.00    -0.288 OA
BRANCH   9  10
HETATM   10  C6  UNL     1      30.901   7.482  47.705  1.00  0.00     0.216 A 
HETATM   11  C5  UNL     1      30.634   8.178  48.991  1.00  0.00     0.062 A 
HETATM   12  C4  UNL     1      29.682   9.249  49.263  1.00  0.00     0.068 A 
HETATM   13  N1  UNL     1      31.439   7.626  49.851  1.00  0.00    -0.302 NA
HETATM   14  C3  UNL     1      28.973   9.639  48.216  1.00  0.00     0.092 A 
HETATM   15  C24 UNL     1      29.131   9.044  46.894  1.00  0.00     0.066 A 
HETATM   16  C23 UNL     1      30.003   8.073  46.680  1.00  0.00     0.039 A 
HETATM   17 CL1  UNL     1      28.105   9.690  45.632  1.00  0.00    -0.082 Cl
HETATM   18  H7  UNL     1      31.467   7.923  50.849  1.00  0.00     0.186 HD
BRANCH  14  19
HETATM   19  O1  UNL     1      28.106  10.655  48.580  1.00  0.00    -0.350 OA
BRANCH  19  20
HETATM   20  C2  UNL     1      26.762  10.362  48.943  1.00  0.00     0.171 C 
HETATM   21  C1  UNL     1      25.801  11.212  48.132  1.00  0.00     0.034 C 
ENDBRANCH  19  20
ENDBRANCH  14  19
ENDBRANCH   9  10
ENDBRANCH   8   9
ENDBRANCH   1   7
BRANCH   4  22
HETATM   22  O3  UNL     1      23.249   3.602  50.060  1.00  0.00    -0.351 OA
BRANCH  22  23
HETATM   23  C13 UNL     1      22.533   3.693  51.230  1.00  0.00     0.180 C 
BRANCH  23  24
HETATM   24  C14 UNL     1      23.310   3.803  52.503  1.00  0.00     0.065 C 
BRANCH  24  25
HETATM   25  C15 UNL     1      23.882   2.467  52.876  1.00  0.00    -0.056 A 
HETATM   26  C16 UNL     1      25.202   2.441  53.311  1.00  0.00     0.007 A 
HETATM   27  C17 UNL     1      25.767   1.254  53.661  1.00  0.00     0.001 A 
HETATM   28  C18 UNL     1      25.074   0.069  53.600  1.00  0.00     0.000 A 
HETATM   29  C19 UNL     1      23.775   0.151  53.166  1.00  0.00     0.001 A 
HETATM   30  C20 UNL     1      23.121   1.312  52.789  1.00  0.00     0.007 A 
ENDBRANCH  24  25
ENDBRANCH  23  24
ENDBRANCH  22  23
ENDBRANCH   4  22
TORSDOF 9
ENDMDL
MODEL 7
REMARK VINA RESULT:      -7.5      7.165     10.759
REMARK  9 active torsions:
REMARK  status: ('A' for Active; 'I' for Inactive)
REMARK    1  A    between atoms: C2_2  and  O1_3 
REMARK    2  A    between atoms: O1_3  and  C3_4 
REMARK    3  A    between atoms: C6_8  and  O2_9 
REMARK    4  A    between atoms: O2_9  and  C7_10 
REMARK    5  A    between atoms: C8_11  and  C9_12 
REMARK    6  A    between atoms: C12_15  and  O3_16 
REMARK    7  A    between atoms: O3_16  and  C13_17 
REMARK    8  A    between atoms: C13_17  and  C14_18 
REMARK    9  A    between atoms: C14_18  and  C15_19 
ROOT
HETATM    1  C9  UNL     1      19.507   0.311  51.741  1.00  0.00     0.020 A 
HETATM    2  C10 UNL     1      18.630   0.584  50.714  1.00  0.00     0.023 A 
HETATM    3  C11 UNL     1      17.318   0.090  50.775  1.00  0.00     0.038 A 
HETATM    4  C12 UNL     1      16.875  -0.679  51.863  1.00  0.00     0.068 A 
HETATM    5  C21 UNL     1      17.787  -0.924  52.865  1.00  0.00     0.038 A 
HETATM    6  C22 UNL     1      19.074  -0.439  52.802  1.00  0.00     0.023 A 
ENDROOT
BRANCH   1   7
HETATM    7  C8  UNL     1      20.867   0.768  51.774  1.00  0.00    -0.037 C 
HETATM    8  C7  UNL     1      22.012   1.147  51.782  1.00  0.00     0.060 C 
BRANCH   8   9
HETATM    9  O2  UNL     1      23.336   1.560  51.798  1.00  0.00    -0.288 OA
BRANCH   9  10
HETATM   10  C6  UNL     1      24.104   1.204  52.931  1.00  0.00     0.216 A 
HETATM   11  C5  UNL     1      25.164   2.204  53.227  1.00  0.00     0.062 A 
HETATM   12  C4  UNL     1      26.604   1.998  53.327  1.00  0.00     0.068 A 
HETATM   13  N1  UNL     1      24.534   3.332  53.384  1.00  0.00    -0.302 NA
HETATM   14  C3  UNL     1      27.001   0.753  53.123  1.00  0.00     0.092 A 
HETATM   15  C24 UNL     1      26.071  -0.330  52.825  1.00  0.00     0.066 A 
HETATM   16  C23 UNL     1      24.769  -0.110  52.741  1.00  0.00     0.039 A 
HETATM   17 CL1  UNL     1      26.781  -1.912  52.586  1.00  0.00    -0.082 Cl
HETATM   18  H7  UNL     1      25.036   4.218  53.603  1.00  0.00     0.186 HD
BRANCH  14  19
HETATM   19  O1  UNL     1      28.378   0.666  53.241  1.00  0.00    -0.350 OA
BRANCH  19  20
HETATM   20  C2  UNL     1      28.966  -0.058  54.314  1.00  0.00     0.171 C 
HETATM   21  C1  UNL     1      30.101  -0.926  53.803  1.00  0.00     0.034 C 
ENDBRANCH  19  20
ENDBRANCH  14  19
ENDBRANCH   9  10
ENDBRANCH   8   9
ENDBRANCH   1   7
BRANCH   4  22
HETATM   22  O3  UNL     1      15.566  -0.998  51.617  1.00  0.00    -0.351 OA
BRANCH  22  23
HETATM   23  C13 UNL     1      14.397  -0.540  52.176  1.00  0.00     0.180 C 
BRANCH  23  24
HETATM   24  C14 UNL     1      14.313   0.919  52.492  1.00  0.00     0.065 C 
BRANCH  24  25
HETATM   25  C15 UNL     1      13.279   1.161  53.551  1.00  0.00    -0.056 A 
HETATM   26  C16 UNL     1      12.827   2.465  53.712  1.00  0.00     0.007 A 
HETATM   27  C17 UNL     1      11.890   2.736  54.660  1.00  0.00     0.001 A 
HETATM   28  C18 UNL     1      11.368   1.757  55.471  1.00  0.00     0.000 A 
HETATM   29  C19 UNL     1      11.848   0.487  55.271  1.00  0.00     0.001 A 
HETATM   30  C20 UNL     1      12.799   0.122  54.333  1.00  0.00     0.007 A 
ENDBRANCH  24  25
ENDBRANCH  23  24
ENDBRANCH  22  23
ENDBRANCH   4  22
TORSDOF 9
ENDMDL
MODEL 8
REMARK VINA RESULT:      -7.5      2.377      3.611
REMARK  9 active torsions:
REMARK  status: ('A' for Active; 'I' for Inactive)
REMARK    1  A    between atoms: C2_2  and  O1_3 
REMARK    2  A    between atoms: O1_3  and  C3_4 
REMARK    3  A    between atoms: C6_8  and  O2_9 
REMARK    4  A    between atoms: O2_9  and  C7_10 
REMARK    5  A    between atoms: C8_11  and  C9_12 
REMARK    6  A    between atoms: C12_15  and  O3_16 
REMARK    7  A    between atoms: O3_16  and  C13_17 
REMARK    8  A    between atoms: C13_17  and  C14_18 
REMARK    9  A    between atoms: C14_18  and  C15_19 
ROOT
HETATM    1  C9  UNL     1      26.888   5.903  48.550  1.00  0.00     0.020 A 
HETATM    2  C10 UNL     1      25.540   6.077  48.773  1.00  0.00     0.023 A 
HETATM    3  C11 UNL     1      24.778   5.010  49.273  1.00  0.00     0.038 A 
HETATM    4  C12 UNL     1      25.360   3.763  49.554  1.00  0.00     0.068 A 
HETATM    5  C21 UNL     1      26.711   3.638  49.316  1.00  0.00     0.038 A 
HETATM    6  C22 UNL     1      27.455   4.687  48.824  1.00  0.00     0.023 A 
ENDROOT
BRANCH   1   7
HETATM    7  C8  UNL     1      27.754   6.929  48.041  1.00  0.00    -0.037 C 
HETATM    8  C7  UNL     1      28.489   7.777  47.602  1.00  0.00     0.060 C 
BRANCH   8   9
HETATM    9  O2  UNL     1      29.352   8.747  47.114  1.00  0.00    -0.288 OA
BRANCH   9  10
HETATM   10  C6  UNL     1      30.727   8.588  47.407  1.00  0.00     0.216 A 
HETATM   11  C5  UNL     1      31.447   7.847  46.338  1.00  0.00     0.062 A 
HETATM   12  C4  UNL     1      32.220   6.616  46.450  1.00  0.00     0.068 A 
HETATM   13  N1  UNL     1      31.244   8.533  45.252  1.00  0.00    -0.302 NA
HETATM   14  C3  UNL     1      32.278   6.107  47.670  1.00  0.00     0.092 A 
HETATM   15  C24 UNL     1      31.620   6.729  48.814  1.00  0.00     0.066 A 
HETATM   16  C23 UNL     1      30.925   7.846  48.678  1.00  0.00     0.039 A 
HETATM   17 CL1  UNL     1      31.807   5.910  50.349  1.00  0.00    -0.082 Cl
HETATM   18  H7  UNL     1      31.638   8.241  44.333  1.00  0.00     0.186 HD
BRANCH  14  19
HETATM   19  O1  UNL     1      33.033   4.946  47.666  1.00  0.00    -0.350 OA
BRANCH  19  20
HETATM   20  C2  UNL     1      32.404   3.677  47.542  1.00  0.00     0.171 C 
HETATM   21  C1  UNL     1      33.299   2.719  46.776  1.00  0.00     0.034 C 
ENDBRANCH  19  20
ENDBRANCH  14  19
ENDBRANCH   9  10
ENDBRANCH   8   9
ENDBRANCH   1   7
BRANCH   4  22
HETATM   22  O3  UNL     1      24.359   2.954  50.021  1.00  0.00    -0.351 OA
BRANCH  22  23
HETATM   23  C13 UNL     1      23.983   2.615  51.299  1.00  0.00     0.180 C 
BRANCH  23  24
HETATM   24  C14 UNL     1      24.702   1.475  51.945  1.00  0.00     0.065 C 
BRANCH  24  25
HETATM   25  C15 UNL     1      23.734   0.619  52.708  1.00  0.00    -0.056 A 
HETATM   26  C16 UNL     1      22.398   0.678  52.330  1.00  0.00     0.007 A 
HETATM   27  C17 UNL     1      21.481  -0.078  52.990  1.00  0.00     0.001 A 
HETATM   28  C18 UNL     1      21.832  -0.909  54.028  1.00  0.00     0.000 A 
HETATM   29  C19 UNL     1      23.163  -0.932  54.360  1.00  0.00     0.001 A 
HETATM   30  C20 UNL     1      24.162  -0.196  53.744  1.00  0.00     0.007 A 
ENDBRANCH  24  25
ENDBRANCH  23  24
ENDBRANCH  22  23
ENDBRANCH   4  22
TORSDOF 9
ENDMDL
MODEL 9
REMARK VINA RESULT:      -7.4      2.538      3.059
REMARK  9 active torsions:
REMARK  status: ('A' for Active; 'I' for Inactive)
REMARK    1  A    between atoms: C2_2  and  O1_3 
REMARK    2  A    between atoms: O1_3  and  C3_4 
REMARK    3  A    between atoms: C6_8  and  O2_9 
REMARK    4  A    between atoms: O2_9  and  C7_10 
REMARK    5  A    between atoms: C8_11  and  C9_12 
REMARK    6  A    between atoms: C12_15  and  O3_16 
REMARK    7  A    between atoms: O3_16  and  C13_17 
REMARK    8  A    between atoms: C13_17  and  C14_18 
REMARK    9  A    between atoms: C14_18  and  C15_19 
ROOT
HETATM    1  C9  UNL     1      25.701   3.939  49.931  1.00  0.00     0.020 A 
HETATM    2  C10 UNL     1      26.500   3.118  50.696  1.00  0.00     0.023 A 
HETATM    3  C11 UNL     1      25.918   2.069  51.423  1.00  0.00     0.038 A 
HETATM    4  C12 UNL     1      24.534   1.834  51.390  1.00  0.00     0.068 A 
HETATM    5  C21 UNL     1      23.777   2.680  50.610  1.00  0.00     0.038 A 
HETATM    6  C22 UNL     1      24.352   3.709  49.898  1.00  0.00     0.023 A 
ENDROOT
BRANCH   1   7
HETATM    7  C8  UNL     1      26.197   5.038  49.151  1.00  0.00    -0.037 C 
HETATM    8  C7  UNL     1      26.632   5.959  48.506  1.00  0.00     0.060 C 
BRANCH   8   9
HETATM    9  O2  UNL     1      27.125   7.034  47.781  1.00  0.00    -0.288 OA
BRANCH   9  10
HETATM   10  C6  UNL     1      27.626   8.130  48.522  1.00  0.00     0.216 A 
HETATM   11  C5  UNL     1      27.205   9.435  47.947  1.00  0.00     0.062 A 
HETATM   12  C4  UNL     1      28.042  10.539  47.492  1.00  0.00     0.068 A 
HETATM   13  N1  UNL     1      25.905   9.396  47.929  1.00  0.00    -0.302 NA
HETATM   14  C3  UNL     1      29.343  10.334  47.615  1.00  0.00     0.092 A 
HETATM   15  C24 UNL     1      29.897   9.101  48.163  1.00  0.00     0.066 A 
HETATM   16  C23 UNL     1      29.110   8.118  48.566  1.00  0.00     0.039 A 
HETATM   17 CL1  UNL     1      31.643   9.012  48.247  1.00  0.00    -0.082 Cl
HETATM   18  H7  UNL     1      25.334  10.190  47.570  1.00  0.00     0.186 HD
BRANCH  14  19
HETATM   19  O1  UNL     1      30.044  11.437  47.158  1.00  0.00    -0.350 OA
BRANCH  19  20
HETATM   20  C2  UNL     1      29.964  12.679  47.846  1.00  0.00     0.171 C 
HETATM   21  C1  UNL     1      30.639  12.574  49.201  1.00  0.00     0.034 C 
ENDBRANCH  19  20
ENDBRANCH  14  19
ENDBRANCH   9  10
ENDBRANCH   8   9
ENDBRANCH   1   7
BRANCH   4  22
HETATM   22  O3  UNL     1      24.295   0.753  52.195  1.00  0.00    -0.351 OA
BRANCH  22  23
HETATM   23  C13 UNL     1      24.996   0.237  53.259  1.00  0.00     0.180 C 
BRANCH  23  24
HETATM   24  C14 UNL     1      25.660  -1.089  53.064  1.00  0.00     0.065 C 
BRANCH  24  25
HETATM   25  C15 UNL     1      27.132  -0.974  53.328  1.00  0.00    -0.056 A 
HETATM   26  C16 UNL     1      27.934  -2.034  52.923  1.00  0.00     0.007 A 
HETATM   27  C17 UNL     1      29.276  -1.978  53.140  1.00  0.00     0.001 A 
HETATM   28  C18 UNL     1      29.873  -0.901  53.750  1.00  0.00     0.000 A 
HETATM   29  C19 UNL     1      29.036   0.118  54.129  1.00  0.00     0.001 A 
HETATM   30  C20 UNL     1      27.663   0.145  53.949  1.00  0.00     0.007 A 
ENDBRANCH  24  25
ENDBRANCH  23  24
ENDBRANCH  22  23
ENDBRANCH   4  22
TORSDOF 9
ENDMDL
