MODEL 1
REMARK VINA RESULT:      -7.7      0.000      0.000
REMARK  9 active torsions:
REMARK  status: ('A' for Active; 'I' for Inactive)
REMARK    1  A    between atoms: O1_2  and  C2_3 
REMARK    2  A    between atoms: C4_5  and  N1_6 
REMARK    3  A    between atoms: N1_6  and  C6_8 
REMARK    4  A    between atoms: C6_8  and  C7_9 
REMARK    5  A    between atoms: C7_9  and  C9_11 
REMARK    6  A    between atoms: C9_11  and  N2_12 
REMARK    7  A    between atoms: C10_13  and  N3_14 
REMARK       I    between atoms: N3_14  and  C11_15 
REMARK    8  A    between atoms: C14_19  and  C15_20 
REMARK    9  A    between atoms: C20_26  and  C21_27 
ROOT
HETATM    1  C2  UNL     1      22.727   0.255  53.618  1.00  0.00     0.084 A 
HETATM    2  C3  UNL     1      23.984  -0.253  53.875  1.00  0.00     0.069 A 
HETATM    3  C4  UNL     1      25.058   0.052  53.067  1.00  0.00     0.059 A 
HETATM    4  C10 UNL     1      24.801   0.892  51.988  1.00  0.00     0.062 A 
HETATM    5  C13 UNL     1      23.553   1.411  51.713  1.00  0.00     0.050 A 
HETATM    6  C14 UNL     1      22.502   1.086  52.543  1.00  0.00     0.049 A 
ENDROOT
BRANCH   6   7
HETATM    7  C15 UNL     1      21.182   1.634  52.251  1.00  0.00     0.182 A 
HETATM    8  N4  UNL     1      21.039   2.969  52.157  1.00  0.00    -0.237 NA
HETATM    9  C16 UNL     1      19.856   3.559  51.890  1.00  0.00     0.150 A 
HETATM   10  C17 UNL     1      18.753   2.720  51.708  1.00  0.00     0.076 A 
HETATM   11  C18 UNL     1      17.445   3.059  51.428  1.00  0.00     0.035 A 
HETATM   12  N5  UNL     1      18.901   1.386  51.802  1.00  0.00    -0.234 N 
HETATM   13  C19 UNL     1      16.778   1.860  51.352  1.00  0.00     0.030 A 
HETATM   14  C20 UNL     1      17.678   0.819  51.584  1.00  0.00     0.041 A 
HETATM   15  N6  UNL     1      20.100   0.855  52.070  1.00  0.00    -0.146 NA
BRANCH  14  16
HETATM   16  C21 UNL     1      17.425  -0.623  51.605  1.00  0.00     0.038 A 
HETATM   17  C22 UNL     1      17.354  -1.331  52.950  1.00  0.00     0.011 A 
HETATM   18  C23 UNL     1      16.093  -1.026  52.200  1.00  0.00     0.011 A 
ENDBRANCH  14  16
ENDBRANCH   6   7
BRANCH   1  19
HETATM   19  O1  UNL     1      21.644  -0.048  54.429  1.00  0.00    -0.355 OA
HETATM   20  C1  UNL     1      21.300  -1.406  54.611  1.00  0.00     0.210 C 
ENDBRANCH   1  19
BRANCH   4  21
HETATM   21  N3  UNL     1      25.825   1.278  51.083  1.00  0.00    -0.326 N 
HETATM   22  C11 UNL     1      25.813   2.720  51.027  1.00  0.00     0.218 C 
HETATM   23  C12 UNL     1      26.708   3.611  50.211  1.00  0.00     0.117 C 
HETATM   24  O2  UNL     1      24.996   3.390  51.703  1.00  0.00    -0.274 OA
HETATM   25  H18 UNL     1      26.571   0.908  50.454  1.00  0.00     0.169 HD
ENDBRANCH   4  21
BRANCH   3  26
HETATM   26  N1  UNL     1      26.398  -0.428  53.254  1.00  0.00    -0.383 N 
HETATM   27  C5  UNL     1      26.749  -1.628  52.539  1.00  0.00     0.150 C 
BRANCH  26  28
HETATM   28  C6  UNL     1      27.220   0.365  54.137  1.00  0.00     0.128 C 
BRANCH  28  29
HETATM   29  C7  UNL     1      28.425   0.937  53.455  1.00  0.00     0.027 C 
HETATM   30  C8  UNL     1      28.466   2.426  53.518  1.00  0.00     0.013 C 
BRANCH  29  31
HETATM   31  C9  UNL     1      29.683   0.363  54.079  1.00  0.00     0.272 C 
BRANCH  31  32
HETATM   32  N2  UNL     1      29.991  -0.940  53.522  1.00  0.00     0.078 N 
HETATM   33  H16 UNL     1      29.386  -1.704  53.884  1.00  0.00     0.312 HD
HETATM   34  H17 UNL     1      31.006  -1.140  53.617  1.00  0.00     0.312 HD
ENDBRANCH  31  32
ENDBRANCH  29  31
ENDBRANCH  28  29
ENDBRANCH  26  28
ENDBRANCH   3  26
TORSDOF 9
ENDMDL
MODEL 2
REMARK VINA RESULT:      -7.7      2.508      4.757
REMARK  9 active torsions:
REMARK  status: ('A' for Active; 'I' for Inactive)
REMARK    1  A    between atoms: O1_2  and  C2_3 
REMARK    2  A    between atoms: C4_5  and  N1_6 
REMARK    3  A    between atoms: N1_6  and  C6_8 
REMARK    4  A    between atoms: C6_8  and  C7_9 
REMARK    5  A    between atoms: C7_9  and  C9_11 
REMARK    6  A    between atoms: C9_11  and  N2_12 
REMARK    7  A    between atoms: C10_13  and  N3_14 
REMARK       I    between atoms: N3_14  and  C11_15 
REMARK    8  A    between atoms: C14_19  and  C15_20 
REMARK    9  A    between atoms: C20_26  and  C21_27 
ROOT
HETATM    1  C2  UNL     1      22.303   1.716  50.325  1.00  0.00     0.084 A 
HETATM    2  C3  UNL     1      23.264   2.548  49.788  1.00  0.00     0.069 A 
HETATM    3  C4  UNL     1      24.290   3.048  50.560  1.00  0.00     0.059 A 
HETATM    4  C10 UNL     1      24.299   2.667  51.898  1.00  0.00     0.062 A 
HETATM    5  C13 UNL     1      23.349   1.837  52.456  1.00  0.00     0.050 A 
HETATM    6  C14 UNL     1      22.337   1.355  51.654  1.00  0.00     0.049 A 
ENDROOT
BRANCH   6   7
HETATM    7  C15 UNL     1      21.333   0.478  52.245  1.00  0.00     0.182 A 
HETATM    8  N4  UNL     1      21.708  -0.387  53.205  1.00  0.00    -0.237 NA
HETATM    9  C16 UNL     1      20.845  -1.233  53.804  1.00  0.00     0.150 A 
HETATM   10  C17 UNL     1      19.512  -1.183  53.385  1.00  0.00     0.076 A 
HETATM   11  C18 UNL     1      18.439  -1.929  53.827  1.00  0.00     0.035 A 
HETATM   12  N5  UNL     1      19.141  -0.317  52.425  1.00  0.00    -0.234 N 
HETATM   13  C19 UNL     1      17.370  -1.483  53.088  1.00  0.00     0.030 A 
HETATM   14  C20 UNL     1      17.802  -0.483  52.216  1.00  0.00     0.041 A 
HETATM   15  N6  UNL     1      20.041   0.499  51.865  1.00  0.00    -0.146 NA
BRANCH  14  16
HETATM   16  C21 UNL     1      17.021   0.282  51.240  1.00  0.00     0.038 A 
HETATM   17  C22 UNL     1      16.982  -0.204  49.798  1.00  0.00     0.011 A 
HETATM   18  C23 UNL     1      15.805  -0.436  50.697  1.00  0.00     0.011 A 
ENDBRANCH  14  16
ENDBRANCH   6   7
BRANCH   1  19
HETATM   19  O1  UNL     1      21.269   1.211  49.553  1.00  0.00    -0.355 OA
HETATM   20  C1  UNL     1      20.863   1.940  48.413  1.00  0.00     0.210 C 
ENDBRANCH   1  19
BRANCH   4  21
HETATM   21  N3  UNL     1      25.304   3.117  52.795  1.00  0.00    -0.326 N 
HETATM   22  C11 UNL     1      26.300   2.074  52.866  1.00  0.00     0.218 C 
HETATM   23  C12 UNL     1      27.564   2.070  53.680  1.00  0.00     0.117 C 
HETATM   24  O2  UNL     1      26.178   1.013  52.207  1.00  0.00    -0.274 OA
HETATM   25  H18 UNL     1      25.584   3.911  53.411  1.00  0.00     0.169 HD
ENDBRANCH   4  21
BRANCH   3  26
HETATM   26  N1  UNL     1      25.332   3.918  50.091  1.00  0.00    -0.383 N 
HETATM   27  C5  UNL     1      26.497   3.274  49.542  1.00  0.00     0.150 C 
BRANCH  26  28
HETATM   28  C6  UNL     1      25.066   5.330  50.231  1.00  0.00     0.128 C 
BRANCH  28  29
HETATM   29  C7  UNL     1      25.345   6.103  48.977  1.00  0.00     0.027 C 
HETATM   30  C8  UNL     1      24.117   6.339  48.165  1.00  0.00     0.013 C 
BRANCH  29  31
HETATM   31  C9  UNL     1      25.990   7.429  49.330  1.00  0.00     0.272 C 
BRANCH  31  32
HETATM   32  N2  UNL     1      26.213   7.535  50.759  1.00  0.00     0.078 N 
HETATM   33  H16 UNL     1      26.005   6.661  51.281  1.00  0.00     0.312 HD
HETATM   34  H17 UNL     1      25.719   8.367  51.139  1.00  0.00     0.312 HD
ENDBRANCH  31  32
ENDBRANCH  29  31
ENDBRANCH  28  29
ENDBRANCH  26  28
ENDBRANCH   3  26
TORSDOF 9
ENDMDL
MODEL 3
REMARK VINA RESULT:      -7.6      1.679      2.247
REMARK  9 active torsions:
REMARK  status: ('A' for Active; 'I' for Inactive)
REMARK    1  A    between atoms: O1_2  and  C2_3 
REMARK    2  A    between atoms: C4_5  and  N1_6 
REMARK    3  A    between atoms: N1_6  and  C6_8 
REMARK    4  A    between atoms: C6_8  and  C7_9 
REMARK    5  A    between atoms: C7_9  and  C9_11 
REMARK    6  A    between atoms: C9_11  and  N2_12 
REMARK    7  A    between atoms: C10_13  and  N3_14 
REMARK       I    between atoms: N3_14  and  C11_15 
REMARK    8  A    between atoms: C14_19  and  C15_20 
REMARK    9  A    between atoms: C20_26  and  C21_27 
ROOT
HETATM    1  C2  UNL     1      22.250   0.100  52.890  1.00  0.00     0.084 A 
HETATM    2  C3  UNL     1      23.563   0.243  53.288  1.00  0.00     0.069 A 
HETATM    3  C4  UNL     1      24.451   1.006  52.561  1.00  0.00     0.059 A 
HETATM    4  C10 UNL     1      23.949   1.617  51.416  1.00  0.00     0.062 A 
HETATM    5  C13 UNL     1      22.640   1.487  51.001  1.00  0.00     0.050 A 
HETATM    6  C14 UNL     1      21.779   0.716  51.752  1.00  0.00     0.049 A 
ENDROOT
BRANCH   6   7
HETATM    7  C15 UNL     1      20.396   0.579  51.311  1.00  0.00     0.182 A 
HETATM    8  N4  UNL     1      20.020   1.160  50.157  1.00  0.00    -0.237 NA
HETATM    9  C16 UNL     1      18.762   1.083  49.677  1.00  0.00     0.150 A 
HETATM   10  C17 UNL     1      17.835   0.361  50.435  1.00  0.00     0.076 A 
HETATM   11  C18 UNL     1      16.499   0.130  50.176  1.00  0.00     0.035 A 
HETATM   12  N5  UNL     1      18.215  -0.218  51.588  1.00  0.00    -0.234 N 
HETATM   13  C19 UNL     1      16.061  -0.629  51.234  1.00  0.00     0.030 A 
HETATM   14  C20 UNL     1      17.122  -0.847  52.113  1.00  0.00     0.041 A 
HETATM   15  N6  UNL     1      19.478  -0.108  52.017  1.00  0.00    -0.146 NA
BRANCH  14  16
HETATM   16  C21 UNL     1      17.130  -1.594  53.373  1.00  0.00     0.038 A 
HETATM   17  C22 UNL     1      16.965  -3.106  53.323  1.00  0.00     0.011 A 
HETATM   18  C23 UNL     1      18.320  -2.511  53.560  1.00  0.00     0.011 A 
ENDBRANCH  14  16
ENDBRANCH   6   7
BRANCH   1  19
HETATM   19  O1  UNL     1      21.353  -0.667  53.618  1.00  0.00    -0.355 OA
HETATM   20  C1  UNL     1      21.865  -1.626  54.520  1.00  0.00     0.210 C 
ENDBRANCH   1  19
BRANCH   4  21
HETATM   21  N3  UNL     1      24.766   2.427  50.584  1.00  0.00    -0.326 N 
HETATM   22  C11 UNL     1      24.474   3.800  50.920  1.00  0.00     0.218 C 
HETATM   23  C12 UNL     1      25.080   5.039  50.318  1.00  0.00     0.117 C 
HETATM   24  O2  UNL     1      23.631   4.088  51.803  1.00  0.00    -0.274 OA
HETATM   25  H18 UNL     1      25.488   2.396  49.831  1.00  0.00     0.169 HD
ENDBRANCH   4  21
BRANCH   3  26
HETATM   26  N1  UNL     1      25.832   1.213  52.895  1.00  0.00    -0.383 N 
HETATM   27  C5  UNL     1      26.107   2.266  53.837  1.00  0.00     0.150 C 
BRANCH  26  28
HETATM   28  C6  UNL     1      26.765   0.328  52.238  1.00  0.00     0.128 C 
BRANCH  28  29
HETATM   29  C7  UNL     1      27.096  -0.882  53.058  1.00  0.00     0.027 C 
HETATM   30  C8  UNL     1      26.898  -2.155  52.306  1.00  0.00     0.013 C 
BRANCH  29  31
HETATM   31  C9  UNL     1      28.530  -0.792  53.543  1.00  0.00     0.272 C 
BRANCH  31  32
HETATM   32  N2  UNL     1      28.594  -0.207  54.868  1.00  0.00     0.078 N 
HETATM   33  H16 UNL     1      29.231   0.611  54.934  1.00  0.00     0.312 HD
HETATM   34  H17 UNL     1      28.795  -0.941  55.575  1.00  0.00     0.312 HD
ENDBRANCH  31  32
ENDBRANCH  29  31
ENDBRANCH  28  29
ENDBRANCH  26  28
ENDBRANCH   3  26
TORSDOF 9
ENDMDL
MODEL 4
REMARK VINA RESULT:      -7.5      3.029      7.310
REMARK  9 active torsions:
REMARK  status: ('A' for Active; 'I' for Inactive)
REMARK    1  A    between atoms: O1_2  and  C2_3 
REMARK    2  A    between atoms: C4_5  and  N1_6 
REMARK    3  A    between atoms: N1_6  and  C6_8 
REMARK    4  A    between atoms: C6_8  and  C7_9 
REMARK    5  A    between atoms: C7_9  and  C9_11 
REMARK    6  A    between atoms: C9_11  and  N2_12 
REMARK    7  A    between atoms: C10_13  and  N3_14 
REMARK       I    between atoms: N3_14  and  C11_15 
REMARK    8  A    between atoms: C14_19  and  C15_20 
REMARK    9  A    between atoms: C20_26  and  C21_27 
ROOT
HETATM    1  C2  UNL     1      24.519   3.118  51.987  1.00  0.00     0.084 A 
HETATM    2  C3  UNL     1      24.108   2.099  52.821  1.00  0.00     0.069 A 
HETATM    3  C4  UNL     1      24.806   0.913  52.900  1.00  0.00     0.059 A 
HETATM    4  C10 UNL     1      25.938   0.807  52.097  1.00  0.00     0.062 A 
HETATM    5  C13 UNL     1      26.366   1.813  51.257  1.00  0.00     0.050 A 
HETATM    6  C14 UNL     1      25.645   2.986  51.203  1.00  0.00     0.049 A 
ENDROOT
BRANCH   6   7
HETATM    7  C15 UNL     1      26.099   4.048  50.313  1.00  0.00     0.182 A 
HETATM    8  N4  UNL     1      27.152   3.817  49.509  1.00  0.00    -0.237 NA
HETATM    9  C16 UNL     1      27.637   4.743  48.657  1.00  0.00     0.150 A 
HETATM   10  C17 UNL     1      26.994   5.985  48.633  1.00  0.00     0.076 A 
HETATM   11  C18 UNL     1      27.283   7.094  47.865  1.00  0.00     0.035 A 
HETATM   12  N5  UNL     1      25.941   6.211  49.438  1.00  0.00    -0.234 N 
HETATM   13  C19 UNL     1      26.350   8.032  48.234  1.00  0.00     0.030 A 
HETATM   14  C20 UNL     1      25.515   7.489  49.212  1.00  0.00     0.041 A 
HETATM   15  N6  UNL     1      25.503   5.254  50.266  1.00  0.00    -0.146 NA
BRANCH  14  16
HETATM   16  C21 UNL     1      24.384   8.114  49.902  1.00  0.00     0.038 A 
HETATM   17  C22 UNL     1      23.285   8.754  49.066  1.00  0.00     0.011 A 
HETATM   18  C23 UNL     1      23.055   7.417  49.703  1.00  0.00     0.011 A 
ENDBRANCH  14  16
ENDBRANCH   6   7
BRANCH   1  19
HETATM   19  O1  UNL     1      23.821   4.312  51.904  1.00  0.00    -0.355 OA
HETATM   20  C1  UNL     1      22.410   4.264  51.856  1.00  0.00     0.210 C 
ENDBRANCH   1  19
BRANCH   4  21
HETATM   21  N3  UNL     1      26.739  -0.365  52.090  1.00  0.00    -0.326 N 
HETATM   22  C11 UNL     1      27.879  -0.099  52.935  1.00  0.00     0.218 C 
HETATM   23  C12 UNL     1      29.020  -1.026  53.252  1.00  0.00     0.117 C 
HETATM   24  O2  UNL     1      28.017   1.007  53.511  1.00  0.00    -0.274 OA
HETATM   25  H18 UNL     1      26.806  -1.332  51.705  1.00  0.00     0.169 HD
ENDBRANCH   4  21
BRANCH   3  26
HETATM   26  N1  UNL     1      24.456  -0.201  53.736  1.00  0.00    -0.383 N 
HETATM   27  C5  UNL     1      25.198  -0.331  54.963  1.00  0.00     0.150 C 
BRANCH  26  28
HETATM   28  C6  UNL     1      23.396  -1.042  53.231  1.00  0.00     0.128 C 
BRANCH  28  29
HETATM   29  C7  UNL     1      22.033  -0.569  53.636  1.00  0.00     0.027 C 
HETATM   30  C8  UNL     1      21.227  -0.089  52.476  1.00  0.00     0.013 C 
BRANCH  29  31
HETATM   31  C9  UNL     1      21.296  -1.687  54.346  1.00  0.00     0.272 C 
BRANCH  31  32
HETATM   32  N2  UNL     1      19.860  -1.522  54.224  1.00  0.00     0.078 N 
HETATM   33  H16 UNL     1      19.579  -0.809  53.522  1.00  0.00     0.312 HD
HETATM   34  H17 UNL     1      19.437  -1.365  55.160  1.00  0.00     0.312 HD
ENDBRANCH  31  32
ENDBRANCH  29  31
ENDBRANCH  28  29
ENDBRANCH  26  28
ENDBRANCH   3  26
TORSDOF 9
ENDMDL
MODEL 5
REMARK VINA RESULT:      -7.5      3.136      5.243
REMARK  9 active torsions:
REMARK  status: ('A' for Active; 'I' for Inactive)
REMARK    1  A    between atoms: O1_2  and  C2_3 
REMARK    2  A    between atoms: C4_5  and  N1_6 
REMARK    3  A    between atoms: N1_6  and  C6_8 
REMARK    4  A    between atoms: C6_8  and  C7_9 
REMARK    5  A    between atoms: C7_9  and  C9_11 
REMARK    6  A    between atoms: C9_11  and  N2_12 
REMARK    7  A    between atoms: C10_13  and  N3_14 
REMARK       I    between atoms: N3_14  and  C11_15 
REMARK    8  A    between atoms: C14_19  and  C15_20 
REMARK    9  A    between atoms: C20_26  and  C21_27 
ROOT
HETATM    1  C2  UNL     1      25.169   2.720  51.307  1.00  0.00     0.084 A 
HETATM    2  C3  UNL     1      26.010   2.102  52.209  1.00  0.00     0.069 A 
HETATM    3  C4  UNL     1      25.637   0.945  52.858  1.00  0.00     0.059 A 
HETATM    4  C10 UNL     1      24.375   0.444  52.553  1.00  0.00     0.062 A 
HETATM    5  C13 UNL     1      23.519   1.046  51.655  1.00  0.00     0.050 A 
HETATM    6  C14 UNL     1      23.925   2.202  51.023  1.00  0.00     0.049 A 
ENDROOT
BRANCH   6   7
HETATM    7  C15 UNL     1      23.018   2.838  50.075  1.00  0.00     0.182 A 
HETATM    8  N4  UNL     1      22.653   2.161  48.970  1.00  0.00    -0.237 NA
HETATM    9  C16 UNL     1      21.819   2.674  48.043  1.00  0.00     0.150 A 
HETATM   10  C17 UNL     1      21.332   3.965  48.269  1.00  0.00     0.076 A 
HETATM   11  C18 UNL     1      20.476   4.715  47.489  1.00  0.00     0.035 A 
HETATM   12  N5  UNL     1      21.699   4.637  49.374  1.00  0.00    -0.234 N 
HETATM   13  C19 UNL     1      20.327   5.900  48.168  1.00  0.00     0.030 A 
HETATM   14  C20 UNL     1      21.085   5.856  49.339  1.00  0.00     0.041 A 
HETATM   15  N6  UNL     1      22.531   4.079  50.262  1.00  0.00    -0.146 NA
BRANCH  14  16
HETATM   16  C21 UNL     1      21.236   6.884  50.371  1.00  0.00     0.038 A 
HETATM   17  C22 UNL     1      22.448   7.803  50.312  1.00  0.00     0.011 A 
HETATM   18  C23 UNL     1      21.106   8.307  49.875  1.00  0.00     0.011 A 
ENDBRANCH  14  16
ENDBRANCH   6   7
BRANCH   1  19
HETATM   19  O1  UNL     1      25.540   3.884  50.651  1.00  0.00    -0.355 OA
HETATM   20  C1  UNL     1      26.554   3.809  49.670  1.00  0.00     0.210 C 
ENDBRANCH   1  19
BRANCH   4  21
HETATM   21  N3  UNL     1      23.877  -0.740  53.158  1.00  0.00    -0.326 N 
HETATM   22  C11 UNL     1      22.665  -0.378  53.854  1.00  0.00     0.218 C 
HETATM   23  C12 UNL     1      21.763  -1.279  54.651  1.00  0.00     0.117 C 
HETATM   24  O2  UNL     1      22.241   0.803  53.848  1.00  0.00    -0.274 OA
HETATM   25  H18 UNL     1      24.061  -1.760  53.282  1.00  0.00     0.169 HD
ENDBRANCH   4  21
BRANCH   3  26
HETATM   26  N1  UNL     1      26.442   0.232  53.810  1.00  0.00    -0.383 N 
HETATM   27  C5  UNL     1      26.060   0.369  55.192  1.00  0.00     0.150 C 
BRANCH  26  28
HETATM   28  C6  UNL     1      27.529  -0.533  53.248  1.00  0.00     0.128 C 
BRANCH  28  29
HETATM   29  C7  UNL     1      28.843  -0.256  53.915  1.00  0.00     0.027 C 
HETATM   30  C8  UNL     1      29.877  -1.279  53.588  1.00  0.00     0.013 C 
BRANCH  29  31
HETATM   31  C9  UNL     1      29.337   1.120  53.513  1.00  0.00     0.272 C 
BRANCH  31  32
HETATM   32  N2  UNL     1      29.459   1.986  54.669  1.00  0.00     0.078 N 
HETATM   33  H16 UNL     1      30.364   1.891  55.170  1.00  0.00     0.312 HD
HETATM   34  H17 UNL     1      28.633   1.874  55.290  1.00  0.00     0.312 HD
ENDBRANCH  31  32
ENDBRANCH  29  31
ENDBRANCH  28  29
ENDBRANCH  26  28
ENDBRANCH   3  26
TORSDOF 9
ENDMDL
MODEL 6
REMARK VINA RESULT:      -7.5      2.451      9.238
REMARK  9 active torsions:
REMARK  status: ('A' for Active; 'I' for Inactive)
REMARK    1  A    between atoms: O1_2  and  C2_3 
REMARK    2  A    between atoms: C4_5  and  N1_6 
REMARK    3  A    between atoms: N1_6  and  C6_8 
REMARK    4  A    between atoms: C6_8  and  C7_9 
REMARK    5  A    between atoms: C7_9  and  C9_11 
REMARK    6  A    between atoms: C9_11  and  N2_12 
REMARK    7  A    between atoms: C10_13  and  N3_14 
REMARK       I    between atoms: N3_14  and  C11_15 
REMARK    8  A    between atoms: C14_19  and  C15_20 
REMARK    9  A    between atoms: C20_26  and  C21_27 
ROOT
HETATM    1  C2  UNL     1      19.572   2.239  52.268  1.00  0.00     0.084 A 
HETATM    2  C3  UNL     1      18.431   2.692  51.638  1.00  0.00     0.069 A 
HETATM    3  C4  UNL     1      17.503   1.814  51.121  1.00  0.00     0.059 A 
HETATM    4  C10 UNL     1      17.782   0.459  51.271  1.00  0.00     0.062 A 
HETATM    5  C13 UNL     1      18.916  -0.015  51.898  1.00  0.00     0.050 A 
HETATM    6  C14 UNL     1      19.823   0.891  52.404  1.00  0.00     0.049 A 
ENDROOT
BRANCH   6   7
HETATM    7  C15 UNL     1      21.021   0.388  53.065  1.00  0.00     0.182 A 
HETATM    8  N4  UNL     1      20.887  -0.356  54.178  1.00  0.00    -0.237 NA
HETATM    9  C16 UNL     1      21.940  -0.860  54.851  1.00  0.00     0.150 A 
HETATM   10  C17 UNL     1      23.213  -0.579  54.344  1.00  0.00     0.076 A 
HETATM   11  C18 UNL     1      24.443  -0.967  54.833  1.00  0.00     0.035 A 
HETATM   12  N5  UNL     1      23.343   0.165  53.231  1.00  0.00    -0.234 N 
HETATM   13  C19 UNL     1      25.356  -0.423  53.962  1.00  0.00     0.030 A 
HETATM   14  C20 UNL     1      24.678   0.281  52.967  1.00  0.00     0.041 A 
HETATM   15  N6  UNL     1      22.261   0.640  52.604  1.00  0.00    -0.146 NA
BRANCH  14  16
HETATM   16  C21 UNL     1      25.230   1.023  51.830  1.00  0.00     0.038 A 
HETATM   17  C22 UNL     1      25.715   2.447  52.058  1.00  0.00     0.011 A 
HETATM   18  C23 UNL     1      26.708   1.331  51.931  1.00  0.00     0.011 A 
ENDBRANCH  14  16
ENDBRANCH   6   7
BRANCH   1  19
HETATM   19  O1  UNL     1      20.509   3.118  52.790  1.00  0.00    -0.355 OA
HETATM   20  C1  UNL     1      21.109   4.055  51.920  1.00  0.00     0.210 C 
ENDBRANCH   1  19
BRANCH   4  21
HETATM   21  N3  UNL     1      16.903  -0.542  50.780  1.00  0.00    -0.326 N 
HETATM   22  C11 UNL     1      16.176  -1.055  51.917  1.00  0.00     0.218 C 
HETATM   23  C12 UNL     1      15.125  -2.131  51.921  1.00  0.00     0.117 C 
HETATM   24  O2  UNL     1      16.379  -0.612  53.073  1.00  0.00    -0.274 OA
HETATM   25  H18 UNL     1      16.595  -1.035  49.914  1.00  0.00     0.169 HD
ENDBRANCH   4  21
BRANCH   3  26
HETATM   26  N1  UNL     1      16.291   2.191  50.450  1.00  0.00    -0.383 N 
HETATM   27  C5  UNL     1      16.395   2.421  49.033  1.00  0.00     0.150 C 
BRANCH  26  28
HETATM   28  C6  UNL     1      15.122   2.284  51.294  1.00  0.00     0.128 C 
BRANCH  28  29
HETATM   29  C7  UNL     1      14.805   3.691  51.697  1.00  0.00     0.027 C 
HETATM   30  C8  UNL     1      13.886   4.369  50.738  1.00  0.00     0.013 C 
BRANCH  29  31
HETATM   31  C9  UNL     1      14.192   3.697  53.085  1.00  0.00     0.272 C 
BRANCH  31  32
HETATM   32  N2  UNL     1      14.952   4.544  53.984  1.00  0.00     0.078 N 
HETATM   33  H16 UNL     1      14.363   5.174  54.564  1.00  0.00     0.312 HD
HETATM   34  H17 UNL     1      15.697   5.046  53.461  1.00  0.00     0.312 HD
ENDBRANCH  31  32
ENDBRANCH  29  31
ENDBRANCH  28  29
ENDBRANCH  26  28
ENDBRANCH   3  26
TORSDOF 9
ENDMDL
MODEL 7
REMARK VINA RESULT:      -7.4      5.991      8.703
REMARK  9 active torsions:
REMARK  status: ('A' for Active; 'I' for Inactive)
REMARK    1  A    between atoms: O1_2  and  C2_3 
REMARK    2  A    between atoms: C4_5  and  N1_6 
REMARK    3  A    between atoms: N1_6  and  C6_8 
REMARK    4  A    between atoms: C6_8  and  C7_9 
REMARK    5  A    between atoms: C7_9  and  C9_11 
REMARK    6  A    between atoms: C9_11  and  N2_12 
REMARK    7  A    between atoms: C10_13  and  N3_14 
REMARK       I    between atoms: N3_14  and  C11_15 
REMARK    8  A    between atoms: C14_19  and  C15_20 
REMARK    9  A    between atoms: C20_26  and  C21_27 
ROOT
HETATM    1  C2  UNL     1      27.437   6.758  48.674  1.00  0.00     0.084 A 
HETATM    2  C3  UNL     1      28.720   7.055  48.264  1.00  0.00     0.069 A 
HETATM    3  C4  UNL     1      29.318   8.252  48.595  1.00  0.00     0.059 A 
HETATM    4  C10 UNL     1      28.560   9.131  49.361  1.00  0.00     0.062 A 
HETATM    5  C13 UNL     1      27.276   8.854  49.782  1.00  0.00     0.050 A 
HETATM    6  C14 UNL     1      26.708   7.648  49.433  1.00  0.00     0.049 A 
ENDROOT
BRANCH   6   7
HETATM    7  C15 UNL     1      25.351   7.356  49.878  1.00  0.00     0.182 A 
HETATM    8  N4  UNL     1      24.406   8.306  49.751  1.00  0.00    -0.237 NA
HETATM    9  C16 UNL     1      23.128   8.120  50.137  1.00  0.00     0.150 A 
HETATM   10  C17 UNL     1      22.804   6.877  50.688  1.00  0.00     0.076 A 
HETATM   11  C18 UNL     1      21.586   6.430  51.159  1.00  0.00     0.035 A 
HETATM   12  N5  UNL     1      23.751   5.930  50.814  1.00  0.00    -0.234 N 
HETATM   13  C19 UNL     1      21.822   5.147  51.588  1.00  0.00     0.030 A 
HETATM   14  C20 UNL     1      23.165   4.832  51.376  1.00  0.00     0.041 A 
HETATM   15  N6  UNL     1      25.005   6.170  50.414  1.00  0.00    -0.146 NA
BRANCH  14  16
HETATM   16  C21 UNL     1      23.873   3.585  51.677  1.00  0.00     0.038 A 
HETATM   17  C22 UNL     1      24.225   3.279  53.125  1.00  0.00     0.011 A 
HETATM   18  C23 UNL     1      23.073   2.577  52.472  1.00  0.00     0.011 A 
ENDBRANCH  14  16
ENDBRANCH   6   7
BRANCH   1  19
HETATM   19  O1  UNL     1      26.831   5.556  48.343  1.00  0.00    -0.355 OA
HETATM   20  C1  UNL     1      27.381   4.361  48.858  1.00  0.00     0.210 C 
ENDBRANCH   1  19
BRANCH   4  21
HETATM   21  N3  UNL     1      29.065  10.395  49.765  1.00  0.00    -0.326 N 
HETATM   22  C11 UNL     1      28.457  11.384  48.908  1.00  0.00     0.218 C 
HETATM   23  C12 UNL     1      28.667  12.873  48.934  1.00  0.00     0.117 C 
HETATM   24  O2  UNL     1      27.647  11.054  48.008  1.00  0.00    -0.274 OA
HETATM   25  H18 UNL     1      29.704  10.864  50.443  1.00  0.00     0.169 HD
ENDBRANCH   4  21
BRANCH   3  26
HETATM   26  N1  UNL     1      30.645   8.649  48.214  1.00  0.00    -0.383 N 
HETATM   27  C5  UNL     1      30.751   9.435  47.013  1.00  0.00     0.150 C 
BRANCH  26  28
HETATM   28  C6  UNL     1      31.699   8.206  49.096  1.00  0.00     0.128 C 
BRANCH  28  29
HETATM   29  C7  UNL     1      32.643   7.245  48.439  1.00  0.00     0.027 C 
HETATM   30  C8  UNL     1      34.070   7.646  48.599  1.00  0.00     0.013 C 
BRANCH  29  31
HETATM   31  C9  UNL     1      32.434   5.856  49.011  1.00  0.00     0.272 C 
BRANCH  31  32
HETATM   32  N2  UNL     1      31.744   5.916  50.284  1.00  0.00     0.078 N 
HETATM   33  H16 UNL     1      31.547   4.984  50.699  1.00  0.00     0.312 HD
HETATM   34  H17 UNL     1      30.900   6.517  50.207  1.00  0.00     0.312 HD
ENDBRANCH  31  32
ENDBRANCH  29  31
ENDBRANCH  28  29
ENDBRANCH  26  28
ENDBRANCH   3  26
TORSDOF 9
ENDMDL
MODEL 8
REMARK VINA RESULT:      -7.4      3.372      7.707
REMARK  9 active torsions:
REMARK  status: ('A' for Active; 'I' for Inactive)
REMARK    1  A    between atoms: O1_2  and  C2_3 
REMARK    2  A    between atoms: C4_5  and  N1_6 
REMARK    3  A    between atoms: N1_6  and  C6_8 
REMARK    4  A    between atoms: C6_8  and  C7_9 
REMARK    5  A    between atoms: C7_9  and  C9_11 
REMARK    6  A    between atoms: C9_11  and  N2_12 
REMARK    7  A    between atoms: C10_13  and  N3_14 
REMARK       I    between atoms: N3_14  and  C11_15 
REMARK    8  A    between atoms: C14_19  and  C15_20 
REMARK    9  A    between atoms: C20_26  and  C21_27 
ROOT
HETATM    1  C2  UNL     1      23.256   2.606  49.961  1.00  0.00     0.084 A 
HETATM    2  C3  UNL     1      23.140   1.536  50.824  1.00  0.00     0.069 A 
HETATM    3  C4  UNL     1      23.897   1.458  51.973  1.00  0.00     0.059 A 
HETATM    4  C10 UNL     1      24.776   2.512  52.207  1.00  0.00     0.062 A 
HETATM    5  C13 UNL     1      24.907   3.590  51.357  1.00  0.00     0.050 A 
HETATM    6  C14 UNL     1      24.133   3.636  50.217  1.00  0.00     0.049 A 
ENDROOT
BRANCH   6   7
HETATM    7  C15 UNL     1      24.274   4.776  49.320  1.00  0.00     0.182 A 
HETATM    8  N4  UNL     1      23.190   5.220  48.657  1.00  0.00    -0.237 NA
HETATM    9  C16 UNL     1      23.231   6.267  47.809  1.00  0.00     0.150 A 
HETATM   10  C17 UNL     1      24.467   6.896  47.634  1.00  0.00     0.076 A 
HETATM   11  C18 UNL     1      24.783   7.976  46.835  1.00  0.00     0.035 A 
HETATM   12  N5  UNL     1      25.548   6.450  48.298  1.00  0.00    -0.234 N 
HETATM   13  C19 UNL     1      26.126   8.182  47.035  1.00  0.00     0.030 A 
HETATM   14  C20 UNL     1      26.606   7.237  47.942  1.00  0.00     0.041 A 
HETATM   15  N6  UNL     1      25.449   5.405  49.128  1.00  0.00    -0.146 NA
BRANCH  14  16
HETATM   16  C21 UNL     1      27.967   7.067  48.455  1.00  0.00     0.038 A 
HETATM   17  C22 UNL     1      28.744   5.820  48.059  1.00  0.00     0.011 A 
HETATM   18  C23 UNL     1      29.054   7.132  47.404  1.00  0.00     0.011 A 
ENDBRANCH  14  16
ENDBRANCH   6   7
BRANCH   1  19
HETATM   19  O1  UNL     1      22.496   2.688  48.804  1.00  0.00    -0.355 OA
HETATM   20  C1  UNL     1      21.330   1.896  48.707  1.00  0.00     0.210 C 
ENDBRANCH   1  19
BRANCH   4  21
HETATM   21  N3  UNL     1      25.610   2.546  53.355  1.00  0.00    -0.326 N 
HETATM   22  C11 UNL     1      26.960   2.319  52.899  1.00  0.00     0.218 C 
HETATM   23  C12 UNL     1      28.211   2.262  53.733  1.00  0.00     0.117 C 
HETATM   24  O2  UNL     1      27.214   2.137  51.684  1.00  0.00    -0.274 OA
HETATM   25  H18 UNL     1      25.606   2.673  54.390  1.00  0.00     0.169 HD
ENDBRANCH   4  21
BRANCH   3  26
HETATM   26  N1  UNL     1      23.846   0.388  52.928  1.00  0.00    -0.383 N 
HETATM   27  C5  UNL     1      24.930  -0.559  52.879  1.00  0.00     0.150 C 
BRANCH  26  28
HETATM   28  C6  UNL     1      22.709   0.408  53.818  1.00  0.00     0.128 C 
BRANCH  28  29
HETATM   29  C7  UNL     1      21.713  -0.669  53.515  1.00  0.00     0.027 C 
HETATM   30  C8  UNL     1      21.741  -1.773  54.518  1.00  0.00     0.013 C 
BRANCH  29  31
HETATM   31  C9  UNL     1      20.321  -0.071  53.450  1.00  0.00     0.272 C 
BRANCH  31  32
HETATM   32  N2  UNL     1      19.325  -1.024  53.898  1.00  0.00     0.078 N 
HETATM   33  H16 UNL     1      19.232  -1.079  54.932  1.00  0.00     0.312 HD
HETATM   34  H17 UNL     1      19.486  -1.949  53.451  1.00  0.00     0.312 HD
ENDBRANCH  31  32
ENDBRANCH  29  31
ENDBRANCH  28  29
ENDBRANCH  26  28
ENDBRANCH   3  26
TORSDOF 9
ENDMDL
MODEL 9
REMARK VINA RESULT:      -7.4      4.100      7.553
REMARK  9 active torsions:
REMARK  status: ('A' for Active; 'I' for Inactive)
REMARK    1  A    between atoms: O1_2  and  C2_3 
REMARK    2  A    between atoms: C4_5  and  N1_6 
REMARK    3  A    between atoms: N1_6  and  C6_8 
REMARK    4  A    between atoms: C6_8  and  C7_9 
REMARK    5  A    between atoms: C7_9  and  C9_11 
REMARK    6  A    between atoms: C9_11  and  N2_12 
REMARK    7  A    between atoms: C10_13  and  N3_14 
REMARK       I    between atoms: N3_14  and  C11_15 
REMARK    8  A    between atoms: C14_19  and  C15_20 
REMARK    9  A    between atoms: C20_26  and  C21_27 
ROOT
HETATM    1  C2  UNL     1      24.472   4.383  49.975  1.00  0.00     0.084 A 
HETATM    2  C3  UNL     1      24.803   5.548  49.314  1.00  0.00     0.069 A 
HETATM    3  C4  UNL     1      24.143   6.730  49.573  1.00  0.00     0.059 A 
HETATM    4  C10 UNL     1      23.135   6.678  50.530  1.00  0.00     0.062 A 
HETATM    5  C13 UNL     1      22.789   5.525  51.203  1.00  0.00     0.050 A 
HETATM    6  C14 UNL     1      23.470   4.361  50.919  1.00  0.00     0.049 A 
ENDROOT
BRANCH   6   7
HETATM    7  C15 UNL     1      23.102   3.142  51.630  1.00  0.00     0.182 A 
HETATM    8  N4  UNL     1      21.798   2.853  51.795  1.00  0.00    -0.237 NA
HETATM    9  C16 UNL     1      21.371   1.748  52.439  1.00  0.00     0.150 A 
HETATM   10  C17 UNL     1      22.350   0.888  52.945  1.00  0.00     0.076 A 
HETATM   11  C18 UNL     1      22.188  -0.295  53.636  1.00  0.00     0.035 A 
HETATM   12  N5  UNL     1      23.652   1.180  52.778  1.00  0.00    -0.234 N 
HETATM   13  C19 UNL     1      23.465  -0.730  53.895  1.00  0.00     0.030 A 
HETATM   14  C20 UNL     1      24.377   0.183  53.365  1.00  0.00     0.041 A 
HETATM   15  N6  UNL     1      24.019   2.292  52.130  1.00  0.00    -0.146 NA
BRANCH  14  16
HETATM   16  C21 UNL     1      25.841   0.140  53.397  1.00  0.00     0.038 A 
HETATM   17  C22 UNL     1      26.545  -1.096  52.857  1.00  0.00     0.011 A 
HETATM   18  C23 UNL     1      26.507   0.158  52.038  1.00  0.00     0.011 A 
ENDBRANCH  14  16
ENDBRANCH   6   7
BRANCH   1  19
HETATM   19  O1  UNL     1      25.133   3.192  49.717  1.00  0.00    -0.355 OA
HETATM   20  C1  UNL     1      26.545   3.198  49.689  1.00  0.00     0.210 C 
ENDBRANCH   1  19
BRANCH   4  21
HETATM   21  N3  UNL     1      22.383   7.829  50.884  1.00  0.00    -0.326 N 
HETATM   22  C11 UNL     1      21.157   7.778  50.125  1.00  0.00     0.218 C 
HETATM   23  C12 UNL     1      20.026   8.770  50.144  1.00  0.00     0.117 C 
HETATM   24  O2  UNL     1      20.922   6.835  49.331  1.00  0.00    -0.274 OA
HETATM   25  H18 UNL     1      22.391   8.684  51.482  1.00  0.00     0.169 HD
ENDBRANCH   4  21
BRANCH   3  26
HETATM   26  N1  UNL     1      24.416   7.988  48.937  1.00  0.00    -0.383 N 
HETATM   27  C5  UNL     1      23.767   8.214  47.672  1.00  0.00     0.150 C 
BRANCH  26  28
HETATM   28  C6  UNL     1      25.308   8.864  49.660  1.00  0.00     0.128 C 
BRANCH  28  29
HETATM   29  C7  UNL     1      26.392   9.433  48.796  1.00  0.00     0.027 C 
HETATM   30  C8  UNL     1      26.152  10.862  48.444  1.00  0.00     0.013 C 
BRANCH  29  31
HETATM   31  C9  UNL     1      27.728   9.297  49.501  1.00  0.00     0.272 C 
BRANCH  31  32
HETATM   32  N2  UNL     1      27.555   9.254  50.939  1.00  0.00     0.078 N 
HETATM   33  H16 UNL     1      26.834   9.913  51.294  1.00  0.00     0.312 HD
HETATM   34  H17 UNL     1      28.473   9.356  51.415  1.00  0.00     0.312 HD
ENDBRANCH  31  32
ENDBRANCH  29  31
ENDBRANCH  28  29
ENDBRANCH  26  28
ENDBRANCH   3  26
TORSDOF 9
ENDMDL
