MODEL 1
REMARK VINA RESULT:      -9.6      0.000      0.000
REMARK  6 active torsions:
REMARK  status: ('A' for Active; 'I' for Inactive)
REMARK       I    between atoms: N1_2  and  C2_3 
REMARK    1  A    between atoms: N1_2  and  C9_11 
REMARK    2  A    between atoms: C2_3  and  C3_5 
REMARK    3  A    between atoms: C9_11  and  C10_12 
REMARK    4  A    between atoms: N2_13  and  C11_14 
REMARK    5  A    between atoms: C20_25  and  C21_26 
REMARK    6  A    between atoms: C22_27  and  C23_28 
ROOT
HETATM    1  C9  UNL     1      24.426   1.920  51.849  1.00  0.00     0.054 C 
HETATM    2  C20 UNL     1      23.424   1.074  51.893  1.00  0.00     0.031 C 
ENDROOT
BRANCH   1   3
HETATM    3  N1  UNL     1      25.252   1.771  52.992  1.00  0.00    -0.317 N 
HETATM    4  C1  UNL     1      24.826   2.845  53.861  1.00  0.00     0.159 C 
HETATM    5  C2  UNL     1      26.276   0.893  53.374  1.00  0.00     0.258 C 
HETATM    6  O1  UNL     1      26.477   1.475  54.496  1.00  0.00    -0.267 OA
BRANCH   5   7
HETATM    7  C3  UNL     1      27.179  -0.221  53.239  1.00  0.00     0.032 A 
HETATM    8  C4  UNL     1      26.665  -1.405  52.766  1.00  0.00     0.017 A 
HETATM    9  C5  UNL     1      27.486  -2.502  52.620  1.00  0.00     0.001 A 
HETATM   10  C6  UNL     1      28.803  -2.318  52.970  1.00  0.00     0.000 A 
HETATM   11  C7  UNL     1      29.378  -1.169  53.444  1.00  0.00     0.001 A 
HETATM   12  C8  UNL     1      28.502  -0.090  53.575  1.00  0.00     0.017 A 
ENDBRANCH   5   7
ENDBRANCH   1   3
BRANCH   1  13
HETATM   13  C10 UNL     1      24.522   2.804  50.704  1.00  0.00     0.143 C 
HETATM   14  N2  UNL     1      25.576   3.539  50.583  1.00  0.00    -0.268 NA
BRANCH  14  15
HETATM   15  C11 UNL     1      25.779   4.456  49.482  1.00  0.00     0.251 C 
HETATM   16  C12 UNL     1      27.162   4.241  49.007  1.00  0.00     0.024 C 
HETATM   17  C13 UNL     1      28.076   5.051  48.502  1.00  0.00     0.012 C 
HETATM   18  C14 UNL     1      27.914   6.483  48.274  1.00  0.00    -0.022 A 
HETATM   19  C15 UNL     1      28.895   6.970  47.415  1.00  0.00     0.031 A 
HETATM   20  C18 UNL     1      26.947   7.299  48.805  1.00  0.00     0.009 A 
HETATM   21  C16 UNL     1      28.891   8.308  47.092  1.00  0.00     0.117 A 
HETATM   22  N3  UNL     1      27.939   9.096  47.616  1.00  0.00    -0.272 NA
HETATM   23  C17 UNL     1      26.983   8.630  48.450  1.00  0.00     0.130 A 
HETATM   24  C19 UNL     1      25.859   6.962  49.711  1.00  0.00     0.127 C 
HETATM   25  N4  UNL     1      25.457   5.757  49.919  1.00  0.00    -0.269 NA
ENDBRANCH  14  15
ENDBRANCH   1  13
BRANCH   2  26
HETATM   26  C21 UNL     1      22.699   0.017  52.542  1.00  0.00     0.004 C 
HETATM   27  C22 UNL     1      22.552  -0.806  53.553  1.00  0.00     0.019 C 
BRANCH  27  28
HETATM   28  C23 UNL     1      23.436  -0.858  54.697  1.00  0.00     0.107 C 
HETATM   29  N5  UNL     1      23.306  -1.570  55.738  1.00  0.00    -0.312 NA
HETATM   30  H21 UNL     1      23.954  -1.596  56.557  1.00  0.00     0.186 HD
ENDBRANCH  27  28
ENDBRANCH   2  26
TORSDOF 6
ENDMDL
MODEL 2
REMARK VINA RESULT:      -9.0      1.077      1.552
REMARK  6 active torsions:
REMARK  status: ('A' for Active; 'I' for Inactive)
REMARK       I    between atoms: N1_2  and  C2_3 
REMARK    1  A    between atoms: N1_2  and  C9_11 
REMARK    2  A    between atoms: C2_3  and  C3_5 
REMARK    3  A    between atoms: C9_11  and  C10_12 
REMARK    4  A    between atoms: N2_13  and  C11_14 
REMARK    5  A    between atoms: C20_25  and  C21_26 
REMARK    6  A    between atoms: C22_27  and  C23_28 
ROOT
HETATM    1  C9  UNL     1      24.980   2.592  51.183  1.00  0.00     0.054 C 
HETATM    2  C20 UNL     1      23.831   1.990  50.984  1.00  0.00     0.031 C 
ENDROOT
BRANCH   1   3
HETATM    3  N1  UNL     1      25.419   2.393  52.517  1.00  0.00    -0.317 N 
HETATM    4  C1  UNL     1      24.589   3.294  53.285  1.00  0.00     0.159 C 
HETATM    5  C2  UNL     1      26.390   1.595  53.139  1.00  0.00     0.258 C 
HETATM    6  O1  UNL     1      26.142   2.050  54.309  1.00  0.00    -0.267 OA
BRANCH   5   7
HETATM    7  C3  UNL     1      27.443   0.616  53.215  1.00  0.00     0.032 A 
HETATM    8  C4  UNL     1      28.695   1.053  53.581  1.00  0.00     0.017 A 
HETATM    9  C5  UNL     1      29.738   0.156  53.666  1.00  0.00     0.001 A 
HETATM   10  C6  UNL     1      29.434  -1.151  53.370  1.00  0.00     0.000 A 
HETATM   11  C7  UNL     1      28.213  -1.651  53.002  1.00  0.00     0.001 A 
HETATM   12  C8  UNL     1      27.192  -0.701  52.928  1.00  0.00     0.017 A 
ENDBRANCH   5   7
ENDBRANCH   1   3
BRANCH   1  13
HETATM   13  C10 UNL     1      25.577   3.305  50.072  1.00  0.00     0.143 C 
HETATM   14  N2  UNL     1      25.568   4.595  50.095  1.00  0.00    -0.268 NA
BRANCH  14  15
HETATM   15  C11 UNL     1      26.135   5.410  49.042  1.00  0.00     0.251 C 
HETATM   16  C12 UNL     1      27.445   4.815  48.708  1.00  0.00     0.024 C 
HETATM   17  C13 UNL     1      28.597   5.332  48.319  1.00  0.00     0.012 C 
HETATM   18  C14 UNL     1      28.865   6.752  48.107  1.00  0.00    -0.022 A 
HETATM   19  C15 UNL     1      30.028   6.938  47.366  1.00  0.00     0.031 A 
HETATM   20  C18 UNL     1      28.113   7.808  48.553  1.00  0.00     0.009 A 
HETATM   21  C16 UNL     1      30.431   8.222  47.074  1.00  0.00     0.117 A 
HETATM   22  N3  UNL     1      29.686   9.248  47.514  1.00  0.00    -0.272 NA
HETATM   23  C17 UNL     1      28.555   9.074  48.234  1.00  0.00     0.130 A 
HETATM   24  C19 UNL     1      26.884   7.796  49.334  1.00  0.00     0.127 C 
HETATM   25  N4  UNL     1      26.143   6.752  49.472  1.00  0.00    -0.269 NA
ENDBRANCH  14  15
ENDBRANCH   1  13
BRANCH   2  26
HETATM   26  C21 UNL     1      22.733   1.189  51.452  1.00  0.00     0.004 C 
HETATM   27  C22 UNL     1      22.196   0.424  52.372  1.00  0.00     0.019 C 
BRANCH  27  28
HETATM   28  C23 UNL     1      22.842   0.072  53.619  1.00  0.00     0.107 C 
HETATM   29  N5  UNL     1      23.751  -0.793  53.795  1.00  0.00    -0.312 NA
HETATM   30  H21 UNL     1      24.208  -1.036  54.703  1.00  0.00     0.186 HD
ENDBRANCH  27  28
ENDBRANCH   2  26
TORSDOF 6
ENDMDL
MODEL 3
REMARK VINA RESULT:      -8.8      3.410      8.626
REMARK  6 active torsions:
REMARK  status: ('A' for Active; 'I' for Inactive)
REMARK       I    between atoms: N1_2  and  C2_3 
REMARK    1  A    between atoms: N1_2  and  C9_11 
REMARK    2  A    between atoms: C2_3  and  C3_5 
REMARK    3  A    between atoms: C9_11  and  C10_12 
REMARK    4  A    between atoms: N2_13  and  C11_14 
REMARK    5  A    between atoms: C20_25  and  C21_26 
REMARK    6  A    between atoms: C22_27  and  C23_28 
ROOT
HETATM    1  C9  UNL     1      23.570   1.524  52.404  1.00  0.00     0.054 C 
HETATM    2  C20 UNL     1      23.567   1.920  51.153  1.00  0.00     0.031 C 
ENDROOT
BRANCH   1   3
HETATM    3  N1  UNL     1      24.804   1.846  53.023  1.00  0.00    -0.317 N 
HETATM    4  C1  UNL     1      24.609   3.201  53.486  1.00  0.00     0.159 C 
HETATM    5  C2  UNL     1      26.021   1.180  53.228  1.00  0.00     0.258 C 
HETATM    6  O1  UNL     1      26.570   2.176  53.814  1.00  0.00    -0.267 OA
BRANCH   5   7
HETATM    7  C3  UNL     1      26.954   0.084  53.162  1.00  0.00     0.032 A 
HETATM    8  C4  UNL     1      26.488  -1.123  52.694  1.00  0.00     0.017 A 
HETATM    9  C5  UNL     1      27.339  -2.203  52.613  1.00  0.00     0.001 A 
HETATM   10  C6  UNL     1      28.633  -1.982  53.020  1.00  0.00     0.000 A 
HETATM   11  C7  UNL     1      29.159  -0.809  53.494  1.00  0.00     0.001 A 
HETATM   12  C8  UNL     1      28.255   0.252  53.558  1.00  0.00     0.017 A 
ENDBRANCH   5   7
ENDBRANCH   1   3
BRANCH   1  13
HETATM   13  C10 UNL     1      22.380   0.874  52.916  1.00  0.00     0.143 C 
HETATM   14  N2  UNL     1      21.244   1.469  52.768  1.00  0.00    -0.268 NA
BRANCH  14  15
HETATM   15  C11 UNL     1      19.993   0.915  53.238  1.00  0.00     0.251 C 
HETATM   16  C12 UNL     1      20.296  -0.439  53.744  1.00  0.00     0.024 C 
HETATM   17  C13 UNL     1      19.614  -1.571  53.752  1.00  0.00     0.012 C 
HETATM   18  C14 UNL     1      18.271  -1.761  53.212  1.00  0.00    -0.022 A 
HETATM   19  C15 UNL     1      17.699  -2.937  53.689  1.00  0.00     0.031 A 
HETATM   20  C18 UNL     1      17.606  -0.932  52.345  1.00  0.00     0.009 A 
HETATM   21  C16 UNL     1      16.428  -3.272  53.277  1.00  0.00     0.117 A 
HETATM   22  N3  UNL     1      15.787  -2.451  52.430  1.00  0.00    -0.272 NA
HETATM   23  C17 UNL     1      16.337  -1.308  51.964  1.00  0.00     0.130 A 
HETATM   24  C19 UNL     1      18.050   0.321  51.751  1.00  0.00     0.127 C 
HETATM   25  N4  UNL     1      19.046   1.003  52.197  1.00  0.00    -0.269 NA
ENDBRANCH  14  15
ENDBRANCH   1  13
BRANCH   2  26
HETATM   26  C21 UNL     1      24.209   2.547  50.031  1.00  0.00     0.004 C 
HETATM   27  C22 UNL     1      25.165   3.303  49.546  1.00  0.00     0.019 C 
BRANCH  27  28
HETATM   28  C23 UNL     1      26.199   3.924  50.346  1.00  0.00     0.107 C 
HETATM   29  N5  UNL     1      27.182   3.355  50.908  1.00  0.00    -0.312 NA
HETATM   30  H21 UNL     1      27.921   3.818  51.483  1.00  0.00     0.186 HD
ENDBRANCH  27  28
ENDBRANCH   2  26
TORSDOF 6
ENDMDL
MODEL 4
REMARK VINA RESULT:      -8.5      2.472      4.156
REMARK  6 active torsions:
REMARK  status: ('A' for Active; 'I' for Inactive)
REMARK       I    between atoms: N1_2  and  C2_3 
REMARK    1  A    between atoms: N1_2  and  C9_11 
REMARK    2  A    between atoms: C2_3  and  C3_5 
REMARK    3  A    between atoms: C9_11  and  C10_12 
REMARK    4  A    between atoms: N2_13  and  C11_14 
REMARK    5  A    between atoms: C20_25  and  C21_26 
REMARK    6  A    between atoms: C22_27  and  C23_28 
ROOT
HETATM    1  C9  UNL     1      24.240   2.956  50.391  1.00  0.00     0.054 C 
HETATM    2  C20 UNL     1      25.160   2.483  51.198  1.00  0.00     0.031 C 
ENDROOT
BRANCH   1   3
HETATM    3  N1  UNL     1      23.138   2.066  50.320  1.00  0.00    -0.317 N 
HETATM    4  C1  UNL     1      22.722   2.150  48.938  1.00  0.00     0.159 C 
HETATM    5  C2  UNL     1      22.463   1.240  51.230  1.00  0.00     0.258 C 
HETATM    6  O1  UNL     1      21.610   0.835  50.366  1.00  0.00    -0.267 OA
BRANCH   5   7
HETATM    7  C3  UNL     1      22.194   0.621  52.503  1.00  0.00     0.032 A 
HETATM    8  C4  UNL     1      21.053   1.004  53.170  1.00  0.00     0.017 A 
HETATM    9  C5  UNL     1      20.751   0.443  54.391  1.00  0.00     0.001 A 
HETATM   10  C6  UNL     1      21.643  -0.490  54.863  1.00  0.00     0.000 A 
HETATM   11  C7  UNL     1      22.792  -0.916  54.250  1.00  0.00     0.001 A 
HETATM   12  C8  UNL     1      23.053  -0.315  53.018  1.00  0.00     0.017 A 
ENDBRANCH   5   7
ENDBRANCH   1   3
BRANCH   1  13
HETATM   13  C10 UNL     1      24.484   4.235  49.756  1.00  0.00     0.143 C 
HETATM   14  N2  UNL     1      25.702   4.563  49.484  1.00  0.00    -0.268 NA
BRANCH  14  15
HETATM   15  C11 UNL     1      26.064   5.812  48.851  1.00  0.00     0.251 C 
HETATM   16  C12 UNL     1      27.452   5.654  48.372  1.00  0.00     0.024 C 
HETATM   17  C13 UNL     1      28.468   6.492  48.262  1.00  0.00     0.012 C 
HETATM   18  C14 UNL     1      28.450   7.906  48.623  1.00  0.00    -0.022 A 
HETATM   19  C15 UNL     1      29.529   8.582  48.062  1.00  0.00     0.031 A 
HETATM   20  C18 UNL     1      27.523   8.545  49.407  1.00  0.00     0.009 A 
HETATM   21  C16 UNL     1      29.666   9.931  48.303  1.00  0.00     0.117 A 
HETATM   22  N3  UNL     1      28.752  10.546  49.071  1.00  0.00    -0.272 NA
HETATM   23  C17 UNL     1      27.701   9.895  49.618  1.00  0.00     0.130 A 
HETATM   24  C19 UNL     1      26.347   7.998  50.069  1.00  0.00     0.127 C 
HETATM   25  N4  UNL     1      25.827   6.861  49.763  1.00  0.00    -0.269 NA
ENDBRANCH  14  15
ENDBRANCH   1  13
BRANCH   2  26
HETATM   26  C21 UNL     1      25.646   1.471  52.095  1.00  0.00     0.004 C 
HETATM   27  C22 UNL     1      26.573   1.024  52.910  1.00  0.00     0.019 C 
BRANCH  27  28
HETATM   28  C23 UNL     1      27.803   1.725  53.208  1.00  0.00     0.107 C 
HETATM   29  N5  UNL     1      27.966   2.675  54.032  1.00  0.00    -0.312 NA
HETATM   30  H21 UNL     1      28.863   3.172  54.236  1.00  0.00     0.186 HD
ENDBRANCH  27  28
ENDBRANCH   2  26
TORSDOF 6
ENDMDL
MODEL 5
REMARK VINA RESULT:      -8.5      3.073      8.149
REMARK  6 active torsions:
REMARK  status: ('A' for Active; 'I' for Inactive)
REMARK       I    between atoms: N1_2  and  C2_3 
REMARK    1  A    between atoms: N1_2  and  C9_11 
REMARK    2  A    between atoms: C2_3  and  C3_5 
REMARK    3  A    between atoms: C9_11  and  C10_12 
REMARK    4  A    between atoms: N2_13  and  C11_14 
REMARK    5  A    between atoms: C20_25  and  C21_26 
REMARK    6  A    between atoms: C22_27  and  C23_28 
ROOT
HETATM    1  C9  UNL     1      24.389   2.210  51.351  1.00  0.00     0.054 C 
HETATM    2  C20 UNL     1      24.945   2.927  50.403  1.00  0.00     0.031 C 
ENDROOT
BRANCH   1   3
HETATM    3  N1  UNL     1      25.109   2.350  52.564  1.00  0.00    -0.317 N 
HETATM    4  C1  UNL     1      24.417   3.419  53.248  1.00  0.00     0.159 C 
HETATM    5  C2  UNL     1      26.227   1.728  53.138  1.00  0.00     0.258 C 
HETATM    6  O1  UNL     1      26.210   2.463  54.185  1.00  0.00    -0.267 OA
BRANCH   5   7
HETATM    7  C3  UNL     1      27.320   0.793  53.222  1.00  0.00     0.032 A 
HETATM    8  C4  UNL     1      27.049  -0.530  52.959  1.00  0.00     0.017 A 
HETATM    9  C5  UNL     1      28.059  -1.465  53.027  1.00  0.00     0.001 A 
HETATM   10  C6  UNL     1      29.302  -0.984  53.363  1.00  0.00     0.000 A 
HETATM   11  C7  UNL     1      29.638   0.315  53.634  1.00  0.00     0.001 A 
HETATM   12  C8  UNL     1      28.579   1.221  53.554  1.00  0.00     0.017 A 
ENDBRANCH   5   7
ENDBRANCH   1   3
BRANCH   1  13
HETATM   13  C10 UNL     1      23.199   1.451  51.022  1.00  0.00     0.143 C 
HETATM   14  N2  UNL     1      22.718   0.648  51.911  1.00  0.00    -0.268 NA
BRANCH  14  15
HETATM   15  C11 UNL     1      21.536  -0.158  51.694  1.00  0.00     0.251 C 
HETATM   16  C12 UNL     1      20.687   0.589  50.744  1.00  0.00     0.024 C 
HETATM   17  C13 UNL     1      19.378   0.704  50.605  1.00  0.00     0.012 C 
HETATM   18  C14 UNL     1      18.371   0.055  51.439  1.00  0.00    -0.022 A 
HETATM   19  C15 UNL     1      17.121   0.078  50.828  1.00  0.00     0.031 A 
HETATM   20  C18 UNL     1      18.566  -0.520  52.669  1.00  0.00     0.009 A 
HETATM   21  C16 UNL     1      16.052  -0.493  51.481  1.00  0.00     0.117 A 
HETATM   22  N3  UNL     1      16.255  -1.054  52.684  1.00  0.00    -0.272 NA
HETATM   23  C17 UNL     1      17.467  -1.082  53.282  1.00  0.00     0.130 A 
HETATM   24  C19 UNL     1      19.792  -0.631  53.446  1.00  0.00     0.127 C 
HETATM   25  N4  UNL     1      20.966  -0.462  52.946  1.00  0.00    -0.269 NA
ENDBRANCH  14  15
ENDBRANCH   1  13
BRANCH   2  26
HETATM   26  C21 UNL     1      25.963   3.830  49.942  1.00  0.00     0.004 C 
HETATM   27  C22 UNL     1      26.306   4.954  49.358  1.00  0.00     0.019 C 
BRANCH  27  28
HETATM   28  C23 UNL     1      25.365   5.921  48.835  1.00  0.00     0.107 C 
HETATM   29  N5  UNL     1      24.153   6.075  49.174  1.00  0.00    -0.312 NA
HETATM   30  H21 UNL     1      23.486   6.779  48.785  1.00  0.00     0.186 HD
ENDBRANCH  27  28
ENDBRANCH   2  26
TORSDOF 6
ENDMDL
MODEL 6
REMARK VINA RESULT:      -8.4      2.805      9.589
REMARK  6 active torsions:
REMARK  status: ('A' for Active; 'I' for Inactive)
REMARK       I    between atoms: N1_2  and  C2_3 
REMARK    1  A    between atoms: N1_2  and  C9_11 
REMARK    2  A    between atoms: C2_3  and  C3_5 
REMARK    3  A    between atoms: C9_11  and  C10_12 
REMARK    4  A    between atoms: N2_13  and  C11_14 
REMARK    5  A    between atoms: C20_25  and  C21_26 
REMARK    6  A    between atoms: C22_27  and  C23_28 
ROOT
HETATM    1  C9  UNL     1      26.198   5.268  49.217  1.00  0.00     0.054 C 
HETATM    2  C20 UNL     1      27.367   5.452  48.650  1.00  0.00     0.031 C 
ENDROOT
BRANCH   1   3
HETATM    3  N1  UNL     1      25.413   6.446  49.126  1.00  0.00    -0.317 N 
HETATM    4  C1  UNL     1      25.122   6.768  50.505  1.00  0.00     0.159 C 
HETATM    5  C2  UNL     1      24.924   7.240  48.079  1.00  0.00     0.258 C 
HETATM    6  O1  UNL     1      24.310   8.047  48.859  1.00  0.00    -0.267 OA
BRANCH   5   7
HETATM    7  C3  UNL     1      24.727   7.646  46.711  1.00  0.00     0.032 A 
HETATM    8  C4  UNL     1      25.749   8.331  46.096  1.00  0.00     0.017 A 
HETATM    9  C5  UNL     1      25.610   8.744  44.789  1.00  0.00     0.001 A 
HETATM   10  C6  UNL     1      24.419   8.426  44.180  1.00  0.00     0.000 A 
HETATM   11  C7  UNL     1      23.366   7.747  44.734  1.00  0.00     0.001 A 
HETATM   12  C8  UNL     1      23.557   7.354  46.059  1.00  0.00     0.017 A 
ENDBRANCH   5   7
ENDBRANCH   1   3
BRANCH   1  13
HETATM   13  C10 UNL     1      25.918   3.970  49.796  1.00  0.00     0.143 C 
HETATM   14  N2  UNL     1      26.855   3.379  50.459  1.00  0.00    -0.268 NA
BRANCH  14  15
HETATM   15  C11 UNL     1      26.689   2.083  51.080  1.00  0.00     0.251 C 
HETATM   16  C12 UNL     1      25.234   1.858  51.202  1.00  0.00     0.024 C 
HETATM   17  C13 UNL     1      24.491   1.239  52.102  1.00  0.00     0.012 C 
HETATM   18  C14 UNL     1      24.985   0.569  53.301  1.00  0.00    -0.022 A 
HETATM   19  C15 UNL     1      24.019  -0.279  53.837  1.00  0.00     0.031 A 
HETATM   20  C18 UNL     1      26.222   0.711  53.874  1.00  0.00     0.009 A 
HETATM   21  C16 UNL     1      24.320  -0.992  54.976  1.00  0.00     0.117 A 
HETATM   22  N3  UNL     1      25.536  -0.845  55.527  1.00  0.00    -0.272 NA
HETATM   23  C17 UNL     1      26.478  -0.025  55.011  1.00  0.00     0.130 A 
HETATM   24  C19 UNL     1      27.338   1.546  53.453  1.00  0.00     0.127 C 
HETATM   25  N4  UNL     1      27.433   2.062  52.277  1.00  0.00    -0.269 NA
ENDBRANCH  14  15
ENDBRANCH   1  13
BRANCH   2  26
HETATM   26  C21 UNL     1      28.306   6.279  47.945  1.00  0.00     0.004 C 
HETATM   27  C22 UNL     1      28.900   7.438  47.779  1.00  0.00     0.019 C 
BRANCH  27  28
HETATM   28  C23 UNL     1      28.641   8.610  48.588  1.00  0.00     0.107 C 
HETATM   29  N5  UNL     1      28.656   8.689  49.853  1.00  0.00    -0.312 NA
HETATM   30  H21 UNL     1      28.466   9.544  50.423  1.00  0.00     0.186 HD
ENDBRANCH  27  28
ENDBRANCH   2  26
TORSDOF 6
ENDMDL
MODEL 7
REMARK VINA RESULT:      -8.3      2.731      9.479
REMARK  6 active torsions:
REMARK  status: ('A' for Active; 'I' for Inactive)
REMARK       I    between atoms: N1_2  and  C2_3 
REMARK    1  A    between atoms: N1_2  and  C9_11 
REMARK    2  A    between atoms: C2_3  and  C3_5 
REMARK    3  A    between atoms: C9_11  and  C10_12 
REMARK    4  A    between atoms: N2_13  and  C11_14 
REMARK    5  A    between atoms: C20_25  and  C21_26 
REMARK    6  A    between atoms: C22_27  and  C23_28 
ROOT
HETATM    1  C9  UNL     1      27.437   5.586  48.688  1.00  0.00     0.054 C 
HETATM    2  C20 UNL     1      28.699   5.487  48.341  1.00  0.00     0.031 C 
ENDROOT
BRANCH   1   3
HETATM    3  N1  UNL     1      27.034   6.945  48.708  1.00  0.00    -0.317 N 
HETATM    4  C1  UNL     1      25.602   6.873  48.895  1.00  0.00     0.159 C 
HETATM    5  C2  UNL     1      27.686   8.181  48.585  1.00  0.00     0.258 C 
HETATM    6  O1  UNL     1      26.607   8.861  48.683  1.00  0.00    -0.267 OA
BRANCH   5   7
HETATM    7  C3  UNL     1      28.806   9.073  48.421  1.00  0.00     0.032 A 
HETATM    8  C4  UNL     1      29.551   9.372  49.538  1.00  0.00     0.017 A 
HETATM    9  C5  UNL     1      30.631  10.221  49.434  1.00  0.00     0.001 A 
HETATM   10  C6  UNL     1      30.888  10.719  48.180  1.00  0.00     0.000 A 
HETATM   11  C7  UNL     1      30.189  10.461  47.031  1.00  0.00     0.001 A 
HETATM   12  C8  UNL     1      29.104   9.597  47.190  1.00  0.00     0.017 A 
ENDBRANCH   5   7
ENDBRANCH   1   3
BRANCH   1  13
HETATM   13  C10 UNL     1      26.709   4.364  48.964  1.00  0.00     0.143 C 
HETATM   14  N2  UNL     1      27.016   3.693  50.023  1.00  0.00    -0.268 NA
BRANCH  14  15
HETATM   15  C11 UNL     1      26.357   2.461  50.398  1.00  0.00     0.251 C 
HETATM   16  C12 UNL     1      24.940   2.800  50.643  1.00  0.00     0.024 C 
HETATM   17  C13 UNL     1      24.036   2.337  51.488  1.00  0.00     0.012 C 
HETATM   18  C14 UNL     1      24.250   1.278  52.470  1.00  0.00    -0.022 A 
HETATM   19  C15 UNL     1      23.040   0.778  52.942  1.00  0.00     0.031 A 
HETATM   20  C18 UNL     1      25.455   0.795  52.912  1.00  0.00     0.009 A 
HETATM   21  C16 UNL     1      23.059  -0.230  53.880  1.00  0.00     0.117 A 
HETATM   22  N3  UNL     1      24.245  -0.696  54.304  1.00  0.00    -0.272 NA
HETATM   23  C17 UNL     1      25.423  -0.215  53.848  1.00  0.00     0.130 A 
HETATM   24  C19 UNL     1      26.801   1.200  52.531  1.00  0.00     0.127 C 
HETATM   25  N4  UNL     1      27.063   1.886  51.474  1.00  0.00    -0.269 NA
ENDBRANCH  14  15
ENDBRANCH   1  13
BRANCH   2  26
HETATM   26  C21 UNL     1      29.946   6.084  47.949  1.00  0.00     0.004 C 
HETATM   27  C22 UNL     1      31.220   6.304  48.171  1.00  0.00     0.019 C 
BRANCH  27  28
HETATM   28  C23 UNL     1      31.948   5.794  49.313  1.00  0.00     0.107 C 
HETATM   29  N5  UNL     1      31.502   5.596  50.483  1.00  0.00    -0.312 NA
HETATM   30  H21 UNL     1      32.042   5.227  51.298  1.00  0.00     0.186 HD
ENDBRANCH  27  28
ENDBRANCH   2  26
TORSDOF 6
ENDMDL
MODEL 8
REMARK VINA RESULT:      -8.1      3.610      8.892
REMARK  6 active torsions:
REMARK  status: ('A' for Active; 'I' for Inactive)
REMARK       I    between atoms: N1_2  and  C2_3 
REMARK    1  A    between atoms: N1_2  and  C9_11 
REMARK    2  A    between atoms: C2_3  and  C3_5 
REMARK    3  A    between atoms: C9_11  and  C10_12 
REMARK    4  A    between atoms: N2_13  and  C11_14 
REMARK    5  A    between atoms: C20_25  and  C21_26 
REMARK    6  A    between atoms: C22_27  and  C23_28 
ROOT
HETATM    1  C9  UNL     1      24.055   2.351  51.507  1.00  0.00     0.054 C 
HETATM    2  C20 UNL     1      25.157   1.882  52.042  1.00  0.00     0.031 C 
ENDROOT
BRANCH   1   3
HETATM    3  N1  UNL     1      24.098   3.767  51.445  1.00  0.00    -0.317 N 
HETATM    4  C1  UNL     1      23.047   4.179  52.349  1.00  0.00     0.159 C 
HETATM    5  C2  UNL     1      24.865   4.713  50.750  1.00  0.00     0.258 C 
HETATM    6  O1  UNL     1      24.239   5.714  51.242  1.00  0.00    -0.267 OA
BRANCH   5   7
HETATM    7  C3  UNL     1      25.893   5.178  49.853  1.00  0.00     0.032 A 
HETATM    8  C4  UNL     1      25.859   6.500  49.475  1.00  0.00     0.017 A 
HETATM    9  C5  UNL     1      26.818   6.994  48.618  1.00  0.00     0.001 A 
HETATM   10  C6  UNL     1      27.767   6.095  48.194  1.00  0.00     0.000 A 
HETATM   11  C7  UNL     1      27.858   4.771  48.533  1.00  0.00     0.001 A 
HETATM   12  C8  UNL     1      26.862   4.321  49.400  1.00  0.00     0.017 A 
ENDBRANCH   5   7
ENDBRANCH   1   3
BRANCH   1  13
HETATM   13  C10 UNL     1      23.046   1.402  51.083  1.00  0.00     0.143 C 
HETATM   14  N2  UNL     1      22.150   1.037  51.937  1.00  0.00    -0.268 NA
BRANCH  14  15
HETATM   15  C11 UNL     1      21.095   0.097  51.627  1.00  0.00     0.251 C 
HETATM   16  C12 UNL     1      20.222   0.757  50.634  1.00  0.00     0.024 C 
HETATM   17  C13 UNL     1      18.921   0.712  50.408  1.00  0.00     0.012 C 
HETATM   18  C14 UNL     1      17.952  -0.078  51.161  1.00  0.00    -0.022 A 
HETATM   19  C15 UNL     1      16.751  -0.194  50.467  1.00  0.00     0.031 A 
HETATM   20  C18 UNL     1      18.136  -0.656  52.391  1.00  0.00     0.009 A 
HETATM   21  C16 UNL     1      15.721  -0.910  51.036  1.00  0.00     0.117 A 
HETATM   22  N3  UNL     1      15.914  -1.472  52.240  1.00  0.00    -0.272 NA
HETATM   23  C17 UNL     1      17.079  -1.365  52.918  1.00  0.00     0.130 A 
HETATM   24  C19 UNL     1      19.313  -0.634  53.248  1.00  0.00     0.127 C 
HETATM   25  N4  UNL     1      20.487  -0.308  52.832  1.00  0.00    -0.269 NA
ENDBRANCH  14  15
ENDBRANCH   1  13
BRANCH   2  26
HETATM   26  C21 UNL     1      26.454   2.081  52.628  1.00  0.00     0.004 C 
HETATM   27  C22 UNL     1      27.440   1.651  53.380  1.00  0.00     0.019 C 
BRANCH  27  28
HETATM   28  C23 UNL     1      27.448   0.374  54.062  1.00  0.00     0.107 C 
HETATM   29  N5  UNL     1      28.265  -0.019  54.947  1.00  0.00    -0.312 NA
HETATM   30  H21 UNL     1      28.258  -0.946  55.430  1.00  0.00     0.186 HD
ENDBRANCH  27  28
ENDBRANCH   2  26
TORSDOF 6
ENDMDL
MODEL 9
REMARK VINA RESULT:      -8.1      5.221     10.621
REMARK  6 active torsions:
REMARK  status: ('A' for Active; 'I' for Inactive)
REMARK       I    between atoms: N1_2  and  C2_3 
REMARK    1  A    between atoms: N1_2  and  C9_11 
REMARK    2  A    between atoms: C2_3  and  C3_5 
REMARK    3  A    between atoms: C9_11  and  C10_12 
REMARK    4  A    between atoms: N2_13  and  C11_14 
REMARK    5  A    between atoms: C20_25  and  C21_26 
REMARK    6  A    between atoms: C22_27  and  C23_28 
ROOT
HETATM    1  C9  UNL     1      20.180   0.999  51.180  1.00  0.00     0.054 C 
HETATM    2  C20 UNL     1      20.546   0.823  49.932  1.00  0.00     0.031 C 
ENDROOT
BRANCH   1   3
HETATM    3  N1  UNL     1      21.111   1.826  51.858  1.00  0.00    -0.317 N 
HETATM    4  C1  UNL     1      20.360   3.032  52.128  1.00  0.00     0.159 C 
HETATM    5  C2  UNL     1      22.451   1.705  52.250  1.00  0.00     0.258 C 
HETATM    6  O1  UNL     1      22.503   2.881  52.752  1.00  0.00    -0.267 OA
BRANCH   5   7
HETATM    7  C3  UNL     1      23.729   1.057  52.405  1.00  0.00     0.032 A 
HETATM    8  C4  UNL     1      23.798  -0.021  53.257  1.00  0.00     0.017 A 
HETATM    9  C5  UNL     1      24.996  -0.675  53.441  1.00  0.00     0.001 A 
HETATM   10  C6  UNL     1      26.066  -0.182  52.733  1.00  0.00     0.000 A 
HETATM   11  C7  UNL     1      26.065   0.883  51.871  1.00  0.00     0.001 A 
HETATM   12  C8  UNL     1      24.827   1.511  51.722  1.00  0.00     0.017 A 
ENDBRANCH   5   7
ENDBRANCH   1   3
BRANCH   1  13
HETATM   13  C10 UNL     1      18.955   0.366  51.626  1.00  0.00     0.143 C 
HETATM   14  N2  UNL     1      18.983  -0.328  52.714  1.00  0.00    -0.268 NA
BRANCH  14  15
HETATM   15  C11 UNL     1      17.823  -1.003  53.254  1.00  0.00     0.251 C 
HETATM   16  C12 UNL     1      18.266  -2.359  53.638  1.00  0.00     0.024 C 
HETATM   17  C13 UNL     1      17.668  -3.537  53.629  1.00  0.00     0.012 C 
HETATM   18  C14 UNL     1      16.298  -3.795  53.199  1.00  0.00    -0.022 A 
HETATM   19  C15 UNL     1      15.856  -5.038  53.644  1.00  0.00     0.031 A 
HETATM   20  C18 UNL     1      15.498  -2.967  52.453  1.00  0.00     0.009 A 
HETATM   21  C16 UNL     1      14.579  -5.443  53.324  1.00  0.00     0.117 A 
HETATM   22  N3  UNL     1      13.805  -4.623  52.595  1.00  0.00    -0.272 NA
HETATM   23  C17 UNL     1      14.228  -3.414  52.161  1.00  0.00     0.130 A 
HETATM   24  C19 UNL     1      15.796  -1.650  51.908  1.00  0.00     0.127 C 
HETATM   25  N4  UNL     1      16.779  -0.923  52.310  1.00  0.00    -0.269 NA
ENDBRANCH  14  15
ENDBRANCH   1  13
BRANCH   2  26
HETATM   26  C21 UNL     1      21.456   1.055  48.844  1.00  0.00     0.004 C 
HETATM   27  C22 UNL     1      22.235   1.865  48.167  1.00  0.00     0.019 C 
BRANCH  27  28
HETATM   28  C23 UNL     1      22.433   3.262  48.487  1.00  0.00     0.107 C 
HETATM   29  N5  UNL     1      22.896   3.746  49.563  1.00  0.00    -0.312 NA
HETATM   30  H21 UNL     1      23.033   4.759  49.779  1.00  0.00     0.186 HD
ENDBRANCH  27  28
ENDBRANCH   2  26
TORSDOF 6
ENDMDL
