MODEL 1
REMARK VINA RESULT:      -9.4      0.000      0.000
REMARK  6 active torsions:
REMARK  status: ('A' for Active; 'I' for Inactive)
REMARK    1  A    between atoms: C3_3  and  C4_4 
REMARK    2  A    between atoms: C4_4  and  C5_5 
REMARK    3  A    between atoms: C5_5  and  C6_6 
REMARK    4  A    between atoms: C6_6  and  O2_8 
REMARK    5  A    between atoms: C9_11  and  C10_12 
REMARK    6  A    between atoms: C15_19  and  C16_20 
ROOT
HETATM    1  C10 UNL     1      25.403   4.167  49.621  1.00  0.00     0.047 C 
HETATM    2  C11 UNL     1      25.314   3.228  50.496  1.00  0.00     0.046 A 
HETATM    3  C12 UNL     1      26.290   2.585  51.348  1.00  0.00     0.257 A 
HETATM    4  O3  UNL     1      27.527   2.729  51.500  1.00  0.00    -0.267 OA
HETATM    5  N1  UNL     1      25.755   1.580  52.193  1.00  0.00    -0.322 N 
HETATM    6  C13 UNL     1      24.369   1.607  51.840  1.00  0.00     0.047 A 
HETATM    7  C14 UNL     1      23.278   0.862  52.308  1.00  0.00     0.042 A 
HETATM    8  C15 UNL     1      21.983   0.972  51.900  1.00  0.00    -0.024 A 
HETATM    9  C22 UNL     1      21.707   1.908  50.928  1.00  0.00     0.013 A 
HETATM   10  C23 UNL     1      22.750   2.657  50.445  1.00  0.00     0.015 A 
HETATM   11  C24 UNL     1      24.079   2.526  50.882  1.00  0.00     0.006 A 
HETATM   12  H13 UNL     1      26.150   0.938  52.908  1.00  0.00     0.169 HD
ENDROOT
BRANCH   1  13
HETATM   13  C9  UNL     1      26.375   5.033  49.033  1.00  0.00     0.029 A 
HETATM   14  C8  UNL     1      26.031   6.248  48.573  1.00  0.00     0.007 A 
HETATM   15  C7  UNL     1      26.802   7.294  47.948  1.00  0.00     0.065 A 
HETATM   16  C3  UNL     1      28.253   6.917  47.824  1.00  0.00    -0.054 A 
HETATM   17  C2  UNL     1      28.730   5.753  48.231  1.00  0.00     0.008 A 
HETATM   18  C1  UNL     1      30.149   5.372  48.114  1.00  0.00     0.068 C 
HETATM   19  N2  UNL     1      27.762   4.892  48.807  1.00  0.00    -0.360 N 
HETATM   20  H22 UNL     1      28.164   4.004  49.113  1.00  0.00     0.166 HD
BRANCH  16  21
HETATM   21  C4  UNL     1      28.901   8.053  47.207  1.00  0.00     0.047 C 
BRANCH  21  22
HETATM   22  C5  UNL     1      28.920   9.365  47.906  1.00  0.00     0.114 C 
BRANCH  22  23
HETATM   23  C6  UNL     1      29.680   9.166  49.222  1.00  0.00     0.139 C 
HETATM   24  O1  UNL     1      30.861   8.788  49.361  1.00  0.00    -0.650 OA
BRANCH  23  25
HETATM   25  O2  UNL     1      28.847   9.478  50.300  1.00  0.00    -0.776 OA
HETATM   26  H8  UNL     1      28.225  10.299  50.251  1.00  0.00     0.167 HD
ENDBRANCH  23  25
ENDBRANCH  22  23
ENDBRANCH  21  22
ENDBRANCH  16  21
ENDBRANCH   1  13
BRANCH   8  27
HETATM   27  C16 UNL     1      20.965   0.118  52.500  1.00  0.00    -0.026 A 
HETATM   28  C17 UNL     1      19.626   0.155  52.150  1.00  0.00     0.012 A 
HETATM   29  C18 UNL     1      18.713  -0.674  52.758  1.00  0.00     0.001 A 
HETATM   30  C19 UNL     1      19.123  -1.567  53.739  1.00  0.00     0.000 A 
HETATM   31  C20 UNL     1      20.451  -1.629  54.112  1.00  0.00     0.001 A 
HETATM   32  C21 UNL     1      21.330  -0.780  53.475  1.00  0.00     0.012 A 
ENDBRANCH   8  27
TORSDOF 6
ENDMDL
MODEL 2
REMARK VINA RESULT:      -9.3      6.541     10.134
REMARK  6 active torsions:
REMARK  status: ('A' for Active; 'I' for Inactive)
REMARK    1  A    between atoms: C3_3  and  C4_4 
REMARK    2  A    between atoms: C4_4  and  C5_5 
REMARK    3  A    between atoms: C5_5  and  C6_6 
REMARK    4  A    between atoms: C6_6  and  O2_8 
REMARK    5  A    between atoms: C9_11  and  C10_12 
REMARK    6  A    between atoms: C15_19  and  C16_20 
ROOT
HETATM    1  C10 UNL     1      20.959   1.168  52.073  1.00  0.00     0.047 C 
HETATM    2  C11 UNL     1      21.721   0.398  52.766  1.00  0.00     0.046 A 
HETATM    3  C12 UNL     1      21.446  -0.664  53.712  1.00  0.00     0.257 A 
HETATM    4  O3  UNL     1      20.386  -1.161  54.161  1.00  0.00    -0.267 OA
HETATM    5  N1  UNL     1      22.604  -1.277  54.252  1.00  0.00    -0.322 N 
HETATM    6  C13 UNL     1      23.652  -0.552  53.602  1.00  0.00     0.047 A 
HETATM    7  C14 UNL     1      25.046  -0.662  53.687  1.00  0.00     0.042 A 
HETATM    8  C15 UNL     1      25.964   0.087  53.013  1.00  0.00    -0.024 A 
HETATM    9  C22 UNL     1      25.481   1.053  52.157  1.00  0.00     0.013 A 
HETATM   10  C23 UNL     1      24.121   1.189  52.047  1.00  0.00     0.015 A 
HETATM   11  C24 UNL     1      23.193   0.405  52.753  1.00  0.00     0.006 A 
HETATM   12  H13 UNL     1      22.777  -2.044  54.933  1.00  0.00     0.169 HD
ENDROOT
BRANCH   1  13
HETATM   13  C9  UNL     1      19.573   1.419  51.837  1.00  0.00     0.029 A 
HETATM   14  C8  UNL     1      19.102   2.675  51.753  1.00  0.00     0.007 A 
HETATM   15  C7  UNL     1      17.775   3.192  51.527  1.00  0.00     0.065 A 
HETATM   16  C3  UNL     1      16.772   2.087  51.342  1.00  0.00    -0.054 A 
HETATM   17  C2  UNL     1      17.094   0.807  51.403  1.00  0.00     0.008 A 
HETATM   18  C1  UNL     1      16.120  -0.285  51.223  1.00  0.00     0.068 C 
HETATM   19  N2  UNL     1      18.469   0.559  51.645  1.00  0.00    -0.360 N 
HETATM   20  H22 UNL     1      18.684  -0.438  51.683  1.00  0.00     0.166 HD
BRANCH  16  21
HETATM   21  C4  UNL     1      15.505   2.744  51.105  1.00  0.00     0.047 C 
BRANCH  21  22
HETATM   22  C5  UNL     1      15.225   4.063  51.732  1.00  0.00     0.114 C 
BRANCH  22  23
HETATM   23  C6  UNL     1      14.571   3.788  53.091  1.00  0.00     0.139 C 
HETATM   24  O1  UNL     1      13.613   3.025  53.326  1.00  0.00    -0.650 OA
BRANCH  23  25
HETATM   25  O2  UNL     1      15.214   4.534  54.083  1.00  0.00    -0.776 OA
HETATM   26  H8  UNL     1      14.778   5.396  54.444  1.00  0.00     0.167 HD
ENDBRANCH  23  25
ENDBRANCH  22  23
ENDBRANCH  21  22
ENDBRANCH  16  21
ENDBRANCH   1  13
BRANCH   8  27
HETATM   27  C16 UNL     1      27.386  -0.164  53.215  1.00  0.00    -0.026 A 
HETATM   28  C17 UNL     1      28.303   0.822  53.536  1.00  0.00     0.012 A 
HETATM   29  C18 UNL     1      29.633   0.521  53.708  1.00  0.00     0.001 A 
HETATM   30  C19 UNL     1      30.080  -0.786  53.562  1.00  0.00     0.000 A 
HETATM   31  C20 UNL     1      29.191  -1.792  53.241  1.00  0.00     0.001 A 
HETATM   32  C21 UNL     1      27.868  -1.444  53.078  1.00  0.00     0.012 A 
ENDBRANCH   8  27
TORSDOF 6
ENDMDL
MODEL 3
REMARK VINA RESULT:      -9.2      1.249      1.914
REMARK  6 active torsions:
REMARK  status: ('A' for Active; 'I' for Inactive)
REMARK    1  A    between atoms: C3_3  and  C4_4 
REMARK    2  A    between atoms: C4_4  and  C5_5 
REMARK    3  A    between atoms: C5_5  and  C6_6 
REMARK    4  A    between atoms: C6_6  and  O2_8 
REMARK    5  A    between atoms: C9_11  and  C10_12 
REMARK    6  A    between atoms: C15_19  and  C16_20 
ROOT
HETATM    1  C10 UNL     1      25.392   4.345  49.678  1.00  0.00     0.047 C 
HETATM    2  C11 UNL     1      25.137   3.334  50.430  1.00  0.00     0.046 A 
HETATM    3  C12 UNL     1      25.972   2.493  51.260  1.00  0.00     0.257 A 
HETATM    4  O3  UNL     1      27.203   2.474  51.502  1.00  0.00    -0.267 OA
HETATM    5  N1  UNL     1      25.270   1.471  51.948  1.00  0.00    -0.322 N 
HETATM    6  C13 UNL     1      23.925   1.698  51.518  1.00  0.00     0.047 A 
HETATM    7  C14 UNL     1      22.729   1.038  51.830  1.00  0.00     0.042 A 
HETATM    8  C15 UNL     1      21.486   1.341  51.359  1.00  0.00    -0.024 A 
HETATM    9  C22 UNL     1      21.386   2.404  50.488  1.00  0.00     0.013 A 
HETATM   10  C23 UNL     1      22.536   3.074  50.159  1.00  0.00     0.015 A 
HETATM   11  C24 UNL     1      23.808   2.742  50.657  1.00  0.00     0.006 A 
HETATM   12  H13 UNL     1      25.540   0.713  52.607  1.00  0.00     0.169 HD
ENDROOT
BRANCH   1  13
HETATM   13  C9  UNL     1      26.492   5.151  49.254  1.00  0.00     0.029 A 
HETATM   14  C8  UNL     1      27.576   4.599  48.685  1.00  0.00     0.007 A 
HETATM   15  C7  UNL     1      28.797   5.174  48.179  1.00  0.00     0.065 A 
HETATM   16  C3  UNL     1      28.808   6.672  48.325  1.00  0.00    -0.054 A 
HETATM   17  C2  UNL     1      27.811   7.347  48.869  1.00  0.00     0.008 A 
HETATM   18  C1  UNL     1      27.809   8.813  49.017  1.00  0.00     0.068 C 
HETATM   19  N2  UNL     1      26.723   6.544  49.296  1.00  0.00    -0.360 N 
HETATM   20  H22 UNL     1      25.970   7.097  49.709  1.00  0.00     0.166 HD
BRANCH  16  21
HETATM   21  C4  UNL     1      30.066   7.111  47.764  1.00  0.00     0.047 C 
BRANCH  21  22
HETATM   22  C5  UNL     1      31.321   6.390  48.104  1.00  0.00     0.114 C 
BRANCH  22  23
HETATM   23  C6  UNL     1      31.684   6.766  49.545  1.00  0.00     0.139 C 
HETATM   24  O1  UNL     1      31.923   7.907  49.988  1.00  0.00    -0.650 OA
BRANCH  23  25
HETATM   25  O2  UNL     1      31.712   5.617  50.340  1.00  0.00    -0.776 OA
HETATM   26  H8  UNL     1      30.853   5.063  50.477  1.00  0.00     0.167 HD
ENDBRANCH  23  25
ENDBRANCH  22  23
ENDBRANCH  21  22
ENDBRANCH  16  21
ENDBRANCH   1  13
BRANCH   8  27
HETATM   27  C16 UNL     1      20.340   0.552  51.793  1.00  0.00    -0.026 A 
HETATM   28  C17 UNL     1      19.155   0.462  51.083  1.00  0.00     0.012 A 
HETATM   29  C18 UNL     1      18.107  -0.297  51.550  1.00  0.00     0.001 A 
HETATM   30  C19 UNL     1      18.223  -0.989  52.749  1.00  0.00     0.000 A 
HETATM   31  C20 UNL     1      19.392  -0.919  53.481  1.00  0.00     0.001 A 
HETATM   32  C21 UNL     1      20.414  -0.148  52.975  1.00  0.00     0.012 A 
ENDBRANCH   8  27
TORSDOF 6
ENDMDL
MODEL 4
REMARK VINA RESULT:      -9.0      3.609     10.745
REMARK  6 active torsions:
REMARK  status: ('A' for Active; 'I' for Inactive)
REMARK    1  A    between atoms: C3_3  and  C4_4 
REMARK    2  A    between atoms: C4_4  and  C5_5 
REMARK    3  A    between atoms: C5_5  and  C6_6 
REMARK    4  A    between atoms: C6_6  and  O2_8 
REMARK    5  A    between atoms: C9_11  and  C10_12 
REMARK    6  A    between atoms: C15_19  and  C16_20 
ROOT
HETATM    1  C10 UNL     1      23.817   2.086  51.308  1.00  0.00     0.047 C 
HETATM    2  C11 UNL     1      23.981   3.324  51.004  1.00  0.00     0.046 A 
HETATM    3  C12 UNL     1      23.201   4.513  51.275  1.00  0.00     0.257 A 
HETATM    4  O3  UNL     1      22.121   4.713  51.879  1.00  0.00    -0.267 OA
HETATM    5  N1  UNL     1      23.759   5.708  50.754  1.00  0.00    -0.322 N 
HETATM    6  C13 UNL     1      24.951   5.227  50.127  1.00  0.00     0.047 A 
HETATM    7  C14 UNL     1      25.965   5.894  49.427  1.00  0.00     0.042 A 
HETATM    8  C15 UNL     1      27.072   5.332  48.865  1.00  0.00    -0.024 A 
HETATM    9  C22 UNL     1      27.220   3.969  48.995  1.00  0.00     0.013 A 
HETATM   10  C23 UNL     1      26.247   3.281  49.674  1.00  0.00     0.015 A 
HETATM   11  C24 UNL     1      25.113   3.883  50.245  1.00  0.00     0.006 A 
HETATM   12  H13 UNL     1      23.480   6.709  50.759  1.00  0.00     0.169 HD
ENDROOT
BRANCH   1  13
HETATM   13  C9  UNL     1      22.903   1.235  52.001  1.00  0.00     0.029 A 
HETATM   14  C8  UNL     1      21.647   1.060  51.555  1.00  0.00     0.007 A 
HETATM   15  C7  UNL     1      20.548   0.274  52.058  1.00  0.00     0.065 A 
HETATM   16  C3  UNL     1      20.929  -0.483  53.301  1.00  0.00    -0.054 A 
HETATM   17  C2  UNL     1      22.128  -0.403  53.851  1.00  0.00     0.008 A 
HETATM   18  C1  UNL     1      22.513  -1.139  55.069  1.00  0.00     0.068 C 
HETATM   19  N2  UNL     1      23.032   0.448  53.166  1.00  0.00    -0.360 N 
HETATM   20  H22 UNL     1      23.948   0.485  53.616  1.00  0.00     0.166 HD
BRANCH  16  21
HETATM   21  C4  UNL     1      19.753  -1.236  53.677  1.00  0.00     0.047 C 
BRANCH  21  22
HETATM   22  C5  UNL     1      18.430  -0.883  53.097  1.00  0.00     0.114 C 
BRANCH  22  23
HETATM   23  C6  UNL     1      17.476  -2.042  53.405  1.00  0.00     0.139 C 
HETATM   24  O1  UNL     1      17.767  -3.141  53.920  1.00  0.00    -0.650 OA
BRANCH  23  25
HETATM   25  O2  UNL     1      16.177  -1.699  53.021  1.00  0.00    -0.776 OA
HETATM   26  H8  UNL     1      15.374  -1.991  53.599  1.00  0.00     0.167 HD
ENDBRANCH  23  25
ENDBRANCH  22  23
ENDBRANCH  21  22
ENDBRANCH  16  21
ENDBRANCH   1  13
BRANCH   8  27
HETATM   27  C16 UNL     1      28.036   6.179  48.173  1.00  0.00    -0.026 A 
HETATM   28  C17 UNL     1      29.389   5.896  48.091  1.00  0.00     0.012 A 
HETATM   29  C18 UNL     1      30.248   6.739  47.427  1.00  0.00     0.001 A 
HETATM   30  C19 UNL     1      29.770   7.895  46.824  1.00  0.00     0.000 A 
HETATM   31  C20 UNL     1      28.426   8.206  46.888  1.00  0.00     0.001 A 
HETATM   32  C21 UNL     1      27.602   7.333  47.564  1.00  0.00     0.012 A 
ENDBRANCH   8  27
TORSDOF 6
ENDMDL
MODEL 5
REMARK VINA RESULT:      -8.9      1.583      1.951
REMARK  6 active torsions:
REMARK  status: ('A' for Active; 'I' for Inactive)
REMARK    1  A    between atoms: C3_3  and  C4_4 
REMARK    2  A    between atoms: C4_4  and  C5_5 
REMARK    3  A    between atoms: C5_5  and  C6_6 
REMARK    4  A    between atoms: C6_6  and  O2_8 
REMARK    5  A    between atoms: C9_11  and  C10_12 
REMARK    6  A    between atoms: C15_19  and  C16_20 
ROOT
HETATM    1  C10 UNL     1      26.073   4.273  49.728  1.00  0.00     0.047 C 
HETATM    2  C11 UNL     1      24.834   3.929  49.746  1.00  0.00     0.046 A 
HETATM    3  C12 UNL     1      23.684   4.361  48.980  1.00  0.00     0.257 A 
HETATM    4  O3  UNL     1      23.528   5.207  48.068  1.00  0.00    -0.267 OA
HETATM    5  N1  UNL     1      22.476   3.701  49.320  1.00  0.00    -0.322 N 
HETATM    6  C13 UNL     1      22.907   2.812  50.354  1.00  0.00     0.047 A 
HETATM    7  C14 UNL     1      22.206   1.871  51.120  1.00  0.00     0.042 A 
HETATM    8  C15 UNL     1      22.721   1.064  52.090  1.00  0.00    -0.024 A 
HETATM    9  C22 UNL     1      24.069   1.179  52.352  1.00  0.00     0.013 A 
HETATM   10  C23 UNL     1      24.789   2.090  51.622  1.00  0.00     0.015 A 
HETATM   11  C24 UNL     1      24.235   2.912  50.626  1.00  0.00     0.006 A 
HETATM   12  H13 UNL     1      21.493   3.756  48.987  1.00  0.00     0.169 HD
ENDROOT
BRANCH   1  13
HETATM   13  C9  UNL     1      26.958   5.160  49.044  1.00  0.00     0.029 A 
HETATM   14  C8  UNL     1      26.523   6.336  48.561  1.00  0.00     0.007 A 
HETATM   15  C7  UNL     1      27.196   7.391  47.846  1.00  0.00     0.065 A 
HETATM   16  C3  UNL     1      28.653   7.081  47.639  1.00  0.00    -0.054 A 
HETATM   17  C2  UNL     1      29.215   5.960  48.058  1.00  0.00     0.008 A 
HETATM   18  C1  UNL     1      30.642   5.645  47.861  1.00  0.00     0.068 C 
HETATM   19  N2  UNL     1      28.333   5.078  48.731  1.00  0.00    -0.360 N 
HETATM   20  H22 UNL     1      28.799   4.225  49.043  1.00  0.00     0.166 HD
BRANCH  16  21
HETATM   21  C4  UNL     1      29.201   8.221  46.937  1.00  0.00     0.047 C 
BRANCH  21  22
HETATM   22  C5  UNL     1      29.288   9.539  47.618  1.00  0.00     0.114 C 
BRANCH  22  23
HETATM   23  C6  UNL     1      30.185   9.356  48.847  1.00  0.00     0.139 C 
HETATM   24  O1  UNL     1      31.388   9.026  48.859  1.00  0.00    -0.650 OA
BRANCH  23  25
HETATM   25  O2  UNL     1      29.454   9.618  50.009  1.00  0.00    -0.776 OA
HETATM   26  H8  UNL     1      29.945   9.818  50.894  1.00  0.00     0.167 HD
ENDBRANCH  23  25
ENDBRANCH  22  23
ENDBRANCH  21  22
ENDBRANCH  16  21
ENDBRANCH   1  13
BRANCH   8  27
HETATM   27  C16 UNL     1      21.847   0.131  52.789  1.00  0.00    -0.026 A 
HETATM   28  C17 UNL     1      20.468   0.131  52.668  1.00  0.00     0.012 A 
HETATM   29  C18 UNL     1      19.698  -0.774  53.360  1.00  0.00     0.001 A 
HETATM   30  C19 UNL     1      20.295  -1.708  54.196  1.00  0.00     0.000 A 
HETATM   31  C20 UNL     1      21.668  -1.734  54.339  1.00  0.00     0.001 A 
HETATM   32  C21 UNL     1      22.400  -0.809  53.627  1.00  0.00     0.012 A 
ENDBRANCH   8  27
TORSDOF 6
ENDMDL
MODEL 6
REMARK VINA RESULT:      -8.9      5.482     10.046
REMARK  6 active torsions:
REMARK  status: ('A' for Active; 'I' for Inactive)
REMARK    1  A    between atoms: C3_3  and  C4_4 
REMARK    2  A    between atoms: C4_4  and  C5_5 
REMARK    3  A    between atoms: C5_5  and  C6_6 
REMARK    4  A    between atoms: C6_6  and  O2_8 
REMARK    5  A    between atoms: C9_11  and  C10_12 
REMARK    6  A    between atoms: C15_19  and  C16_20 
ROOT
HETATM    1  C10 UNL     1      20.820   0.996  52.150  1.00  0.00     0.047 C 
HETATM    2  C11 UNL     1      21.987   1.340  51.733  1.00  0.00     0.046 A 
HETATM    3  C12 UNL     1      22.432   2.286  50.733  1.00  0.00     0.257 A 
HETATM    4  O3  UNL     1      21.828   3.061  49.953  1.00  0.00    -0.267 OA
HETATM    5  N1  UNL     1      23.841   2.365  50.591  1.00  0.00    -0.322 N 
HETATM    6  C13 UNL     1      24.288   1.413  51.561  1.00  0.00     0.047 A 
HETATM    7  C14 UNL     1      25.575   1.006  51.936  1.00  0.00     0.042 A 
HETATM    8  C15 UNL     1      25.892   0.081  52.885  1.00  0.00    -0.024 A 
HETATM    9  C22 UNL     1      24.846  -0.520  53.551  1.00  0.00     0.013 A 
HETATM   10  C23 UNL     1      23.571  -0.147  53.211  1.00  0.00     0.015 A 
HETATM   11  C24 UNL     1      23.269   0.810  52.228  1.00  0.00     0.006 A 
HETATM   12  H13 UNL     1      24.487   2.917  49.993  1.00  0.00     0.169 HD
ENDROOT
BRANCH   1  13
HETATM   13  C9  UNL     1      19.441   1.289  51.924  1.00  0.00     0.029 A 
HETATM   14  C8  UNL     1      19.021   2.554  51.752  1.00  0.00     0.007 A 
HETATM   15  C7  UNL     1      17.713   3.111  51.513  1.00  0.00     0.065 A 
HETATM   16  C3  UNL     1      16.659   2.040  51.435  1.00  0.00    -0.054 A 
HETATM   17  C2  UNL     1      16.929   0.755  51.589  1.00  0.00     0.008 A 
HETATM   18  C1  UNL     1      15.905  -0.303  51.515  1.00  0.00     0.068 C 
HETATM   19  N2  UNL     1      18.297   0.467  51.822  1.00  0.00    -0.360 N 
HETATM   20  H22 UNL     1      18.471  -0.534  51.933  1.00  0.00     0.166 HD
BRANCH  16  21
HETATM   21  C4  UNL     1      15.416   2.732  51.174  1.00  0.00     0.047 C 
BRANCH  21  22
HETATM   22  C5  UNL     1      15.166   4.063  51.787  1.00  0.00     0.114 C 
BRANCH  22  23
HETATM   23  C6  UNL     1      14.532   3.816  53.161  1.00  0.00     0.139 C 
HETATM   24  O1  UNL     1      13.558   3.083  53.421  1.00  0.00    -0.650 OA
BRANCH  23  25
HETATM   25  O2  UNL     1      15.216   4.550  54.134  1.00  0.00    -0.776 OA
HETATM   26  H8  UNL     1      15.688   5.432  53.879  1.00  0.00     0.167 HD
ENDBRANCH  23  25
ENDBRANCH  22  23
ENDBRANCH  21  22
ENDBRANCH  16  21
ENDBRANCH   1  13
BRANCH   8  27
HETATM   27  C16 UNL     1      27.292  -0.221  53.156  1.00  0.00    -0.026 A 
HETATM   28  C17 UNL     1      27.850  -1.480  53.008  1.00  0.00     0.012 A 
HETATM   29  C18 UNL     1      29.178  -1.701  53.285  1.00  0.00     0.001 A 
HETATM   30  C19 UNL     1      29.986  -0.659  53.721  1.00  0.00     0.000 A 
HETATM   31  C20 UNL     1      29.460   0.608  53.879  1.00  0.00     0.001 A 
HETATM   32  C21 UNL     1      28.125   0.783  53.589  1.00  0.00     0.012 A 
ENDBRANCH   8  27
TORSDOF 6
ENDMDL
MODEL 7
REMARK VINA RESULT:      -8.8      2.840     10.449
REMARK  6 active torsions:
REMARK  status: ('A' for Active; 'I' for Inactive)
REMARK    1  A    between atoms: C3_3  and  C4_4 
REMARK    2  A    between atoms: C4_4  and  C5_5 
REMARK    3  A    between atoms: C5_5  and  C6_6 
REMARK    4  A    between atoms: C6_6  and  O2_8 
REMARK    5  A    between atoms: C9_11  and  C10_12 
REMARK    6  A    between atoms: C15_19  and  C16_20 
ROOT
HETATM    1  C10 UNL     1      26.513   3.402  50.262  1.00  0.00     0.047 C 
HETATM    2  C11 UNL     1      26.122   4.479  49.679  1.00  0.00     0.046 A 
HETATM    3  C12 UNL     1      24.843   5.153  49.615  1.00  0.00     0.257 A 
HETATM    4  O3  UNL     1      23.713   4.900  50.097  1.00  0.00    -0.267 OA
HETATM    5  N1  UNL     1      24.851   6.348  48.852  1.00  0.00    -0.322 N 
HETATM    6  C13 UNL     1      26.213   6.414  48.423  1.00  0.00     0.047 A 
HETATM    7  C14 UNL     1      26.893   7.354  47.637  1.00  0.00     0.042 A 
HETATM    8  C15 UNL     1      28.209   7.321  47.285  1.00  0.00    -0.024 A 
HETATM    9  C22 UNL     1      28.957   6.260  47.746  1.00  0.00     0.013 A 
HETATM   10  C23 UNL     1      28.325   5.319  48.519  1.00  0.00     0.015 A 
HETATM   11  C24 UNL     1      26.966   5.374  48.868  1.00  0.00     0.006 A 
HETATM   12  H13 UNL     1      24.137   7.062  48.603  1.00  0.00     0.169 HD
ENDROOT
BRANCH   1  13
HETATM   13  C9  UNL     1      26.006   2.355  51.090  1.00  0.00     0.029 A 
HETATM   14  C8  UNL     1      24.743   2.383  51.548  1.00  0.00     0.007 A 
HETATM   15  C7  UNL     1      24.000   1.472  52.382  1.00  0.00     0.065 A 
HETATM   16  C3  UNL     1      24.827   0.278  52.775  1.00  0.00    -0.054 A 
HETATM   17  C2  UNL     1      26.085   0.122  52.400  1.00  0.00     0.008 A 
HETATM   18  C1  UNL     1      26.906  -1.043  52.778  1.00  0.00     0.068 C 
HETATM   19  N2  UNL     1      26.589   1.167  51.585  1.00  0.00    -0.360 N 
HETATM   20  H22 UNL     1      27.560   1.013  51.311  1.00  0.00     0.166 HD
BRANCH  16  21
HETATM   21  C4  UNL     1      23.960  -0.551  53.582  1.00  0.00     0.047 C 
BRANCH  21  22
HETATM   22  C5  UNL     1      22.492  -0.538  53.346  1.00  0.00     0.114 C 
BRANCH  22  23
HETATM   23  C6  UNL     1      21.820  -0.980  54.650  1.00  0.00     0.139 C 
HETATM   24  O1  UNL     1      22.102  -1.979  55.343  1.00  0.00    -0.650 OA
BRANCH  23  25
HETATM   25  O2  UNL     1      20.803  -0.081  54.985  1.00  0.00    -0.776 OA
HETATM   26  H8  UNL     1      20.335  -0.151  55.902  1.00  0.00     0.167 HD
ENDBRANCH  23  25
ENDBRANCH  22  23
ENDBRANCH  21  22
ENDBRANCH  16  21
ENDBRANCH   1  13
BRANCH   8  27
HETATM   27  C16 UNL     1      28.761   8.390  46.462  1.00  0.00    -0.026 A 
HETATM   28  C17 UNL     1      28.546   8.500  45.098  1.00  0.00     0.012 A 
HETATM   29  C18 UNL     1      29.100   9.530  44.376  1.00  0.00     0.001 A 
HETATM   30  C19 UNL     1      29.888  10.484  45.007  1.00  0.00     0.000 A 
HETATM   31  C20 UNL     1      30.122  10.403  46.366  1.00  0.00     0.001 A 
HETATM   32  C21 UNL     1      29.547   9.354  47.048  1.00  0.00     0.012 A 
ENDBRANCH   8  27
TORSDOF 6
ENDMDL
MODEL 8
REMARK VINA RESULT:      -8.7      2.960     10.627
REMARK  6 active torsions:
REMARK  status: ('A' for Active; 'I' for Inactive)
REMARK    1  A    between atoms: C3_3  and  C4_4 
REMARK    2  A    between atoms: C4_4  and  C5_5 
REMARK    3  A    between atoms: C5_5  and  C6_6 
REMARK    4  A    between atoms: C6_6  and  O2_8 
REMARK    5  A    between atoms: C9_11  and  C10_12 
REMARK    6  A    between atoms: C15_19  and  C16_20 
ROOT
HETATM    1  C10 UNL     1      25.172   3.492  49.786  1.00  0.00     0.047 C 
HETATM    2  C11 UNL     1      25.295   4.686  49.323  1.00  0.00     0.046 A 
HETATM    3  C12 UNL     1      24.360   5.779  49.166  1.00  0.00     0.257 A 
HETATM    4  O3  UNL     1      23.138   5.909  49.420  1.00  0.00    -0.267 OA
HETATM    5  N1  UNL     1      24.924   6.954  48.610  1.00  0.00    -0.322 N 
HETATM    6  C13 UNL     1      26.286   6.562  48.414  1.00  0.00     0.047 A 
HETATM    7  C14 UNL     1      27.387   7.260  47.900  1.00  0.00     0.042 A 
HETATM    8  C15 UNL     1      28.657   6.785  47.758  1.00  0.00    -0.024 A 
HETATM    9  C22 UNL     1      28.892   5.488  48.158  1.00  0.00     0.013 A 
HETATM   10  C23 UNL     1      27.838   4.774  48.667  1.00  0.00     0.015 A 
HETATM   11  C24 UNL     1      26.536   5.285  48.804  1.00  0.00     0.006 A 
HETATM   12  H13 UNL     1      24.561   7.897  48.366  1.00  0.00     0.169 HD
ENDROOT
BRANCH   1  13
HETATM   13  C9  UNL     1      24.185   2.628  50.350  1.00  0.00     0.029 A 
HETATM   14  C8  UNL     1      24.331   2.125  51.588  1.00  0.00     0.007 A 
HETATM   15  C7  UNL     1      23.501   1.248  52.375  1.00  0.00     0.065 A 
HETATM   16  C3  UNL     1      22.244   0.865  51.641  1.00  0.00    -0.054 A 
HETATM   17  C2  UNL     1      21.972   1.284  50.418  1.00  0.00     0.008 A 
HETATM   18  C1  UNL     1      20.745   0.917  49.689  1.00  0.00     0.068 C 
HETATM   19  N2  UNL     1      22.957   2.136  49.856  1.00  0.00    -0.360 N 
HETATM   20  H22 UNL     1      22.714   2.443  48.913  1.00  0.00     0.166 HD
BRANCH  16  21
HETATM   21  C4  UNL     1      21.507   0.013  52.547  1.00  0.00     0.047 C 
BRANCH  21  22
HETATM   22  C5  UNL     1      21.710   0.138  54.014  1.00  0.00     0.114 C 
BRANCH  22  23
HETATM   23  C6  UNL     1      21.431  -1.238  54.629  1.00  0.00     0.139 C 
HETATM   24  O1  UNL     1      22.201  -1.918  55.336  1.00  0.00    -0.650 OA
BRANCH  23  25
HETATM   25  O2  UNL     1      20.142  -1.656  54.284  1.00  0.00    -0.776 OA
HETATM   26  H8  UNL     1      19.382  -1.613  54.981  1.00  0.00     0.167 HD
ENDBRANCH  23  25
ENDBRANCH  22  23
ENDBRANCH  21  22
ENDBRANCH  16  21
ENDBRANCH   1  13
BRANCH   8  27
HETATM   27  C16 UNL     1      29.691   7.652  47.207  1.00  0.00    -0.026 A 
HETATM   28  C17 UNL     1      29.550   8.367  46.030  1.00  0.00     0.012 A 
HETATM   29  C18 UNL     1      30.567   9.165  45.561  1.00  0.00     0.001 A 
HETATM   30  C19 UNL     1      31.760   9.266  46.265  1.00  0.00     0.000 A 
HETATM   31  C20 UNL     1      31.933   8.566  47.442  1.00  0.00     0.001 A 
HETATM   32  C21 UNL     1      30.887   7.780  47.874  1.00  0.00     0.012 A 
ENDBRANCH   8  27
TORSDOF 6
ENDMDL
MODEL 9
REMARK VINA RESULT:      -8.5      2.486      3.863
REMARK  6 active torsions:
REMARK  status: ('A' for Active; 'I' for Inactive)
REMARK    1  A    between atoms: C3_3  and  C4_4 
REMARK    2  A    between atoms: C4_4  and  C5_5 
REMARK    3  A    between atoms: C5_5  and  C6_6 
REMARK    4  A    between atoms: C6_6  and  O2_8 
REMARK    5  A    between atoms: C9_11  and  C10_12 
REMARK    6  A    between atoms: C15_19  and  C16_20 
ROOT
HETATM    1  C10 UNL     1      27.605   4.882  48.976  1.00  0.00     0.047 C 
HETATM    2  C11 UNL     1      26.369   4.705  49.286  1.00  0.00     0.046 A 
HETATM    3  C12 UNL     1      25.159   5.422  48.946  1.00  0.00     0.257 A 
HETATM    4  O3  UNL     1      24.930   6.442  48.253  1.00  0.00    -0.267 OA
HETATM    5  N1  UNL     1      23.979   4.872  49.505  1.00  0.00    -0.322 N 
HETATM    6  C13 UNL     1      24.491   3.751  50.231  1.00  0.00     0.047 A 
HETATM    7  C14 UNL     1      23.850   2.778  51.009  1.00  0.00     0.042 A 
HETATM    8  C15 UNL     1      24.442   1.739  51.663  1.00  0.00    -0.024 A 
HETATM    9  C22 UNL     1      25.811   1.624  51.553  1.00  0.00     0.013 A 
HETATM   10  C23 UNL     1      26.473   2.559  50.798  1.00  0.00     0.015 A 
HETATM   11  C24 UNL     1      25.841   3.623  50.133  1.00  0.00     0.006 A 
HETATM   12  H13 UNL     1      22.969   5.117  49.472  1.00  0.00     0.169 HD
ENDROOT
BRANCH   1  13
HETATM   13  C9  UNL     1      28.432   5.763  48.214  1.00  0.00     0.029 A 
HETATM   14  C8  UNL     1      29.753   5.546  48.099  1.00  0.00     0.007 A 
HETATM   15  C7  UNL     1      30.790   6.267  47.404  1.00  0.00     0.065 A 
HETATM   16  C3  UNL     1      30.243   7.466  46.679  1.00  0.00    -0.054 A 
HETATM   17  C2  UNL     1      28.965   7.801  46.708  1.00  0.00     0.008 A 
HETATM   18  C1  UNL     1      28.416   8.973  46.002  1.00  0.00     0.068 C 
HETATM   19  N2  UNL     1      28.147   6.930  47.471  1.00  0.00    -0.360 N 
HETATM   20  H22 UNL     1      27.167   7.216  47.470  1.00  0.00     0.166 HD
BRANCH  16  21
HETATM   21  C4  UNL     1      31.376   8.075  46.018  1.00  0.00     0.047 C 
BRANCH  21  22
HETATM   22  C5  UNL     1      32.178   7.286  45.045  1.00  0.00     0.114 C 
BRANCH  22  23
HETATM   23  C6  UNL     1      33.655   7.570  45.340  1.00  0.00     0.139 C 
HETATM   24  O1  UNL     1      34.225   8.679  45.335  1.00  0.00    -0.650 OA
BRANCH  23  25
HETATM   25  O2  UNL     1      34.315   6.373  45.632  1.00  0.00    -0.776 OA
HETATM   26  H8  UNL     1      33.784   5.491  45.688  1.00  0.00     0.167 HD
ENDBRANCH  23  25
ENDBRANCH  22  23
ENDBRANCH  21  22
ENDBRANCH  16  21
ENDBRANCH   1  13
BRANCH   8  27
HETATM   27  C16 UNL     1      23.621   0.809  52.428  1.00  0.00    -0.026 A 
HETATM   28  C17 UNL     1      24.095   0.059  53.490  1.00  0.00     0.012 A 
HETATM   29  C18 UNL     1      23.269  -0.807  54.169  1.00  0.00     0.001 A 
HETATM   30  C19 UNL     1      21.938  -0.941  53.797  1.00  0.00     0.000 A 
HETATM   31  C20 UNL     1      21.434  -0.208  52.741  1.00  0.00     0.001 A 
HETATM   32  C21 UNL     1      22.297   0.646  52.091  1.00  0.00     0.012 A 
ENDBRANCH   8  27
TORSDOF 6
ENDMDL
