MODEL 1
REMARK VINA RESULT:     -10.1      0.000      0.000
REMARK  3 active torsions:
REMARK  status: ('A' for Active; 'I' for Inactive)
REMARK    1  A    between atoms: C3_5  and  C4_6 
REMARK    2  A    between atoms: C13_18  and  N3_19 
REMARK    3  A    between atoms: N3_19  and  C14_20 
ROOT
HETATM    1  C1  UNL     1      22.899   1.523  51.075  1.00  0.00     0.161 C 
HETATM    2  N1  UNL     1      23.564   0.776  52.126  1.00  0.00    -0.301 N 
HETATM    3  C2  UNL     1      24.913   0.718  52.243  1.00  0.00     0.260 A 
HETATM    4  O1  UNL     1      25.614   1.338  51.407  1.00  0.00    -0.267 OA
HETATM    5  C3  UNL     1      25.552   0.010  53.240  1.00  0.00     0.047 A 
HETATM    6  C10 UNL     1      24.757  -0.677  54.165  1.00  0.00     0.034 A 
HETATM    7  C11 UNL     1      23.381  -0.592  54.009  1.00  0.00     0.030 A 
HETATM    8  C12 UNL     1      22.589  -1.264  54.915  1.00  0.00     0.151 A 
HETATM    9  N2  UNL     1      21.246  -1.245  54.852  1.00  0.00    -0.074 NA
HETATM   10  C13 UNL     1      20.679  -0.538  53.861  1.00  0.00     0.728 A 
HETATM   11  N4  UNL     1      21.419   0.131  52.957  1.00  0.00    -0.044 NA
HETATM   12  C20 UNL     1      22.769   0.127  52.999  1.00  0.00     0.163 A 
ENDROOT
BRANCH  10  13
HETATM   13  N3  UNL     1      19.263  -0.508  53.787  1.00  0.00    -0.188 N 
HETATM   14  H9  UNL     1      19.104   0.468  54.106  1.00  0.00     0.184 HD
BRANCH  13  15
HETATM   15  C14 UNL     1      18.210  -1.397  53.425  1.00  0.00     0.049 A 
HETATM   16  C15 UNL     1      17.226  -0.909  52.618  1.00  0.00     0.033 A 
HETATM   17  C16 UNL     1      16.230  -1.798  52.297  1.00  0.00     0.044 A 
HETATM   18  C17 UNL     1      16.224  -3.095  52.753  1.00  0.00     0.116 A 
HETATM   19  F1  UNL     1      15.176  -3.892  52.366  1.00  0.00    -0.206 F 
HETATM   20  C18 UNL     1      17.231  -3.576  53.572  1.00  0.00     0.044 A 
HETATM   21  C19 UNL     1      18.241  -2.684  53.903  1.00  0.00     0.033 A 
ENDBRANCH  13  15
ENDBRANCH  10  13
BRANCH   5  22
HETATM   22  C4  UNL     1      27.013  -0.045  53.357  1.00  0.00     0.023 A 
HETATM   23  C5  UNL     1      27.641  -1.209  52.956  1.00  0.00     0.046 A 
HETATM   24 CL1  UNL     1      26.790  -2.611  52.320  1.00  0.00    -0.083 Cl
HETATM   25  C6  UNL     1      29.011  -1.214  53.084  1.00  0.00     0.025 A 
HETATM   26  C7  UNL     1      29.801  -0.206  53.558  1.00  0.00     0.003 A 
HETATM   27  C8  UNL     1      29.115   0.937  53.946  1.00  0.00     0.025 A 
HETATM   28  C9  UNL     1      27.734   1.022  53.847  1.00  0.00     0.046 A 
HETATM   29 CL2  UNL     1      26.906   2.481  54.347  1.00  0.00    -0.083 Cl
ENDBRANCH   5  22
TORSDOF 3
ENDMDL
MODEL 2
REMARK VINA RESULT:     -10.1      0.046      1.716
REMARK  3 active torsions:
REMARK  status: ('A' for Active; 'I' for Inactive)
REMARK    1  A    between atoms: C3_5  and  C4_6 
REMARK    2  A    between atoms: C13_18  and  N3_19 
REMARK    3  A    between atoms: N3_19  and  C14_20 
ROOT
HETATM    1  C1  UNL     1      22.916   1.520  51.076  1.00  0.00     0.161 C 
HETATM    2  N1  UNL     1      23.578   0.766  52.124  1.00  0.00    -0.301 N 
HETATM    3  C2  UNL     1      24.926   0.701  52.240  1.00  0.00     0.260 A 
HETATM    4  O1  UNL     1      25.630   1.319  51.406  1.00  0.00    -0.267 OA
HETATM    5  C3  UNL     1      25.562  -0.014  53.234  1.00  0.00     0.047 A 
HETATM    6  C10 UNL     1      24.764  -0.698  54.158  1.00  0.00     0.034 A 
HETATM    7  C11 UNL     1      23.388  -0.605  54.004  1.00  0.00     0.030 A 
HETATM    8  C12 UNL     1      22.592  -1.276  54.908  1.00  0.00     0.151 A 
HETATM    9  N2  UNL     1      21.249  -1.249  54.846  1.00  0.00    -0.074 NA
HETATM   10  C13 UNL     1      20.686  -0.536  53.858  1.00  0.00     0.728 A 
HETATM   11  N4  UNL     1      21.430   0.132  52.955  1.00  0.00    -0.044 NA
HETATM   12  C20 UNL     1      22.780   0.119  52.996  1.00  0.00     0.163 A 
ENDROOT
BRANCH  10  13
HETATM   13  N3  UNL     1      19.270  -0.498  53.784  1.00  0.00    -0.188 N 
HETATM   14  H9  UNL     1      19.117   0.477  54.109  1.00  0.00     0.184 HD
BRANCH  13  15
HETATM   15  C14 UNL     1      18.213  -1.379  53.418  1.00  0.00     0.049 A 
HETATM   16  C15 UNL     1      17.231  -0.882  52.614  1.00  0.00     0.033 A 
HETATM   17  C16 UNL     1      16.230  -1.764  52.288  1.00  0.00     0.044 A 
HETATM   18  C17 UNL     1      16.216  -3.063  52.739  1.00  0.00     0.116 A 
HETATM   19  F1  UNL     1      15.164  -3.852  52.348  1.00  0.00    -0.206 F 
HETATM   20  C18 UNL     1      17.221  -3.554  53.556  1.00  0.00     0.044 A 
HETATM   21  C19 UNL     1      18.236  -2.669  53.891  1.00  0.00     0.033 A 
ENDBRANCH  13  15
ENDBRANCH  10  13
BRANCH   5  22
HETATM   22  C4  UNL     1      27.022  -0.077  53.351  1.00  0.00     0.023 A 
HETATM   23  C5  UNL     1      27.670   1.040  53.845  1.00  0.00     0.046 A 
HETATM   24 CL1  UNL     1      26.844   2.514  54.336  1.00  0.00    -0.083 Cl
HETATM   25  C6  UNL     1      29.039   0.936  53.937  1.00  0.00     0.025 A 
HETATM   26  C7  UNL     1      29.811  -0.138  53.596  1.00  0.00     0.003 A 
HETATM   27  C8  UNL     1      29.105  -1.229  53.105  1.00  0.00     0.025 A 
HETATM   28  C9  UNL     1      27.724  -1.203  52.983  1.00  0.00     0.046 A 
HETATM   29 CL2  UNL     1      26.872  -2.599  52.360  1.00  0.00    -0.083 Cl
ENDBRANCH   5  22
TORSDOF 3
ENDMDL
MODEL 3
REMARK VINA RESULT:      -9.7      1.422      2.855
REMARK  3 active torsions:
REMARK  status: ('A' for Active; 'I' for Inactive)
REMARK    1  A    between atoms: C3_5  and  C4_6 
REMARK    2  A    between atoms: C13_18  and  N3_19 
REMARK    3  A    between atoms: N3_19  and  C14_20 
ROOT
HETATM    1  C1  UNL     1      22.835  -1.151  55.239  1.00  0.00     0.161 C 
HETATM    2  N1  UNL     1      23.686  -0.552  54.230  1.00  0.00    -0.301 N 
HETATM    3  C2  UNL     1      25.039  -0.612  54.282  1.00  0.00     0.260 A 
HETATM    4  O1  UNL     1      25.575  -1.212  55.244  1.00  0.00    -0.267 OA
HETATM    5  C3  UNL     1      25.854  -0.044  53.325  1.00  0.00     0.047 A 
HETATM    6  C10 UNL     1      25.241   0.622  52.257  1.00  0.00     0.034 A 
HETATM    7  C11 UNL     1      23.855   0.661  52.242  1.00  0.00     0.030 A 
HETATM    8  C12 UNL     1      23.241   1.314  51.195  1.00  0.00     0.151 A 
HETATM    9  N2  UNL     1      21.904   1.407  51.087  1.00  0.00    -0.074 NA
HETATM   10  C13 UNL     1      21.160   0.834  52.047  1.00  0.00     0.728 A 
HETATM   11  N4  UNL     1      21.723   0.188  53.086  1.00  0.00    -0.044 NA
HETATM   12  C20 UNL     1      23.064   0.082  53.216  1.00  0.00     0.163 A 
ENDROOT
BRANCH  10  13
HETATM   13  N3  UNL     1      19.749   0.924  51.943  1.00  0.00    -0.188 N 
HETATM   14  H9  UNL     1      19.668   1.935  51.713  1.00  0.00     0.184 HD
BRANCH  13  15
HETATM   15  C14 UNL     1      18.628   0.056  52.069  1.00  0.00     0.049 A 
HETATM   16  C15 UNL     1      17.644   0.159  51.132  1.00  0.00     0.033 A 
HETATM   17  C16 UNL     1      16.581  -0.695  51.293  1.00  0.00     0.044 A 
HETATM   18  C17 UNL     1      16.510  -1.596  52.329  1.00  0.00     0.116 A 
HETATM   19  F1  UNL     1      15.398  -2.399  52.388  1.00  0.00    -0.206 F 
HETATM   20  C18 UNL     1      17.517  -1.690  53.274  1.00  0.00     0.044 A 
HETATM   21  C19 UNL     1      18.595  -0.830  53.118  1.00  0.00     0.033 A 
ENDBRANCH  13  15
ENDBRANCH  10  13
BRANCH   5  22
HETATM   22  C4  UNL     1      27.318  -0.116  53.391  1.00  0.00     0.023 A 
HETATM   23  C5  UNL     1      27.992   1.012  53.820  1.00  0.00     0.046 A 
HETATM   24 CL1  UNL     1      27.196   2.510  54.287  1.00  0.00    -0.083 Cl
HETATM   25  C6  UNL     1      29.362   0.898  53.867  1.00  0.00     0.025 A 
HETATM   26  C7  UNL     1      30.113  -0.195  53.538  1.00  0.00     0.003 A 
HETATM   27  C8  UNL     1      29.381  -1.296  53.113  1.00  0.00     0.025 A 
HETATM   28  C9  UNL     1      27.996  -1.262  53.039  1.00  0.00     0.046 A 
HETATM   29 CL2  UNL     1      27.111  -2.671  52.499  1.00  0.00    -0.083 Cl
ENDBRANCH   5  22
TORSDOF 3
ENDMDL
MODEL 4
REMARK VINA RESULT:      -9.5      1.385      2.411
REMARK  3 active torsions:
REMARK  status: ('A' for Active; 'I' for Inactive)
REMARK    1  A    between atoms: C3_5  and  C4_6 
REMARK    2  A    between atoms: C13_18  and  N3_19 
REMARK    3  A    between atoms: N3_19  and  C14_20 
ROOT
HETATM    1  C1  UNL     1      23.633   1.952  50.816  1.00  0.00     0.161 C 
HETATM    2  N1  UNL     1      24.158   1.108  51.872  1.00  0.00    -0.301 N 
HETATM    3  C2  UNL     1      25.485   0.906  52.058  1.00  0.00     0.260 A 
HETATM    4  O1  UNL     1      26.291   1.474  51.284  1.00  0.00    -0.267 OA
HETATM    5  C3  UNL     1      25.990   0.105  53.061  1.00  0.00     0.047 A 
HETATM    6  C10 UNL     1      25.078  -0.522  53.918  1.00  0.00     0.034 A 
HETATM    7  C11 UNL     1      23.729  -0.289  53.693  1.00  0.00     0.030 A 
HETATM    8  C12 UNL     1      22.822  -0.902  54.531  1.00  0.00     0.151 A 
HETATM    9  N2  UNL     1      21.494  -0.740  54.397  1.00  0.00    -0.074 NA
HETATM   10  C13 UNL     1      21.059   0.052  53.404  1.00  0.00     0.728 A 
HETATM   11  N4  UNL     1      21.914   0.667  52.565  1.00  0.00    -0.044 NA
HETATM   12  C20 UNL     1      23.252   0.520  52.678  1.00  0.00     0.163 A 
ENDROOT
BRANCH  10  13
HETATM   13  N3  UNL     1      19.660   0.231  53.256  1.00  0.00    -0.188 N 
HETATM   14  H9  UNL     1      19.450   0.642  54.187  1.00  0.00     0.184 HD
BRANCH  13  15
HETATM   15  C14 UNL     1      18.670  -0.001  52.259  1.00  0.00     0.049 A 
HETATM   16  C15 UNL     1      18.856   0.581  51.041  1.00  0.00     0.033 A 
HETATM   17  C16 UNL     1      17.877   0.333  50.111  1.00  0.00     0.044 A 
HETATM   18  C17 UNL     1      16.781  -0.451  50.385  1.00  0.00     0.116 A 
HETATM   19  F1  UNL     1      15.867  -0.628  49.377  1.00  0.00    -0.206 F 
HETATM   20  C18 UNL     1      16.606  -1.036  51.628  1.00  0.00     0.044 A 
HETATM   21  C19 UNL     1      17.590  -0.790  52.574  1.00  0.00     0.033 A 
ENDBRANCH  13  15
ENDBRANCH  10  13
BRANCH   5  22
HETATM   22  C4  UNL     1      27.429  -0.105  53.254  1.00  0.00     0.023 A 
HETATM   23  C5  UNL     1      28.170   0.960  53.730  1.00  0.00     0.046 A 
HETATM   24 CL1  UNL     1      27.485   2.535  54.113  1.00  0.00    -0.083 Cl
HETATM   25  C6  UNL     1      29.514   0.717  53.895  1.00  0.00     0.025 A 
HETATM   26  C7  UNL     1      30.180  -0.448  53.642  1.00  0.00     0.003 A 
HETATM   27  C8  UNL     1      29.385  -1.481  53.165  1.00  0.00     0.025 A 
HETATM   28  C9  UNL     1      28.021  -1.316  52.972  1.00  0.00     0.046 A 
HETATM   29 CL2  UNL     1      27.053  -2.644  52.370  1.00  0.00    -0.083 Cl
ENDBRANCH   5  22
TORSDOF 3
ENDMDL
MODEL 5
REMARK VINA RESULT:      -9.0      7.516     11.202
REMARK  3 active torsions:
REMARK  status: ('A' for Active; 'I' for Inactive)
REMARK    1  A    between atoms: C3_5  and  C4_6 
REMARK    2  A    between atoms: C13_18  and  N3_19 
REMARK    3  A    between atoms: N3_19  and  C14_20 
ROOT
HETATM    1  C1  UNL     1      23.892   7.037  50.805  1.00  0.00     0.161 C 
HETATM    2  N1  UNL     1      24.406   5.692  50.629  1.00  0.00    -0.301 N 
HETATM    3  C2  UNL     1      23.805   4.602  51.165  1.00  0.00     0.260 A 
HETATM    4  O1  UNL     1      22.760   4.765  51.840  1.00  0.00    -0.267 OA
HETATM    5  C3  UNL     1      24.288   3.320  51.001  1.00  0.00     0.047 A 
HETATM    6  C10 UNL     1      25.454   3.154  50.245  1.00  0.00     0.034 A 
HETATM    7  C11 UNL     1      26.038   4.296  49.715  1.00  0.00     0.030 A 
HETATM    8  C12 UNL     1      27.187   4.143  48.968  1.00  0.00     0.151 A 
HETATM    9  N2  UNL     1      27.828   5.186  48.411  1.00  0.00    -0.074 NA
HETATM   10  C13 UNL     1      27.311   6.410  48.603  1.00  0.00     0.728 A 
HETATM   11  N4  UNL     1      26.191   6.599  49.327  1.00  0.00    -0.044 NA
HETATM   12  C20 UNL     1      25.530   5.568  49.896  1.00  0.00     0.163 A 
ENDROOT
BRANCH  10  13
HETATM   13  N3  UNL     1      27.979   7.516  48.018  1.00  0.00    -0.188 N 
HETATM   14  H9  UNL     1      27.741   7.340  47.022  1.00  0.00     0.184 HD
BRANCH  13  15
HETATM   15  C14 UNL     1      28.766   8.619  48.454  1.00  0.00     0.049 A 
HETATM   16  C15 UNL     1      28.188   9.853  48.430  1.00  0.00     0.033 A 
HETATM   17  C16 UNL     1      28.984  10.888  48.856  1.00  0.00     0.044 A 
HETATM   18  C17 UNL     1      30.277  10.697  49.280  1.00  0.00     0.116 A 
HETATM   19  F1  UNL     1      30.977  11.807  49.683  1.00  0.00    -0.206 F 
HETATM   20  C18 UNL     1      30.852   9.437  49.299  1.00  0.00     0.044 A 
HETATM   21  C19 UNL     1      30.055   8.386  48.869  1.00  0.00     0.033 A 
ENDBRANCH  13  15
ENDBRANCH  10  13
BRANCH   5  22
HETATM   22  C4  UNL     1      23.628   2.148  51.584  1.00  0.00     0.023 A 
HETATM   23  C5  UNL     1      24.075   1.714  52.818  1.00  0.00     0.046 A 
HETATM   24 CL1  UNL     1      25.377   2.487  53.715  1.00  0.00    -0.083 Cl
HETATM   25  C6  UNL     1      23.427   0.612  53.327  1.00  0.00     0.025 A 
HETATM   26  C7  UNL     1      22.406  -0.087  52.748  1.00  0.00     0.003 A 
HETATM   27  C8  UNL     1      22.001   0.394  51.510  1.00  0.00     0.025 A 
HETATM   28  C9  UNL     1      22.603   1.501  50.930  1.00  0.00     0.046 A 
HETATM   29 CL2  UNL     1      22.063   2.076  49.368  1.00  0.00    -0.083 Cl
ENDBRANCH   5  22
TORSDOF 3
ENDMDL
MODEL 6
REMARK VINA RESULT:      -8.8      4.488      6.381
REMARK  3 active torsions:
REMARK  status: ('A' for Active; 'I' for Inactive)
REMARK    1  A    between atoms: C3_5  and  C4_6 
REMARK    2  A    between atoms: C13_18  and  N3_19 
REMARK    3  A    between atoms: N3_19  and  C14_20 
ROOT
HETATM    1  C1  UNL     1      22.861   1.060  53.260  1.00  0.00     0.161 C 
HETATM    2  N1  UNL     1      24.150   1.255  52.625  1.00  0.00    -0.301 N 
HETATM    3  C2  UNL     1      25.280   0.641  53.055  1.00  0.00     0.260 A 
HETATM    4  O1  UNL     1      25.204  -0.128  54.044  1.00  0.00    -0.267 OA
HETATM    5  C3  UNL     1      26.509   0.822  52.456  1.00  0.00     0.047 A 
HETATM    6  C10 UNL     1      26.577   1.682  51.354  1.00  0.00     0.034 A 
HETATM    7  C11 UNL     1      25.399   2.290  50.947  1.00  0.00     0.030 A 
HETATM    8  C12 UNL     1      25.455   3.140  49.862  1.00  0.00     0.151 A 
HETATM    9  N2  UNL     1      24.370   3.777  49.388  1.00  0.00    -0.074 NA
HETATM   10  C13 UNL     1      23.200   3.562  50.011  1.00  0.00     0.728 A 
HETATM   11  N4  UNL     1      23.105   2.740  51.073  1.00  0.00    -0.044 NA
HETATM   12  C20 UNL     1      24.181   2.089  51.568  1.00  0.00     0.163 A 
ENDROOT
BRANCH  10  13
HETATM   13  N3  UNL     1      22.048   4.227  49.518  1.00  0.00    -0.188 N 
HETATM   14  H9  UNL     1      21.665   3.467  48.922  1.00  0.00     0.184 HD
BRANCH  13  15
HETATM   15  C14 UNL     1      21.431   5.503  49.657  1.00  0.00     0.049 A 
HETATM   16  C15 UNL     1      22.081   6.437  50.406  1.00  0.00     0.033 A 
HETATM   17  C16 UNL     1      21.449   7.652  50.516  1.00  0.00     0.044 A 
HETATM   18  C17 UNL     1      20.243   7.912  49.911  1.00  0.00     0.116 A 
HETATM   19  F1  UNL     1      19.707   9.162  50.091  1.00  0.00    -0.206 F 
HETATM   20  C18 UNL     1      19.594   6.953  49.153  1.00  0.00     0.044 A 
HETATM   21  C19 UNL     1      20.225   5.722  49.037  1.00  0.00     0.033 A 
ENDBRANCH  13  15
ENDBRANCH  10  13
BRANCH   5  22
HETATM   22  C4  UNL     1      27.724   0.152  52.929  1.00  0.00     0.023 A 
HETATM   23  C5  UNL     1      27.815  -1.214  52.735  1.00  0.00     0.046 A 
HETATM   24 CL1  UNL     1      26.564  -2.177  51.958  1.00  0.00    -0.083 Cl
HETATM   25  C6  UNL     1      28.972  -1.800  53.194  1.00  0.00     0.025 A 
HETATM   26  C7  UNL     1      30.022  -1.183  53.812  1.00  0.00     0.003 A 
HETATM   27  C8  UNL     1      29.874   0.187  53.980  1.00  0.00     0.025 A 
HETATM   28  C9  UNL     1      28.738   0.853  53.544  1.00  0.00     0.046 A 
HETATM   29 CL2  UNL     1      28.590   2.581  53.775  1.00  0.00    -0.083 Cl
ENDBRANCH   5  22
TORSDOF 3
ENDMDL
MODEL 7
REMARK VINA RESULT:      -8.7      6.505      9.720
REMARK  3 active torsions:
REMARK  status: ('A' for Active; 'I' for Inactive)
REMARK    1  A    between atoms: C3_5  and  C4_6 
REMARK    2  A    between atoms: C13_18  and  N3_19 
REMARK    3  A    between atoms: N3_19  and  C14_20 
ROOT
HETATM    1  C1  UNL     1      22.638   4.653  52.270  1.00  0.00     0.161 C 
HETATM    2  N1  UNL     1      23.500   4.923  51.136  1.00  0.00    -0.301 N 
HETATM    3  C2  UNL     1      23.264   5.928  50.258  1.00  0.00     0.260 A 
HETATM    4  O1  UNL     1      22.257   6.655  50.437  1.00  0.00    -0.267 OA
HETATM    5  C3  UNL     1      24.080   6.190  49.177  1.00  0.00     0.047 A 
HETATM    6  C10 UNL     1      25.199   5.371  48.991  1.00  0.00     0.034 A 
HETATM    7  C11 UNL     1      25.404   4.353  49.911  1.00  0.00     0.030 A 
HETATM    8  C12 UNL     1      26.504   3.540  49.737  1.00  0.00     0.151 A 
HETATM    9  N2  UNL     1      26.792   2.528  50.574  1.00  0.00    -0.074 NA
HETATM   10  C13 UNL     1      25.963   2.320  51.610  1.00  0.00     0.728 A 
HETATM   11  N4  UNL     1      24.878   3.093  51.812  1.00  0.00    -0.044 NA
HETATM   12  C20 UNL     1      24.568   4.115  50.986  1.00  0.00     0.163 A 
ENDROOT
BRANCH  10  13
HETATM   13  N3  UNL     1      26.258   1.256  52.500  1.00  0.00    -0.188 N 
HETATM   14  H9  UNL     1      25.300   1.078  52.861  1.00  0.00     0.184 HD
BRANCH  13  15
HETATM   15  C14 UNL     1      27.404   0.522  52.917  1.00  0.00     0.049 A 
HETATM   16  C15 UNL     1      28.450   1.228  53.433  1.00  0.00     0.033 A 
HETATM   17  C16 UNL     1      29.535   0.480  53.819  1.00  0.00     0.044 A 
HETATM   18  C17 UNL     1      29.568  -0.889  53.697  1.00  0.00     0.116 A 
HETATM   19  F1  UNL     1      30.707  -1.529  54.116  1.00  0.00    -0.206 F 
HETATM   20  C18 UNL     1      28.499  -1.593  53.170  1.00  0.00     0.044 A 
HETATM   21  C19 UNL     1      27.398  -0.845  52.776  1.00  0.00     0.033 A 
ENDBRANCH  13  15
ENDBRANCH  10  13
BRANCH   5  22
HETATM   22  C4  UNL     1      23.815   7.282  48.234  1.00  0.00     0.023 A 
HETATM   23  C5  UNL     1      24.353   8.521  48.527  1.00  0.00     0.046 A 
HETATM   24 CL1  UNL     1      25.328   8.852  49.955  1.00  0.00    -0.083 Cl
HETATM   25  C6  UNL     1      24.079   9.514  47.615  1.00  0.00     0.025 A 
HETATM   26  C7  UNL     1      23.344   9.404  46.470  1.00  0.00     0.003 A 
HETATM   27  C8  UNL     1      22.828   8.138  46.229  1.00  0.00     0.025 A 
HETATM   28  C9  UNL     1      23.060   7.083  47.100  1.00  0.00     0.046 A 
HETATM   29 CL2  UNL     1      22.393   5.501  46.759  1.00  0.00    -0.083 Cl
ENDBRANCH   5  22
TORSDOF 3
ENDMDL
MODEL 8
REMARK VINA RESULT:      -8.6      5.148      8.747
REMARK  3 active torsions:
REMARK  status: ('A' for Active; 'I' for Inactive)
REMARK    1  A    between atoms: C3_5  and  C4_6 
REMARK    2  A    between atoms: C13_18  and  N3_19 
REMARK    3  A    between atoms: N3_19  and  C14_20 
ROOT
HETATM    1  C1  UNL     1      26.299   3.461  50.247  1.00  0.00     0.161 C 
HETATM    2  N1  UNL     1      24.855   3.331  50.285  1.00  0.00    -0.301 N 
HETATM    3  C2  UNL     1      24.028   4.137  49.577  1.00  0.00     0.260 A 
HETATM    4  O1  UNL     1      24.534   5.033  48.859  1.00  0.00    -0.267 OA
HETATM    5  C3  UNL     1      22.654   4.019  49.608  1.00  0.00     0.047 A 
HETATM    6  C10 UNL     1      22.103   3.015  50.413  1.00  0.00     0.034 A 
HETATM    7  C11 UNL     1      22.985   2.212  51.121  1.00  0.00     0.030 A 
HETATM    8  C12 UNL     1      22.454   1.219  51.918  1.00  0.00     0.151 A 
HETATM    9  N2  UNL     1      23.222   0.388  52.643  1.00  0.00    -0.074 NA
HETATM   10  C13 UNL     1      24.553   0.549  52.572  1.00  0.00     0.728 A 
HETATM   11  N4  UNL     1      25.110   1.507  51.806  1.00  0.00    -0.044 NA
HETATM   12  C20 UNL     1      24.359   2.355  51.070  1.00  0.00     0.163 A 
ENDROOT
BRANCH  10  13
HETATM   13  N3  UNL     1      25.373  -0.325  53.331  1.00  0.00    -0.188 N 
HETATM   14  H9  UNL     1      24.629  -0.868  53.812  1.00  0.00     0.184 HD
BRANCH  13  15
HETATM   15  C14 UNL     1      26.765  -0.556  53.526  1.00  0.00     0.049 A 
HETATM   16  C15 UNL     1      27.339  -1.566  52.812  1.00  0.00     0.033 A 
HETATM   17  C16 UNL     1      28.681  -1.756  53.033  1.00  0.00     0.044 A 
HETATM   18  C17 UNL     1      29.401  -0.982  53.912  1.00  0.00     0.116 A 
HETATM   19  F1  UNL     1      30.737  -1.265  54.049  1.00  0.00    -0.206 F 
HETATM   20  C18 UNL     1      28.804   0.040  54.630  1.00  0.00     0.044 A 
HETATM   21  C19 UNL     1      27.447   0.239  54.414  1.00  0.00     0.033 A 
ENDBRANCH  13  15
ENDBRANCH  10  13
BRANCH   5  22
HETATM   22  C4  UNL     1      21.768   4.897  48.837  1.00  0.00     0.023 A 
HETATM   23  C5  UNL     1      21.452   4.510  47.548  1.00  0.00     0.046 A 
HETATM   24 CL1  UNL     1      22.049   3.035  46.795  1.00  0.00    -0.083 Cl
HETATM   25  C6  UNL     1      20.619   5.363  46.863  1.00  0.00     0.025 A 
HETATM   26  C7  UNL     1      20.081   6.534  47.315  1.00  0.00     0.003 A 
HETATM   27  C8  UNL     1      20.434   6.872  48.615  1.00  0.00     0.025 A 
HETATM   28  C9  UNL     1      21.269   6.064  49.373  1.00  0.00     0.046 A 
HETATM   29 CL2  UNL     1      21.690   6.525  51.007  1.00  0.00    -0.083 Cl
ENDBRANCH   5  22
TORSDOF 3
ENDMDL
MODEL 9
REMARK VINA RESULT:      -8.5      4.629      5.798
REMARK  3 active torsions:
REMARK  status: ('A' for Active; 'I' for Inactive)
REMARK    1  A    between atoms: C3_5  and  C4_6 
REMARK    2  A    between atoms: C13_18  and  N3_19 
REMARK    3  A    between atoms: N3_19  and  C14_20 
ROOT
HETATM    1  C1  UNL     1      21.956   4.738  52.388  1.00  0.00     0.161 C 
HETATM    2  N1  UNL     1      22.543   4.431  51.098  1.00  0.00    -0.301 N 
HETATM    3  C2  UNL     1      23.654   5.051  50.632  1.00  0.00     0.260 A 
HETATM    4  O1  UNL     1      24.197   5.926  51.349  1.00  0.00    -0.267 OA
HETATM    5  C3  UNL     1      24.218   4.764  49.406  1.00  0.00     0.047 A 
HETATM    6  C10 UNL     1      23.602   3.786  48.618  1.00  0.00     0.034 A 
HETATM    7  C11 UNL     1      22.467   3.176  49.131  1.00  0.00     0.030 A 
HETATM    8  C12 UNL     1      21.852   2.210  48.363  1.00  0.00     0.151 A 
HETATM    9  N2  UNL     1      20.748   1.559  48.770  1.00  0.00    -0.074 NA
HETATM   10  C13 UNL     1      20.244   1.879  49.973  1.00  0.00     0.728 A 
HETATM   11  N4  UNL     1      20.816   2.817  50.752  1.00  0.00    -0.044 NA
HETATM   12  C20 UNL     1      21.925   3.485  50.365  1.00  0.00     0.163 A 
ENDROOT
BRANCH  10  13
HETATM   13  N3  UNL     1      19.081   1.197  50.413  1.00  0.00    -0.188 N 
HETATM   14  H9  UNL     1      18.392   1.612  49.756  1.00  0.00     0.184 HD
BRANCH  13  15
HETATM   15  C14 UNL     1      18.740   0.231  51.402  1.00  0.00     0.049 A 
HETATM   16  C15 UNL     1      17.508  -0.346  51.318  1.00  0.00     0.033 A 
HETATM   17  C16 UNL     1      17.219  -1.269  52.293  1.00  0.00     0.044 A 
HETATM   18  C17 UNL     1      18.110  -1.593  53.288  1.00  0.00     0.116 A 
HETATM   19  F1  UNL     1      17.711  -2.530  54.208  1.00  0.00    -0.206 F 
HETATM   20  C18 UNL     1      19.358  -0.998  53.361  1.00  0.00     0.044 A 
HETATM   21  C19 UNL     1      19.658  -0.064  52.380  1.00  0.00     0.033 A 
ENDBRANCH  13  15
ENDBRANCH  10  13
BRANCH   5  22
HETATM   22  C4  UNL     1      25.422   5.441  48.913  1.00  0.00     0.023 A 
HETATM   23  C5  UNL     1      26.628   4.783  49.060  1.00  0.00     0.046 A 
HETATM   24 CL1  UNL     1      26.792   3.193  49.797  1.00  0.00    -0.083 Cl
HETATM   25  C6  UNL     1      27.730   5.455  48.583  1.00  0.00     0.025 A 
HETATM   26  C7  UNL     1      27.754   6.685  47.990  1.00  0.00     0.003 A 
HETATM   27  C8  UNL     1      26.514   7.298  47.871  1.00  0.00     0.025 A 
HETATM   28  C9  UNL     1      25.356   6.686  48.326  1.00  0.00     0.046 A 
HETATM   29 CL2  UNL     1      23.812   7.492  48.157  1.00  0.00    -0.083 Cl
ENDBRANCH   5  22
TORSDOF 3
ENDMDL
