MODEL 1
REMARK VINA RESULT:      -8.7      0.000      0.000
REMARK  2 active torsions:
REMARK  status: ('A' for Active; 'I' for Inactive)
REMARK    1  A    between atoms: C14_16  and  N3_17 
REMARK    2  A    between atoms: N3_17  and  S1_18 
ROOT
HETATM    1  C1  UNL     1      19.790   4.207  50.831  1.00  0.00     0.023 C 
HETATM    2  C2  UNL     1      21.136   4.177  51.510  1.00  0.00     0.081 C 
HETATM    3  C3  UNL     1      21.794   5.448  51.423  1.00  0.00    -0.014 C 
HETATM    4  C4  UNL     1      22.469   6.614  51.319  1.00  0.00    -0.005 C 
HETATM    5  C5  UNL     1      23.860   7.064  50.912  1.00  0.00     0.000 C 
HETATM    6  C6  UNL     1      25.083   6.665  50.477  1.00  0.00     0.132 C 
HETATM    7  N1  UNL     1      25.705   5.374  50.153  1.00  0.00    -0.363 N 
HETATM    8  C7  UNL     1      25.597   3.899  50.126  1.00  0.00     0.140 C 
HETATM    9  C8  UNL     1      26.406   3.272  50.926  1.00  0.00     0.134 C 
HETATM   10  N2  UNL     1      26.683   1.936  51.260  1.00  0.00    -0.385 N 
HETATM   11  C9  UNL     1      25.733   0.952  51.833  1.00  0.00     0.138 C 
HETATM   12  C10 UNL     1      24.423   1.484  51.385  1.00  0.00     0.096 C 
HETATM   13  C11 UNL     1      23.183   1.099  52.100  1.00  0.00     0.057 C 
HETATM   14  C12 UNL     1      23.319   0.375  53.201  1.00  0.00     0.035 C 
HETATM   15  C13 UNL     1      24.649   0.294  53.797  1.00  0.00     0.030 C 
HETATM   16  C14 UNL     1      25.729   0.908  53.290  1.00  0.00     0.042 C 
HETATM   17  O3  UNL     1      22.040   1.611  51.422  1.00  0.00    -0.299 OA
HETATM   18  C16 UNL     1      21.906   2.960  51.093  1.00  0.00     0.154 C 
HETATM   19  N4  UNL     1      22.744   2.924  50.182  1.00  0.00    -0.221 NA
HETATM   20  C17 UNL     1      23.358   3.681  49.236  1.00  0.00     0.237 C 
HETATM   21  N5  UNL     1      24.580   4.128  49.161  1.00  0.00    -0.223 NA
HETATM   22  H9  UNL     1      26.675   5.622  49.777  1.00  0.00     0.162 HD
HETATM   23  H11 UNL     1      27.672   1.581  51.089  1.00  0.00     0.159 HD
ENDROOT
BRANCH  16  24
HETATM   24  N3  UNL     1      26.653   1.389  54.290  1.00  0.00    -0.287 N 
HETATM   25  H17 UNL     1      26.253   1.935  55.107  1.00  0.00     0.178 HD
BRANCH  24  26
HETATM   26  S1  UNL     1      28.301   1.020  54.036  1.00  0.00     0.227 S 
HETATM   27  C15 UNL     1      28.579  -0.656  53.524  1.00  0.00     0.186 C 
HETATM   28  O1  UNL     1      29.037   1.182  55.346  1.00  0.00    -0.206 OA
HETATM   29  O2  UNL     1      28.967   1.918  53.065  1.00  0.00    -0.206 OA
ENDBRANCH  24  26
ENDBRANCH  16  24
TORSDOF 2
ENDMDL
MODEL 2
REMARK VINA RESULT:      -7.9      2.375      4.223
REMARK  2 active torsions:
REMARK  status: ('A' for Active; 'I' for Inactive)
REMARK    1  A    between atoms: C14_16  and  N3_17 
REMARK    2  A    between atoms: N3_17  and  S1_18 
ROOT
HETATM    1  C1  UNL     1      21.742   5.286  47.855  1.00  0.00     0.023 C 
HETATM    2  C2  UNL     1      22.207   3.989  48.465  1.00  0.00     0.081 C 
HETATM    3  C3  UNL     1      21.145   3.025  48.516  1.00  0.00    -0.014 C 
HETATM    4  C4  UNL     1      20.161   2.108  48.629  1.00  0.00    -0.005 C 
HETATM    5  C5  UNL     1      19.603   1.197  49.707  1.00  0.00     0.000 C 
HETATM    6  C6  UNL     1      19.713   0.794  50.999  1.00  0.00     0.132 C 
HETATM    7  N1  UNL     1      20.593   1.135  52.127  1.00  0.00    -0.363 N 
HETATM    8  C7  UNL     1      21.770   1.881  52.620  1.00  0.00     0.140 C 
HETATM    9  C8  UNL     1      22.772   1.143  52.996  1.00  0.00     0.134 C 
HETATM   10  N2  UNL     1      24.060   1.355  53.514  1.00  0.00    -0.385 N 
HETATM   11  C9  UNL     1      25.162   2.107  52.865  1.00  0.00     0.138 C 
HETATM   12  C10 UNL     1      24.426   3.023  51.960  1.00  0.00     0.096 C 
HETATM   13  C11 UNL     1      25.116   3.623  50.793  1.00  0.00     0.057 C 
HETATM   14  C12 UNL     1      26.350   3.211  50.541  1.00  0.00     0.035 C 
HETATM   15  C13 UNL     1      26.806   1.996  51.207  1.00  0.00     0.030 C 
HETATM   16  C14 UNL     1      26.048   1.281  52.053  1.00  0.00     0.042 C 
HETATM   17  O3  UNL     1      24.267   4.567  50.147  1.00  0.00    -0.299 OA
HETATM   18  C16 UNL     1      22.977   4.249  49.726  1.00  0.00     0.154 C 
HETATM   19  N4  UNL     1      22.501   4.224  50.869  1.00  0.00    -0.221 NA
HETATM   20  C17 UNL     1      21.355   4.019  51.569  1.00  0.00     0.237 C 
HETATM   21  N5  UNL     1      20.989   3.033  52.336  1.00  0.00    -0.223 NA
HETATM   22  H9  UNL     1      20.204   0.583  52.956  1.00  0.00     0.162 HD
HETATM   23  H11 UNL     1      24.281   0.940  54.469  1.00  0.00     0.159 HD
ENDROOT
BRANCH  16  24
HETATM   24  N3  UNL     1      26.270  -0.144  51.981  1.00  0.00    -0.287 N 
HETATM   25  H17 UNL     1      26.001  -0.638  51.082  1.00  0.00     0.178 HD
BRANCH  24  26
HETATM   26  S1  UNL     1      26.947  -0.874  53.367  1.00  0.00     0.227 S 
HETATM   27  C15 UNL     1      28.481  -0.141  53.875  1.00  0.00     0.186 C 
HETATM   28  O1  UNL     1      27.262  -2.317  53.045  1.00  0.00    -0.206 OA
HETATM   29  O2  UNL     1      26.034  -0.892  54.533  1.00  0.00    -0.206 OA
ENDBRANCH  24  26
ENDBRANCH  16  24
TORSDOF 2
ENDMDL
MODEL 3
REMARK VINA RESULT:      -7.6      3.521      6.295
REMARK  2 active torsions:
REMARK  status: ('A' for Active; 'I' for Inactive)
REMARK    1  A    between atoms: C14_16  and  N3_17 
REMARK    2  A    between atoms: N3_17  and  S1_18 
ROOT
HETATM    1  C1  UNL     1      27.352   1.947  52.336  1.00  0.00     0.023 C 
HETATM    2  C2  UNL     1      26.005   1.868  51.664  1.00  0.00     0.081 C 
HETATM    3  C3  UNL     1      25.894   2.825  50.601  1.00  0.00    -0.014 C 
HETATM    4  C4  UNL     1      25.731   3.745  49.626  1.00  0.00    -0.005 C 
HETATM    5  C5  UNL     1      24.693   4.780  49.232  1.00  0.00     0.000 C 
HETATM    6  C6  UNL     1      23.495   5.338  49.541  1.00  0.00     0.132 C 
HETATM    7  N1  UNL     1      22.493   5.137  50.598  1.00  0.00    -0.363 N 
HETATM    8  C7  UNL     1      22.043   4.356  51.770  1.00  0.00     0.140 C 
HETATM    9  C8  UNL     1      20.942   3.687  51.597  1.00  0.00     0.134 C 
HETATM   10  N2  UNL     1      20.136   2.830  52.363  1.00  0.00    -0.385 N 
HETATM   11  C9  UNL     1      20.545   1.541  52.973  1.00  0.00     0.138 C 
HETATM   12  C10 UNL     1      22.011   1.712  53.113  1.00  0.00     0.096 C 
HETATM   13  C11 UNL     1      22.887   0.523  53.239  1.00  0.00     0.057 C 
HETATM   14  C12 UNL     1      22.317  -0.666  53.100  1.00  0.00     0.035 C 
HETATM   15  C13 UNL     1      20.979  -0.711  52.522  1.00  0.00     0.030 C 
HETATM   16  C14 UNL     1      20.302   0.379  52.127  1.00  0.00     0.042 C 
HETATM   17  O3  UNL     1      24.230   0.920  53.497  1.00  0.00    -0.299 OA
HETATM   18  C16 UNL     1      24.910   1.830  52.688  1.00  0.00     0.154 C 
HETATM   19  N4  UNL     1      24.274   2.815  53.088  1.00  0.00    -0.221 NA
HETATM   20  C17 UNL     1      24.146   4.160  52.949  1.00  0.00     0.237 C 
HETATM   21  N5  UNL     1      23.210   4.874  52.392  1.00  0.00    -0.223 NA
HETATM   22  H9  UNL     1      21.760   5.897  50.430  1.00  0.00     0.162 HD
HETATM   23  H11 UNL     1      19.126   3.123  52.530  1.00  0.00     0.159 HD
ENDROOT
BRANCH  16  24
HETATM   24  N3  UNL     1      19.481   0.169  50.958  1.00  0.00    -0.287 N 
HETATM   25  H17 UNL     1      19.975   0.008  50.033  1.00  0.00     0.178 HD
BRANCH  24  26
HETATM   26  S1  UNL     1      17.792   0.206  51.204  1.00  0.00     0.227 S 
HETATM   27  C15 UNL     1      17.234  -0.925  52.452  1.00  0.00     0.186 C 
HETATM   28  O1  UNL     1      17.110  -0.219  49.924  1.00  0.00    -0.206 OA
HETATM   29  O2  UNL     1      17.270   1.552  51.532  1.00  0.00    -0.206 OA
ENDBRANCH  24  26
ENDBRANCH  16  24
TORSDOF 2
ENDMDL
MODEL 4
REMARK VINA RESULT:      -7.3      3.494      6.644
REMARK  2 active torsions:
REMARK  status: ('A' for Active; 'I' for Inactive)
REMARK    1  A    between atoms: C14_16  and  N3_17 
REMARK    2  A    between atoms: N3_17  and  S1_18 
ROOT
HETATM    1  C1  UNL     1      26.560   0.534  52.884  1.00  0.00     0.023 C 
HETATM    2  C2  UNL     1      25.487   1.031  51.948  1.00  0.00     0.081 C 
HETATM    3  C3  UNL     1      25.980   2.075  51.095  1.00  0.00    -0.014 C 
HETATM    4  C4  UNL     1      26.389   3.093  50.309  1.00  0.00    -0.005 C 
HETATM    5  C5  UNL     1      25.891   4.474  49.923  1.00  0.00     0.000 C 
HETATM    6  C6  UNL     1      24.905   5.394  50.084  1.00  0.00     0.132 C 
HETATM    7  N1  UNL     1      23.653   5.457  50.852  1.00  0.00    -0.363 N 
HETATM    8  C7  UNL     1      22.681   4.769  51.729  1.00  0.00     0.140 C 
HETATM    9  C8  UNL     1      21.508   4.574  51.205  1.00  0.00     0.134 C 
HETATM   10  N2  UNL     1      20.294   3.992  51.604  1.00  0.00    -0.385 N 
HETATM   11  C9  UNL     1      20.082   2.583  52.018  1.00  0.00     0.138 C 
HETATM   12  C10 UNL     1      21.432   2.188  52.486  1.00  0.00     0.096 C 
HETATM   13  C11 UNL     1      21.804   0.754  52.552  1.00  0.00     0.057 C 
HETATM   14  C12 UNL     1      20.933  -0.119  52.067  1.00  0.00     0.035 C 
HETATM   15  C13 UNL     1      19.855   0.395  51.229  1.00  0.00     0.030 C 
HETATM   16  C14 UNL     1      19.701   1.693  50.927  1.00  0.00     0.042 C 
HETATM   17  O3  UNL     1      23.085   0.601  53.153  1.00  0.00    -0.299 OA
HETATM   18  C16 UNL     1      24.213   1.283  52.697  1.00  0.00     0.154 C 
HETATM   19  N4  UNL     1      23.855   2.380  53.145  1.00  0.00    -0.221 NA
HETATM   20  C17 UNL     1      24.216   3.685  53.251  1.00  0.00     0.237 C 
HETATM   21  N5  UNL     1      23.747   4.750  52.667  1.00  0.00    -0.223 NA
HETATM   22  H9  UNL     1      23.281   6.446  50.690  1.00  0.00     0.162 HD
HETATM   23  H11 UNL     1      19.430   4.614  51.615  1.00  0.00     0.159 HD
ENDROOT
BRANCH  16  24
HETATM   24  N3  UNL     1      19.194   1.931  49.596  1.00  0.00    -0.287 N 
HETATM   25  H17 UNL     1      19.768   1.572  48.780  1.00  0.00     0.178 HD
BRANCH  24  26
HETATM   26  S1  UNL     1      17.713   2.774  49.493  1.00  0.00     0.227 S 
HETATM   27  C15 UNL     1      16.468   2.156  50.596  1.00  0.00     0.186 C 
HETATM   28  O1  UNL     1      17.157   2.598  48.098  1.00  0.00    -0.206 OA
HETATM   29  O2  UNL     1      17.844   4.232  49.712  1.00  0.00    -0.206 OA
ENDBRANCH  24  26
ENDBRANCH  16  24
TORSDOF 2
ENDMDL
MODEL 5
REMARK VINA RESULT:      -7.2      7.877     10.745
REMARK  2 active torsions:
REMARK  status: ('A' for Active; 'I' for Inactive)
REMARK    1  A    between atoms: C14_16  and  N3_17 
REMARK    2  A    between atoms: N3_17  and  S1_18 
ROOT
HETATM    1  C1  UNL     1      32.931   2.918  46.489  1.00  0.00     0.023 C 
HETATM    2  C2  UNL     1      32.217   4.207  46.173  1.00  0.00     0.081 C 
HETATM    3  C3  UNL     1      32.965   5.004  45.243  1.00  0.00    -0.014 C 
HETATM    4  C4  UNL     1      33.661   5.807  44.409  1.00  0.00    -0.005 C 
HETATM    5  C5  UNL     1      34.093   7.261  44.364  1.00  0.00     0.000 C 
HETATM    6  C6  UNL     1      34.063   8.458  45.004  1.00  0.00     0.132 C 
HETATM    7  N1  UNL     1      33.485   8.955  46.260  1.00  0.00    -0.363 N 
HETATM    8  C7  UNL     1      32.646   8.689  47.449  1.00  0.00     0.140 C 
HETATM    9  C8  UNL     1      31.543   9.375  47.509  1.00  0.00     0.134 C 
HETATM   10  N2  UNL     1      30.454   9.483  48.389  1.00  0.00    -0.385 N 
HETATM   11  C9  UNL     1      29.523   8.398  48.782  1.00  0.00     0.138 C 
HETATM   12  C10 UNL     1      30.345   7.184  48.562  1.00  0.00     0.096 C 
HETATM   13  C11 UNL     1      29.689   5.868  48.378  1.00  0.00     0.057 C 
HETATM   14  C12 UNL     1      28.366   5.857  48.301  1.00  0.00     0.035 C 
HETATM   15  C13 UNL     1      27.691   7.130  48.075  1.00  0.00     0.030 C 
HETATM   16  C14 UNL     1      28.335   8.300  47.943  1.00  0.00     0.042 C 
HETATM   17  O3  UNL     1      30.664   4.831  48.319  1.00  0.00    -0.299 OA
HETATM   18  C16 UNL     1      31.741   4.866  47.433  1.00  0.00     0.154 C 
HETATM   19  N4  UNL     1      32.350   5.749  48.050  1.00  0.00    -0.221 NA
HETATM   20  C17 UNL     1      33.483   6.500  48.045  1.00  0.00     0.237 C 
HETATM   21  N5  UNL     1      33.667   7.764  47.794  1.00  0.00    -0.223 NA
HETATM   22  H9  UNL     1      33.821   9.967  46.337  1.00  0.00     0.162 HD
HETATM   23  H11 UNL     1      30.267  10.437  48.824  1.00  0.00     0.159 HD
ENDROOT
BRANCH  16  24
HETATM   24  N3  UNL     1      27.717   9.207  47.005  1.00  0.00    -0.287 N 
HETATM   25  H17 UNL     1      27.603   8.876  46.004  1.00  0.00     0.178 HD
BRANCH  24  26
HETATM   26  S1  UNL     1      27.239  10.724  47.625  1.00  0.00     0.227 S 
HETATM   27  C15 UNL     1      25.968  11.511  46.669  1.00  0.00     0.186 C 
HETATM   28  O1  UNL     1      28.428  11.657  47.584  1.00  0.00    -0.206 OA
HETATM   29  O2  UNL     1      26.793  10.674  49.036  1.00  0.00    -0.206 OA
ENDBRANCH  24  26
ENDBRANCH  16  24
TORSDOF 2
ENDMDL
MODEL 6
REMARK VINA RESULT:      -7.1      3.909      6.825
REMARK  2 active torsions:
REMARK  status: ('A' for Active; 'I' for Inactive)
REMARK    1  A    between atoms: C14_16  and  N3_17 
REMARK    2  A    between atoms: N3_17  and  S1_18 
ROOT
HETATM    1  C1  UNL     1      22.162   0.122  53.941  1.00  0.00     0.023 C 
HETATM    2  C2  UNL     1      22.547   0.551  52.548  1.00  0.00     0.081 C 
HETATM    3  C3  UNL     1      23.972   0.556  52.378  1.00  0.00    -0.014 C 
HETATM    4  C4  UNL     1      25.308   0.622  52.191  1.00  0.00    -0.005 C 
HETATM    5  C5  UNL     1      26.308   1.622  51.640  1.00  0.00     0.000 C 
HETATM    6  C6  UNL     1      26.474   2.850  51.086  1.00  0.00     0.132 C 
HETATM    7  N1  UNL     1      25.579   3.953  50.707  1.00  0.00    -0.363 N 
HETATM    8  C7  UNL     1      24.196   4.456  50.566  1.00  0.00     0.140 C 
HETATM    9  C8  UNL     1      23.814   4.683  49.344  1.00  0.00     0.134 C 
HETATM   10  N2  UNL     1      22.651   5.142  48.706  1.00  0.00    -0.385 N 
HETATM   11  C9  UNL     1      21.307   4.518  48.759  1.00  0.00     0.138 C 
HETATM   12  C10 UNL     1      21.359   3.770  50.038  1.00  0.00     0.096 C 
HETATM   13  C11 UNL     1      20.430   2.639  50.274  1.00  0.00     0.057 C 
HETATM   14  C12 UNL     1      19.660   2.267  49.262  1.00  0.00     0.035 C 
HETATM   15  C13 UNL     1      20.005   2.761  47.933  1.00  0.00     0.030 C 
HETATM   16  C14 UNL     1      21.051   3.564  47.686  1.00  0.00     0.042 C 
HETATM   17  O3  UNL     1      20.562   2.158  51.608  1.00  0.00    -0.299 OA
HETATM   18  C16 UNL     1      21.791   1.783  52.151  1.00  0.00     0.154 C 
HETATM   19  N4  UNL     1      22.211   2.943  52.259  1.00  0.00    -0.221 NA
HETATM   20  C17 UNL     1      23.275   3.684  52.665  1.00  0.00     0.237 C 
HETATM   21  N5  UNL     1      24.159   4.354  51.982  1.00  0.00    -0.223 NA
HETATM   22  H9  UNL     1      26.230   4.736  50.381  1.00  0.00     0.162 HD
HETATM   23  H11 UNL     1      22.729   6.028  48.120  1.00  0.00     0.159 HD
ENDROOT
BRANCH  16  24
HETATM   24  N3  UNL     1      21.696   3.315  46.418  1.00  0.00    -0.287 N 
HETATM   25  H17 UNL     1      22.362   2.492  46.359  1.00  0.00     0.178 HD
BRANCH  24  26
HETATM   26  S1  UNL     1      21.305   4.388  45.149  1.00  0.00     0.227 S 
HETATM   27  C15 UNL     1      19.754   5.219  45.377  1.00  0.00     0.186 C 
HETATM   28  O1  UNL     1      21.166   3.592  43.872  1.00  0.00    -0.206 OA
HETATM   29  O2  UNL     1      22.345   5.411  44.896  1.00  0.00    -0.206 OA
ENDBRANCH  24  26
ENDBRANCH  16  24
TORSDOF 2
ENDMDL
MODEL 7
REMARK VINA RESULT:      -7.0      4.731      7.890
REMARK  2 active torsions:
REMARK  status: ('A' for Active; 'I' for Inactive)
REMARK    1  A    between atoms: C14_16  and  N3_17 
REMARK    2  A    between atoms: N3_17  and  S1_18 
ROOT
HETATM    1  C1  UNL     1      26.768   2.801  50.913  1.00  0.00     0.023 C 
HETATM    2  C2  UNL     1      26.322   3.370  49.590  1.00  0.00     0.081 C 
HETATM    3  C3  UNL     1      27.285   4.295  49.067  1.00  0.00    -0.014 C 
HETATM    4  C4  UNL     1      28.143   5.210  48.565  1.00  0.00    -0.005 C 
HETATM    5  C5  UNL     1      28.068   6.617  48.000  1.00  0.00     0.000 C 
HETATM    6  C6  UNL     1      27.251   7.658  47.693  1.00  0.00     0.132 C 
HETATM    7  N1  UNL     1      25.809   7.917  47.796  1.00  0.00    -0.363 N 
HETATM    8  C7  UNL     1      24.460   7.405  48.121  1.00  0.00     0.140 C 
HETATM    9  C8  UNL     1      23.643   7.324  47.114  1.00  0.00     0.134 C 
HETATM   10  N2  UNL     1      22.316   6.918  46.904  1.00  0.00    -0.385 N 
HETATM   11  C9  UNL     1      21.750   5.572  47.165  1.00  0.00     0.138 C 
HETATM   12  C10 UNL     1      22.668   5.042  48.202  1.00  0.00     0.096 C 
HETATM   13  C11 UNL     1      22.771   3.580  48.423  1.00  0.00     0.057 C 
HETATM   14  C12 UNL     1      22.111   2.794  47.586  1.00  0.00     0.035 C 
HETATM   15  C13 UNL     1      21.617   3.386  46.348  1.00  0.00     0.030 C 
HETATM   16  C14 UNL     1      21.795   4.675  46.017  1.00  0.00     0.042 C 
HETATM   17  O3  UNL     1      23.601   3.306  49.548  1.00  0.00    -0.299 OA
HETATM   18  C16 UNL     1      24.892   3.818  49.668  1.00  0.00     0.154 C 
HETATM   19  N4  UNL     1      24.520   4.975  49.906  1.00  0.00    -0.221 NA
HETATM   20  C17 UNL     1      24.965   6.230  50.175  1.00  0.00     0.237 C 
HETATM   21  N5  UNL     1      24.964   7.309  49.446  1.00  0.00    -0.223 NA
HETATM   22  H9  UNL     1      25.689   8.933  47.487  1.00  0.00     0.162 HD
HETATM   23  H11 UNL     1      21.635   7.641  46.518  1.00  0.00     0.159 HD
ENDROOT
BRANCH  16  24
HETATM   24  N3  UNL     1      21.991   4.896  44.604  1.00  0.00    -0.287 N 
HETATM   25  H17 UNL     1      22.975   5.111  44.272  1.00  0.00     0.178 HD
BRANCH  24  26
HETATM   26  S1  UNL     1      20.599   4.786  43.622  1.00  0.00     0.227 S 
HETATM   27  C15 UNL     1      19.083   5.020  44.514  1.00  0.00     0.186 C 
HETATM   28  O1  UNL     1      20.529   3.392  43.042  1.00  0.00    -0.206 OA
HETATM   29  O2  UNL     1      20.609   5.720  42.473  1.00  0.00    -0.206 OA
ENDBRANCH  24  26
ENDBRANCH  16  24
TORSDOF 2
ENDMDL
MODEL 8
REMARK VINA RESULT:      -6.9      3.982      6.460
REMARK  2 active torsions:
REMARK  status: ('A' for Active; 'I' for Inactive)
REMARK    1  A    between atoms: C14_16  and  N3_17 
REMARK    2  A    between atoms: N3_17  and  S1_18 
ROOT
HETATM    1  C1  UNL     1      20.472   1.930  48.583  1.00  0.00     0.023 C 
HETATM    2  C2  UNL     1      21.789   2.599  48.885  1.00  0.00     0.081 C 
HETATM    3  C3  UNL     1      22.483   1.929  49.947  1.00  0.00    -0.014 C 
HETATM    4  C4  UNL     1      23.145   1.358  50.976  1.00  0.00    -0.005 C 
HETATM    5  C5  UNL     1      23.821   1.813  52.257  1.00  0.00     0.000 C 
HETATM    6  C6  UNL     1      24.136   2.877  53.039  1.00  0.00     0.132 C 
HETATM    7  N1  UNL     1      23.915   4.328  52.965  1.00  0.00    -0.363 N 
HETATM    8  C7  UNL     1      23.415   5.484  52.191  1.00  0.00     0.140 C 
HETATM    9  C8  UNL     1      24.327   6.330  51.813  1.00  0.00     0.134 C 
HETATM   10  N2  UNL     1      24.369   7.532  51.089  1.00  0.00    -0.385 N 
HETATM   11  C9  UNL     1      23.937   7.735  49.685  1.00  0.00     0.138 C 
HETATM   12  C10 UNL     1      22.953   6.641  49.499  1.00  0.00     0.096 C 
HETATM   13  C11 UNL     1      22.615   6.171  48.134  1.00  0.00     0.057 C 
HETATM   14  C12 UNL     1      23.312   6.682  47.129  1.00  0.00     0.035 C 
HETATM   15  C13 UNL     1      24.543   7.396  47.453  1.00  0.00     0.030 C 
HETATM   16  C14 UNL     1      25.001   7.559  48.703  1.00  0.00     0.042 C 
HETATM   17  O3  UNL     1      21.558   5.218  48.184  1.00  0.00    -0.299 OA
HETATM   18  C16 UNL     1      21.611   4.084  48.993  1.00  0.00     0.154 C 
HETATM   19  N4  UNL     1      21.439   4.706  50.050  1.00  0.00    -0.221 NA
HETATM   20  C17 UNL     1      21.327   4.559  51.396  1.00  0.00     0.237 C 
HETATM   21  N5  UNL     1      22.144   4.875  52.360  1.00  0.00    -0.223 NA
HETATM   22  H9  UNL     1      24.299   4.712  53.886  1.00  0.00     0.162 HD
HETATM   23  H11 UNL     1      24.748   8.393  51.587  1.00  0.00     0.159 HD
ENDROOT
BRANCH  16  24
HETATM   24  N3  UNL     1      26.440   7.528  48.810  1.00  0.00    -0.287 N 
HETATM   25  H17 UNL     1      26.925   6.598  48.652  1.00  0.00     0.178 HD
BRANCH  24  26
HETATM   26  S1  UNL     1      27.202   9.010  49.182  1.00  0.00     0.227 S 
HETATM   27  C15 UNL     1      27.037  10.231  47.906  1.00  0.00     0.186 C 
HETATM   28  O1  UNL     1      28.685   8.763  49.333  1.00  0.00    -0.206 OA
HETATM   29  O2  UNL     1      26.744   9.608  50.458  1.00  0.00    -0.206 OA
ENDBRANCH  24  26
ENDBRANCH  16  24
TORSDOF 2
ENDMDL
MODEL 9
REMARK VINA RESULT:      -6.9      4.143      7.306
REMARK  2 active torsions:
REMARK  status: ('A' for Active; 'I' for Inactive)
REMARK    1  A    between atoms: C14_16  and  N3_17 
REMARK    2  A    between atoms: N3_17  and  S1_18 
ROOT
HETATM    1  C1  UNL     1      25.295   1.692  52.652  1.00  0.00     0.023 C 
HETATM    2  C2  UNL     1      24.161   1.801  51.665  1.00  0.00     0.081 C 
HETATM    3  C3  UNL     1      24.489   2.689  50.587  1.00  0.00    -0.014 C 
HETATM    4  C4  UNL     1      24.740   3.555  49.582  1.00  0.00    -0.005 C 
HETATM    5  C5  UNL     1      24.038   4.725  48.916  1.00  0.00     0.000 C 
HETATM    6  C6  UNL     1      22.923   5.499  48.902  1.00  0.00     0.132 C 
HETATM    7  N1  UNL     1      21.674   5.545  49.676  1.00  0.00    -0.363 N 
HETATM    8  C7  UNL     1      20.817   4.934  50.714  1.00  0.00     0.140 C 
HETATM    9  C8  UNL     1      19.689   4.454  50.285  1.00  0.00     0.134 C 
HETATM   10  N2  UNL     1      18.577   3.801  50.842  1.00  0.00    -0.385 N 
HETATM   11  C9  UNL     1      18.581   2.506  51.564  1.00  0.00     0.138 C 
HETATM   12  C10 UNL     1      19.976   2.431  52.064  1.00  0.00     0.096 C 
HETATM   13  C11 UNL     1      20.561   1.120  52.434  1.00  0.00     0.057 C 
HETATM   14  C12 UNL     1      19.835   0.041  52.182  1.00  0.00     0.035 C 
HETATM   15  C13 UNL     1      18.692   0.187  51.286  1.00  0.00     0.030 C 
HETATM   16  C14 UNL     1      18.343   1.348  50.710  1.00  0.00     0.042 C 
HETATM   17  O3  UNL     1      21.850   1.298  53.012  1.00  0.00    -0.299 OA
HETATM   18  C16 UNL     1      22.861   2.021  52.380  1.00  0.00     0.154 C 
HETATM   19  N4  UNL     1      22.339   3.125  52.586  1.00  0.00    -0.221 NA
HETATM   20  C17 UNL     1      22.497   4.459  52.389  1.00  0.00     0.237 C 
HETATM   21  N5  UNL     1      21.872   5.285  51.599  1.00  0.00    -0.223 NA
HETATM   22  H9  UNL     1      21.156   6.406  49.312  1.00  0.00     0.162 HD
HETATM   23  H11 UNL     1      17.628   4.274  50.743  1.00  0.00     0.159 HD
ENDROOT
BRANCH  16  24
HETATM   24  N3  UNL     1      17.808   1.204  49.377  1.00  0.00    -0.287 N 
HETATM   25  H17 UNL     1      18.459   0.839  48.623  1.00  0.00     0.178 HD
BRANCH  24  26
HETATM   26  S1  UNL     1      16.172   1.644  49.169  1.00  0.00     0.227 S 
HETATM   27  C15 UNL     1      15.065   0.798  50.267  1.00  0.00     0.186 C 
HETATM   28  O1  UNL     1      15.745   1.259  47.771  1.00  0.00    -0.206 OA
HETATM   29  O2  UNL     1      15.929   3.099  49.297  1.00  0.00    -0.206 OA
ENDBRANCH  24  26
ENDBRANCH  16  24
TORSDOF 2
ENDMDL
