MODEL 1
REMARK VINA RESULT:      -8.8      0.000      0.000
REMARK  4 active torsions:
REMARK  status: ('A' for Active; 'I' for Inactive)
REMARK    1  A    between atoms: C9_12  and  N2_13 
REMARK    2  A    between atoms: C11_16  and  O3_17 
REMARK    3  A    between atoms: O3_17  and  C12_18 
REMARK    4  A    between atoms: C12_18  and  C13_19 
ROOT
HETATM    1  N2  UNL     1      23.395   3.037  51.130  1.00  0.00    -0.278 N 
HETATM    2  C10 UNL     1      24.512   2.314  51.083  1.00  0.00     0.220 A 
HETATM    3  N3  UNL     1      24.800   1.191  51.751  1.00  0.00    -0.218 NA
HETATM    4  C11 UNL     1      23.890   0.654  52.609  1.00  0.00     0.193 A 
HETATM    5  C19 UNL     1      22.706   1.341  52.716  1.00  0.00     0.155 A 
HETATM    6 CL1  UNL     1      21.581   0.597  53.831  1.00  0.00    -0.074 Cl
HETATM    7  C20 UNL     1      22.477   2.497  51.995  1.00  0.00     0.279 A 
HETATM    8  O4  UNL     1      21.346   2.915  52.280  1.00  0.00    -0.266 OA
ENDROOT
BRANCH   1   9
HETATM    9  C9  UNL     1      23.123   4.306  50.473  1.00  0.00     0.009 C 
HETATM   10  C2  UNL     1      22.266   3.993  49.318  1.00  0.00     0.052 C 
HETATM   11  C1  UNL     1      22.727   2.734  48.562  1.00  0.00     0.018 C 
HETATM   12  C3  UNL     1      21.984   5.068  48.306  1.00  0.00     0.177 C 
HETATM   13  O1  UNL     1      21.708   6.247  48.860  1.00  0.00    -0.389 OA
HETATM   14  C4  UNL     1      21.414   7.353  48.150  1.00  0.00     0.187 C 
HETATM   15  C5  UNL     1      21.321   8.545  49.127  1.00  0.00     0.146 C 
HETATM   16  N1  UNL     1      22.680   8.633  49.707  1.00  0.00    -0.390 N 
HETATM   17  C6  UNL     1      23.416   7.689  50.440  1.00  0.00     0.028 A 
HETATM   18  H11 UNL     1      23.604   9.027  49.965  1.00  0.00     0.159 HD
HETATM   19  O2  UNL     1      22.947   6.561  50.706  1.00  0.00     0.000 OA
HETATM   20  C7  UNL     1      24.230   6.721  51.218  1.00  0.00     0.070 A 
HETATM   21  C8  UNL     1      23.704   5.396  50.928  1.00  0.00     0.048 C 
ENDBRANCH   1   9
BRANCH   4  22
HETATM   22  O3  UNL     1      24.213  -0.508  53.286  1.00  0.00    -0.328 OA
BRANCH  22  23
HETATM   23  C12 UNL     1      25.023  -0.468  54.418  1.00  0.00     0.219 C 
BRANCH  23  24
HETATM   24  C13 UNL     1      26.463  -0.520  54.166  1.00  0.00     0.005 A 
HETATM   25  C14 UNL     1      27.306   0.233  54.957  1.00  0.00     0.015 A 
HETATM   26  C15 UNL     1      28.667   0.279  54.833  1.00  0.00     0.043 A 
HETATM   27  C16 UNL     1      29.293  -0.463  53.858  1.00  0.00     0.119 A 
HETATM   28  F1  UNL     1      30.623  -0.501  53.634  1.00  0.00    -0.206 F 
HETATM   29  C17 UNL     1      28.457  -1.232  53.046  1.00  0.00     0.085 A 
HETATM   30  C18 UNL     1      27.086  -1.266  53.187  1.00  0.00     0.127 A 
HETATM   31  F2  UNL     1      26.298  -2.021  52.382  1.00  0.00    -0.205 F 
ENDBRANCH  23  24
ENDBRANCH  22  23
ENDBRANCH   4  22
TORSDOF 4
ENDMDL
MODEL 2
REMARK VINA RESULT:      -8.7      2.896      3.545
REMARK  4 active torsions:
REMARK  status: ('A' for Active; 'I' for Inactive)
REMARK    1  A    between atoms: C9_12  and  N2_13 
REMARK    2  A    between atoms: C11_16  and  O3_17 
REMARK    3  A    between atoms: O3_17  and  C12_18 
REMARK    4  A    between atoms: C12_18  and  C13_19 
ROOT
HETATM    1  N2  UNL     1      23.238   3.582  50.061  1.00  0.00    -0.278 N 
HETATM    2  C10 UNL     1      23.547   2.701  51.010  1.00  0.00     0.220 A 
HETATM    3  N3  UNL     1      24.762   2.324  51.425  1.00  0.00    -0.218 NA
HETATM    4  C11 UNL     1      25.877   2.861  50.856  1.00  0.00     0.193 A 
HETATM    5  C19 UNL     1      25.644   3.782  49.864  1.00  0.00     0.155 A 
HETATM    6 CL1  UNL     1      27.115   4.434  49.177  1.00  0.00    -0.074 Cl
HETATM    7  C20 UNL     1      24.360   4.123  49.486  1.00  0.00     0.279 A 
HETATM    8  O4  UNL     1      24.433   4.961  48.575  1.00  0.00    -0.266 OA
ENDROOT
BRANCH   1   9
HETATM    9  C9  UNL     1      21.918   3.919  49.550  1.00  0.00     0.009 C 
HETATM   10  C2  UNL     1      21.462   2.744  48.790  1.00  0.00     0.052 C 
HETATM   11  C1  UNL     1      22.572   2.134  47.918  1.00  0.00     0.018 C 
HETATM   12  C3  UNL     1      20.218   2.854  47.954  1.00  0.00     0.177 C 
HETATM   13  O1  UNL     1      19.228   3.497  48.571  1.00  0.00    -0.389 OA
HETATM   14  C4  UNL     1      18.018   3.706  48.020  1.00  0.00     0.187 C 
HETATM   15  C5  UNL     1      17.208   4.621  48.963  1.00  0.00     0.146 C 
HETATM   16  N1  UNL     1      17.995   5.873  49.004  1.00  0.00    -0.390 N 
HETATM   17  C6  UNL     1      19.319   6.100  49.414  1.00  0.00     0.028 A 
HETATM   18  H11 UNL     1      18.230   6.878  48.904  1.00  0.00     0.159 HD
HETATM   19  O2  UNL     1      20.039   5.167  49.834  1.00  0.00     0.000 OA
HETATM   20  C7  UNL     1      20.713   6.384  49.838  1.00  0.00     0.070 A 
HETATM   21  C8  UNL     1      21.444   5.128  49.761  1.00  0.00     0.048 C 
ENDBRANCH   1   9
BRANCH   4  22
HETATM   22  O3  UNL     1      27.119   2.454  51.305  1.00  0.00    -0.328 OA
BRANCH  22  23
HETATM   23  C12 UNL     1      27.315   2.118  52.641  1.00  0.00     0.219 C 
BRANCH  23  24
HETATM   24  C13 UNL     1      27.857   0.779  52.882  1.00  0.00     0.005 A 
HETATM   25  C14 UNL     1      29.140   0.659  53.374  1.00  0.00     0.015 A 
HETATM   26  C15 UNL     1      29.770  -0.525  53.643  1.00  0.00     0.043 A 
HETATM   27  C16 UNL     1      29.117  -1.715  53.423  1.00  0.00     0.119 A 
HETATM   28  F1  UNL     1      29.628  -2.944  53.647  1.00  0.00    -0.206 F 
HETATM   29  C17 UNL     1      27.817  -1.615  52.925  1.00  0.00     0.085 A 
HETATM   30  C18 UNL     1      27.198  -0.412  52.659  1.00  0.00     0.127 A 
HETATM   31  F2  UNL     1      25.934  -0.344  52.174  1.00  0.00    -0.205 F 
ENDBRANCH  23  24
ENDBRANCH  22  23
ENDBRANCH   4  22
TORSDOF 4
ENDMDL
MODEL 3
REMARK VINA RESULT:      -8.6      3.605      5.191
REMARK  4 active torsions:
REMARK  status: ('A' for Active; 'I' for Inactive)
REMARK    1  A    between atoms: C9_12  and  N2_13 
REMARK    2  A    between atoms: C11_16  and  O3_17 
REMARK    3  A    between atoms: O3_17  and  C12_18 
REMARK    4  A    between atoms: C12_18  and  C13_19 
ROOT
HETATM    1  N2  UNL     1      24.476   4.876  50.243  1.00  0.00    -0.278 N 
HETATM    2  C10 UNL     1      24.249   4.458  51.486  1.00  0.00     0.220 A 
HETATM    3  N3  UNL     1      23.150   3.872  51.974  1.00  0.00    -0.218 NA
HETATM    4  C11 UNL     1      22.082   3.638  51.163  1.00  0.00     0.193 A 
HETATM    5  C19 UNL     1      22.236   4.041  49.859  1.00  0.00     0.155 A 
HETATM    6 CL1  UNL     1      20.830   3.710  48.871  1.00  0.00    -0.074 Cl
HETATM    7  C20 UNL     1      23.401   4.642  49.424  1.00  0.00     0.279 A 
HETATM    8  O4  UNL     1      23.274   4.910  48.220  1.00  0.00    -0.266 OA
ENDROOT
BRANCH   1   9
HETATM    9  C9  UNL     1      25.636   5.596  49.739  1.00  0.00     0.009 C 
HETATM   10  C2  UNL     1      26.471   4.597  49.053  1.00  0.00     0.052 C 
HETATM   11  C1  UNL     1      26.573   3.274  49.831  1.00  0.00     0.018 C 
HETATM   12  C3  UNL     1      27.853   4.984  48.606  1.00  0.00     0.177 C 
HETATM   13  O1  UNL     1      27.901   6.188  48.038  1.00  0.00    -0.389 OA
HETATM   14  C4  UNL     1      29.030   6.739  47.553  1.00  0.00     0.187 C 
HETATM   15  C5  UNL     1      28.718   8.191  47.133  1.00  0.00     0.146 C 
HETATM   16  N1  UNL     1      28.310   8.845  48.396  1.00  0.00    -0.390 N 
HETATM   17  C6  UNL     1      27.256   8.544  49.274  1.00  0.00     0.028 A 
HETATM   18  H11 UNL     1      28.309   9.512  49.190  1.00  0.00     0.159 HD
HETATM   19  O2  UNL     1      26.473   7.595  49.050  1.00  0.00     0.000 OA
HETATM   20  C7  UNL     1      26.155   8.262  50.229  1.00  0.00     0.070 A 
HETATM   21  C8  UNL     1      25.769   6.873  50.031  1.00  0.00     0.048 C 
ENDBRANCH   1   9
BRANCH   4  22
HETATM   22  O3  UNL     1      20.960   3.030  51.694  1.00  0.00    -0.328 OA
BRANCH  22  23
HETATM   23  C12 UNL     1      20.762   1.659  51.552  1.00  0.00     0.219 C 
BRANCH  23  24
HETATM   24  C13 UNL     1      21.381   0.823  52.582  1.00  0.00     0.005 A 
HETATM   25  C14 UNL     1      20.627   0.441  53.672  1.00  0.00     0.015 A 
HETATM   26  C15 UNL     1      21.076  -0.335  54.705  1.00  0.00     0.043 A 
HETATM   27  C16 UNL     1      22.373  -0.794  54.704  1.00  0.00     0.119 A 
HETATM   28  F1  UNL     1      22.933  -1.563  55.662  1.00  0.00    -0.206 F 
HETATM   29  C17 UNL     1      23.153  -0.418  53.609  1.00  0.00     0.085 A 
HETATM   30  C18 UNL     1      22.682   0.365  52.577  1.00  0.00     0.127 A 
HETATM   31  F2  UNL     1      23.464   0.716  51.526  1.00  0.00    -0.205 F 
ENDBRANCH  23  24
ENDBRANCH  22  23
ENDBRANCH   4  22
TORSDOF 4
ENDMDL
MODEL 4
REMARK VINA RESULT:      -8.6      2.099      2.441
REMARK  4 active torsions:
REMARK  status: ('A' for Active; 'I' for Inactive)
REMARK    1  A    between atoms: C9_12  and  N2_13 
REMARK    2  A    between atoms: C11_16  and  O3_17 
REMARK    3  A    between atoms: O3_17  and  C12_18 
REMARK    4  A    between atoms: C12_18  and  C13_19 
ROOT
HETATM    1  N2  UNL     1      21.999   2.421  51.016  1.00  0.00    -0.278 N 
HETATM    2  C10 UNL     1      23.328   2.362  50.977  1.00  0.00     0.220 A 
HETATM    3  N3  UNL     1      24.153   1.732  51.821  1.00  0.00    -0.218 NA
HETATM    4  C11 UNL     1      23.650   1.041  52.881  1.00  0.00     0.193 A 
HETATM    5  C19 UNL     1      22.282   1.051  52.992  1.00  0.00     0.155 A 
HETATM    6 CL1  UNL     1      21.701   0.144  54.371  1.00  0.00    -0.074 Cl
HETATM    7  C20 UNL     1      21.490   1.725  52.083  1.00  0.00     0.279 A 
HETATM    8  O4  UNL     1      20.305   1.581  52.417  1.00  0.00    -0.266 OA
ENDROOT
BRANCH   1   9
HETATM    9  C9  UNL     1      21.112   3.184  50.150  1.00  0.00     0.009 C 
HETATM   10  C2  UNL     1      20.543   2.219  49.195  1.00  0.00     0.052 C 
HETATM   11  C1  UNL     1      21.589   1.223  48.664  1.00  0.00     0.018 C 
HETATM   12  C3  UNL     1      19.749   2.730  48.027  1.00  0.00     0.177 C 
HETATM   13  O1  UNL     1      18.902   3.704  48.356  1.00  0.00    -0.389 OA
HETATM   14  C4  UNL     1      18.082   4.308  47.476  1.00  0.00     0.187 C 
HETATM   15  C5  UNL     1      17.384   5.484  48.191  1.00  0.00     0.146 C 
HETATM   16  N1  UNL     1      18.501   6.378  48.573  1.00  0.00    -0.390 N 
HETATM   17  C6  UNL     1      19.617   6.136  49.390  1.00  0.00     0.028 A 
HETATM   18  H11 UNL     1      19.088   7.230  48.631  1.00  0.00     0.159 HD
HETATM   19  O2  UNL     1      19.796   5.026  49.936  1.00  0.00     0.000 OA
HETATM   20  C7  UNL     1      20.812   5.925  50.246  1.00  0.00     0.070 A 
HETATM   21  C8  UNL     1      21.046   4.490  50.299  1.00  0.00     0.048 C 
ENDBRANCH   1   9
BRANCH   4  22
HETATM   22  O3  UNL     1      24.526   0.398  53.736  1.00  0.00    -0.328 OA
BRANCH  22  23
HETATM   23  C12 UNL     1      25.099  -0.820  53.381  1.00  0.00     0.219 C 
BRANCH  23  24
HETATM   24  C13 UNL     1      26.558  -0.880  53.470  1.00  0.00     0.005 A 
HETATM   25  C14 UNL     1      27.213   0.022  54.282  1.00  0.00     0.015 A 
HETATM   26  C15 UNL     1      28.569   0.080  54.457  1.00  0.00     0.043 A 
HETATM   27  C16 UNL     1      29.385  -0.807  53.796  1.00  0.00     0.119 A 
HETATM   28  F1  UNL     1      30.732  -0.851  53.884  1.00  0.00    -0.206 F 
HETATM   29  C17 UNL     1      28.741  -1.729  52.969  1.00  0.00     0.085 A 
HETATM   30  C18 UNL     1      27.373  -1.772  52.804  1.00  0.00     0.127 A 
HETATM   31  F2  UNL     1      26.774  -2.678  51.992  1.00  0.00    -0.205 F 
ENDBRANCH  23  24
ENDBRANCH  22  23
ENDBRANCH   4  22
TORSDOF 4
ENDMDL
MODEL 5
REMARK VINA RESULT:      -8.6      4.660      6.042
REMARK  4 active torsions:
REMARK  status: ('A' for Active; 'I' for Inactive)
REMARK    1  A    between atoms: C9_12  and  N2_13 
REMARK    2  A    between atoms: C11_16  and  O3_17 
REMARK    3  A    between atoms: O3_17  and  C12_18 
REMARK    4  A    between atoms: C12_18  and  C13_19 
ROOT
HETATM    1  N2  UNL     1      27.045   6.980  48.905  1.00  0.00    -0.278 N 
HETATM    2  C10 UNL     1      27.585   5.838  48.486  1.00  0.00     0.220 A 
HETATM    3  N3  UNL     1      27.211   4.588  48.781  1.00  0.00    -0.218 NA
HETATM    4  C11 UNL     1      26.152   4.368  49.608  1.00  0.00     0.193 A 
HETATM    5  C19 UNL     1      25.536   5.499  50.085  1.00  0.00     0.155 A 
HETATM    6 CL1  UNL     1      24.183   5.148  51.139  1.00  0.00    -0.074 Cl
HETATM    7  C20 UNL     1      25.978   6.761  49.739  1.00  0.00     0.279 A 
HETATM    8  O4  UNL     1      25.258   7.595  50.306  1.00  0.00    -0.266 OA
ENDROOT
BRANCH   1   9
HETATM    9  C9  UNL     1      27.513   8.335  48.655  1.00  0.00     0.009 C 
HETATM   10  C2  UNL     1      26.459   8.993  47.866  1.00  0.00     0.052 C 
HETATM   11  C1  UNL     1      25.887   8.083  46.766  1.00  0.00     0.018 C 
HETATM   12  C3  UNL     1      26.734  10.341  47.262  1.00  0.00     0.177 C 
HETATM   13  O1  UNL     1      27.361  11.169  48.096  1.00  0.00    -0.389 OA
HETATM   14  C4  UNL     1      27.701  12.432  47.775  1.00  0.00     0.187 C 
HETATM   15  C5  UNL     1      28.550  13.012  48.927  1.00  0.00     0.146 C 
HETATM   16  N1  UNL     1      29.742  12.135  48.963  1.00  0.00    -0.390 N 
HETATM   17  C6  UNL     1      29.843  10.750  49.170  1.00  0.00     0.028 A 
HETATM   18  H11 UNL     1      30.737  11.844  48.928  1.00  0.00     0.159 HD
HETATM   19  O2  UNL     1      28.830  10.046  49.369  1.00  0.00     0.000 OA
HETATM   20  C7  UNL     1      29.997   9.289  49.385  1.00  0.00     0.070 A 
HETATM   21  C8  UNL     1      28.717   8.677  49.062  1.00  0.00     0.048 C 
ENDBRANCH   1   9
BRANCH   4  22
HETATM   22  O3  UNL     1      25.786   3.067  49.895  1.00  0.00    -0.328 OA
BRANCH  22  23
HETATM   23  C12 UNL     1      26.511   2.312  50.813  1.00  0.00     0.219 C 
BRANCH  23  24
HETATM   24  C13 UNL     1      25.718   1.428  51.669  1.00  0.00     0.005 A 
HETATM   25  C14 UNL     1      24.357   1.634  51.759  1.00  0.00     0.015 A 
HETATM   26  C15 UNL     1      23.498   0.887  52.519  1.00  0.00     0.043 A 
HETATM   27  C16 UNL     1      23.979  -0.159  53.270  1.00  0.00     0.119 A 
HETATM   28  F1  UNL     1      23.237  -0.966  54.058  1.00  0.00    -0.206 F 
HETATM   29  C17 UNL     1      25.355  -0.383  53.192  1.00  0.00     0.085 A 
HETATM   30  C18 UNL     1      26.205   0.379  52.421  1.00  0.00     0.127 A 
HETATM   31  F2  UNL     1      27.539   0.139  52.366  1.00  0.00    -0.205 F 
ENDBRANCH  23  24
ENDBRANCH  22  23
ENDBRANCH   4  22
TORSDOF 4
ENDMDL
MODEL 6
REMARK VINA RESULT:      -8.6      2.997      4.056
REMARK  4 active torsions:
REMARK  status: ('A' for Active; 'I' for Inactive)
REMARK    1  A    between atoms: C9_12  and  N2_13 
REMARK    2  A    between atoms: C11_16  and  O3_17 
REMARK    3  A    between atoms: O3_17  and  C12_18 
REMARK    4  A    between atoms: C12_18  and  C13_19 
ROOT
HETATM    1  N2  UNL     1      22.988   3.066  51.416  1.00  0.00    -0.278 N 
HETATM    2  C10 UNL     1      23.602   2.789  52.564  1.00  0.00     0.220 A 
HETATM    3  N3  UNL     1      24.911   2.615  52.782  1.00  0.00    -0.218 NA
HETATM    4  C11 UNL     1      25.795   2.716  51.751  1.00  0.00     0.193 A 
HETATM    5  C19 UNL     1      25.240   3.001  50.527  1.00  0.00     0.155 A 
HETATM    6 CL1  UNL     1      26.428   3.120  49.248  1.00  0.00    -0.074 Cl
HETATM    7  C20 UNL     1      23.877   3.167  50.376  1.00  0.00     0.279 A 
HETATM    8  O4  UNL     1      23.644   3.407  49.182  1.00  0.00    -0.266 OA
ENDROOT
BRANCH   1   9
HETATM    9  C9  UNL     1      21.557   3.162  51.169  1.00  0.00     0.009 C 
HETATM   10  C2  UNL     1      20.976   1.892  51.632  1.00  0.00     0.052 C 
HETATM   11  C1  UNL     1      21.821   0.671  51.228  1.00  0.00     0.018 C 
HETATM   12  C3  UNL     1      19.538   1.590  51.317  1.00  0.00     0.177 C 
HETATM   13  O1  UNL     1      18.732   2.634  51.501  1.00  0.00    -0.389 OA
HETATM   14  C4  UNL     1      17.403   2.595  51.292  1.00  0.00     0.187 C 
HETATM   15  C5  UNL     1      16.845   4.026  51.448  1.00  0.00     0.146 C 
HETATM   16  N1  UNL     1      17.528   4.790  50.380  1.00  0.00    -0.390 N 
HETATM   17  C6  UNL     1      18.896   5.013  50.157  1.00  0.00     0.028 A 
HETATM   18  H11 UNL     1      17.658   5.376  49.535  1.00  0.00     0.159 HD
HETATM   19  O2  UNL     1      19.766   4.541  50.921  1.00  0.00     0.000 OA
HETATM   20  C7  UNL     1      20.332   5.274  49.883  1.00  0.00     0.070 A 
HETATM   21  C8  UNL     1      21.088   4.227  50.554  1.00  0.00     0.048 C 
ENDBRANCH   1   9
BRANCH   4  22
HETATM   22  O3  UNL     1      27.141   2.533  52.004  1.00  0.00    -0.328 OA
BRANCH  22  23
HETATM   23  C12 UNL     1      27.571   2.036  53.231  1.00  0.00     0.219 C 
BRANCH  23  24
HETATM   24  C13 UNL     1      27.968   0.627  53.236  1.00  0.00     0.005 A 
HETATM   25  C14 UNL     1      27.074  -0.318  52.779  1.00  0.00     0.015 A 
HETATM   26  C15 UNL     1      27.312  -1.665  52.729  1.00  0.00     0.043 A 
HETATM   27  C16 UNL     1      28.519  -2.164  53.156  1.00  0.00     0.119 A 
HETATM   28  F1  UNL     1      28.873  -3.467  53.158  1.00  0.00    -0.206 F 
HETATM   29  C17 UNL     1      29.439  -1.223  53.622  1.00  0.00     0.085 A 
HETATM   30  C18 UNL     1      29.181   0.130  53.666  1.00  0.00     0.127 A 
HETATM   31  F2  UNL     1      30.093   1.022  54.126  1.00  0.00    -0.205 F 
ENDBRANCH  23  24
ENDBRANCH  22  23
ENDBRANCH   4  22
TORSDOF 4
ENDMDL
MODEL 7
REMARK VINA RESULT:      -8.4      3.853      5.729
REMARK  4 active torsions:
REMARK  status: ('A' for Active; 'I' for Inactive)
REMARK    1  A    between atoms: C9_12  and  N2_13 
REMARK    2  A    between atoms: C11_16  and  O3_17 
REMARK    3  A    between atoms: O3_17  and  C12_18 
REMARK    4  A    between atoms: C12_18  and  C13_19 
ROOT
HETATM    1  N2  UNL     1      24.215   3.738  50.686  1.00  0.00    -0.278 N 
HETATM    2  C10 UNL     1      24.403   3.213  51.894  1.00  0.00     0.220 A 
HETATM    3  N3  UNL     1      23.834   2.122  52.421  1.00  0.00    -0.218 NA
HETATM    4  C11 UNL     1      22.937   1.400  51.694  1.00  0.00     0.193 A 
HETATM    5  C19 UNL     1      22.686   1.877  50.431  1.00  0.00     0.155 A 
HETATM    6 CL1  UNL     1      21.528   0.905  49.550  1.00  0.00    -0.074 Cl
HETATM    7  C20 UNL     1      23.310   3.013  49.953  1.00  0.00     0.279 A 
HETATM    8  O4  UNL     1      22.903   3.224  48.801  1.00  0.00    -0.266 OA
ENDROOT
BRANCH   1   9
HETATM    9  C9  UNL     1      24.765   4.975  50.153  1.00  0.00     0.009 C 
HETATM   10  C2  UNL     1      25.854   4.581  49.245  1.00  0.00     0.052 C 
HETATM   11  C1  UNL     1      26.724   3.450  49.819  1.00  0.00     0.018 C 
HETATM   12  C3  UNL     1      26.767   5.641  48.697  1.00  0.00     0.177 C 
HETATM   13  O1  UNL     1      26.118   6.733  48.296  1.00  0.00    -0.389 OA
HETATM   14  C4  UNL     1      26.729   7.808  47.762  1.00  0.00     0.187 C 
HETATM   15  C5  UNL     1      25.676   8.923  47.582  1.00  0.00     0.146 C 
HETATM   16  N1  UNL     1      25.218   9.204  48.961  1.00  0.00    -0.390 N 
HETATM   17  C6  UNL     1      24.615   8.359  49.906  1.00  0.00     0.028 A 
HETATM   18  H11 UNL     1      25.023   9.730  49.833  1.00  0.00     0.159 HD
HETATM   19  O2  UNL     1      24.377   7.158  49.649  1.00  0.00     0.000 OA
HETATM   20  C7  UNL     1      23.976   7.501  50.936  1.00  0.00     0.070 A 
HETATM   21  C8  UNL     1      24.298   6.123  50.598  1.00  0.00     0.048 C 
ENDBRANCH   1   9
BRANCH   4  22
HETATM   22  O3  UNL     1      22.366   0.277  52.262  1.00  0.00    -0.328 OA
BRANCH  22  23
HETATM   23  C12 UNL     1      21.486   0.394  53.334  1.00  0.00     0.219 C 
BRANCH  23  24
HETATM   24  C13 UNL     1      20.180  -0.241  53.151  1.00  0.00     0.005 A 
HETATM   25  C14 UNL     1      19.285   0.321  52.264  1.00  0.00     0.015 A 
HETATM   26  C15 UNL     1      18.035  -0.165  51.996  1.00  0.00     0.043 A 
HETATM   27  C16 UNL     1      17.588  -1.298  52.634  1.00  0.00     0.119 A 
HETATM   28  F1  UNL     1      16.379  -1.874  52.457  1.00  0.00    -0.206 F 
HETATM   29  C17 UNL     1      18.479  -1.883  53.535  1.00  0.00     0.085 A 
HETATM   30  C18 UNL     1      19.736  -1.379  53.793  1.00  0.00     0.127 A 
HETATM   31  F2  UNL     1      20.581  -1.967  54.676  1.00  0.00    -0.205 F 
ENDBRANCH  23  24
ENDBRANCH  22  23
ENDBRANCH   4  22
TORSDOF 4
ENDMDL
MODEL 8
REMARK VINA RESULT:      -8.4      3.810      8.454
REMARK  4 active torsions:
REMARK  status: ('A' for Active; 'I' for Inactive)
REMARK    1  A    between atoms: C9_12  and  N2_13 
REMARK    2  A    between atoms: C11_16  and  O3_17 
REMARK    3  A    between atoms: O3_17  and  C12_18 
REMARK    4  A    between atoms: C12_18  and  C13_19 
ROOT
HETATM    1  N2  UNL     1      24.841   2.437  52.156  1.00  0.00    -0.278 N 
HETATM    2  C10 UNL     1      23.800   2.903  52.843  1.00  0.00     0.220 A 
HETATM    3  N3  UNL     1      22.835   3.729  52.423  1.00  0.00    -0.218 NA
HETATM    4  C11 UNL     1      22.844   4.199  51.145  1.00  0.00     0.193 A 
HETATM    5  C19 UNL     1      23.889   3.763  50.368  1.00  0.00     0.155 A 
HETATM    6 CL1  UNL     1      23.841   4.401  48.739  1.00  0.00    -0.074 Cl
HETATM    7  C20 UNL     1      24.852   2.910  50.869  1.00  0.00     0.279 A 
HETATM    8  O4  UNL     1      25.675   2.683  49.970  1.00  0.00    -0.266 OA
ENDROOT
BRANCH   1   9
HETATM    9  C9  UNL     1      25.938   1.614  52.644  1.00  0.00     0.009 C 
HETATM   10  C2  UNL     1      25.471   0.221  52.563  1.00  0.00     0.052 C 
HETATM   11  C1  UNL     1      24.017   0.054  53.037  1.00  0.00     0.018 C 
HETATM   12  C3  UNL     1      26.296  -0.863  53.197  1.00  0.00     0.177 C 
HETATM   13  O1  UNL     1      27.600  -0.732  52.962  1.00  0.00    -0.389 OA
HETATM   14  C4  UNL     1      28.530  -1.591  53.421  1.00  0.00     0.187 C 
HETATM   15  C5  UNL     1      29.925  -1.018  53.089  1.00  0.00     0.146 C 
HETATM   16  N1  UNL     1      29.969   0.260  53.834  1.00  0.00    -0.390 N 
HETATM   17  C6  UNL     1      29.142   1.390  53.746  1.00  0.00     0.028 A 
HETATM   18  H11 UNL     1      30.287   0.984  54.504  1.00  0.00     0.159 HD
HETATM   19  O2  UNL     1      28.185   1.436  52.942  1.00  0.00     0.000 OA
HETATM   20  C7  UNL     1      28.292   2.606  53.687  1.00  0.00     0.070 A 
HETATM   21  C8  UNL     1      27.018   2.205  53.109  1.00  0.00     0.048 C 
ENDBRANCH   1   9
BRANCH   4  22
HETATM   22  O3  UNL     1      21.834   5.049  50.738  1.00  0.00    -0.328 OA
BRANCH  22  23
HETATM   23  C12 UNL     1      21.793   6.368  51.184  1.00  0.00     0.219 C 
BRANCH  23  24
HETATM   24  C13 UNL     1      22.669   7.301  50.473  1.00  0.00     0.005 A 
HETATM   25  C14 UNL     1      22.166   7.992  49.390  1.00  0.00     0.015 A 
HETATM   26  C15 UNL     1      22.871   8.891  48.637  1.00  0.00     0.043 A 
HETATM   27  C16 UNL     1      24.184   9.160  48.941  1.00  0.00     0.119 A 
HETATM   28  F1  UNL     1      24.983  10.022  48.275  1.00  0.00    -0.206 F 
HETATM   29  C17 UNL     1      24.712   8.471  50.034  1.00  0.00     0.085 A 
HETATM   30  C18 UNL     1      23.986   7.568  50.782  1.00  0.00     0.127 A 
HETATM   31  F2  UNL     1      24.525   6.911  51.838  1.00  0.00    -0.205 F 
ENDBRANCH  23  24
ENDBRANCH  22  23
ENDBRANCH   4  22
TORSDOF 4
ENDMDL
MODEL 9
REMARK VINA RESULT:      -8.4      3.656      8.212
REMARK  4 active torsions:
REMARK  status: ('A' for Active; 'I' for Inactive)
REMARK    1  A    between atoms: C9_12  and  N2_13 
REMARK    2  A    between atoms: C11_16  and  O3_17 
REMARK    3  A    between atoms: O3_17  and  C12_18 
REMARK    4  A    between atoms: C12_18  and  C13_19 
ROOT
HETATM    1  N2  UNL     1      25.281   2.659  52.301  1.00  0.00    -0.278 N 
HETATM    2  C10 UNL     1      24.365   3.296  53.027  1.00  0.00     0.220 A 
HETATM    3  N3  UNL     1      23.549   4.285  52.646  1.00  0.00    -0.218 NA
HETATM    4  C11 UNL     1      23.597   4.759  51.370  1.00  0.00     0.193 A 
HETATM    5  C19 UNL     1      24.520   4.153  50.553  1.00  0.00     0.155 A 
HETATM    6 CL1  UNL     1      24.529   4.806  48.930  1.00  0.00    -0.074 Cl
HETATM    7  C20 UNL     1      25.332   3.136  51.016  1.00  0.00     0.279 A 
HETATM    8  O4  UNL     1      26.069   2.775  50.087  1.00  0.00    -0.266 OA
ENDROOT
BRANCH   1   9
HETATM    9  C9  UNL     1      26.230   1.649  52.745  1.00  0.00     0.009 C 
HETATM   10  C2  UNL     1      25.576   0.349  52.522  1.00  0.00     0.052 C 
HETATM   11  C1  UNL     1      24.094   0.352  52.934  1.00  0.00     0.018 C 
HETATM   12  C3  UNL     1      26.214  -0.893  53.080  1.00  0.00     0.177 C 
HETATM   13  O1  UNL     1      27.532  -0.930  52.898  1.00  0.00    -0.389 OA
HETATM   14  C4  UNL     1      28.312  -1.949  53.306  1.00  0.00     0.187 C 
HETATM   15  C5  UNL     1      29.786  -1.556  53.070  1.00  0.00     0.146 C 
HETATM   16  N1  UNL     1      29.977  -0.367  53.930  1.00  0.00    -0.390 N 
HETATM   17  C6  UNL     1      29.320   0.874  53.921  1.00  0.00     0.028 A 
HETATM   18  H11 UNL     1      30.363   0.244  54.673  1.00  0.00     0.159 HD
HETATM   19  O2  UNL     1      28.415   1.125  53.095  1.00  0.00     0.000 OA
HETATM   20  C7  UNL     1      28.652   2.200  53.946  1.00  0.00     0.070 A 
HETATM   21  C8  UNL     1      27.361   2.036  53.295  1.00  0.00     0.048 C 
ENDBRANCH   1   9
BRANCH   4  22
HETATM   22  O3  UNL     1      22.741   5.781  51.003  1.00  0.00    -0.328 OA
BRANCH  22  23
HETATM   23  C12 UNL     1      21.371   5.672  51.223  1.00  0.00     0.219 C 
BRANCH  23  24
HETATM   24  C13 UNL     1      20.762   4.412  50.793  1.00  0.00     0.005 A 
HETATM   25  C14 UNL     1      20.160   3.607  51.738  1.00  0.00     0.015 A 
HETATM   26  C15 UNL     1      19.555   2.408  51.476  1.00  0.00     0.043 A 
HETATM   27  C16 UNL     1      19.518   1.924  50.190  1.00  0.00     0.119 A 
HETATM   28  F1  UNL     1      18.954   0.759  49.806  1.00  0.00    -0.206 F 
HETATM   29  C17 UNL     1      20.122   2.725  49.219  1.00  0.00     0.085 A 
HETATM   30  C18 UNL     1      20.727   3.931  49.501  1.00  0.00     0.127 A 
HETATM   31  F2  UNL     1      21.308   4.687  48.537  1.00  0.00    -0.205 F 
ENDBRANCH  23  24
ENDBRANCH  22  23
ENDBRANCH   4  22
TORSDOF 4
ENDMDL
