MODEL 1
REMARK VINA RESULT:      -7.6      0.000      0.000
REMARK  4 active torsions:
REMARK  status: ('A' for Active; 'I' for Inactive)
REMARK    1  A    between atoms: C3_3  and  C4_4 
REMARK       I    between atoms: C4_4  and  N1_6 
REMARK    2  A    between atoms: N1_6  and  C5_7 
REMARK    3  A    between atoms: C6_8  and  N2_9 
REMARK    4  A    between atoms: N4_15  and  C11_16 
ROOT
HETATM    1  C1  UNL     1      19.524   9.617  49.746  1.00  0.00     0.036 C 
HETATM    2  C2  UNL     1      20.453   8.561  50.104  1.00  0.00    -0.026 C 
HETATM    3  C3  UNL     1      21.370   7.755  50.541  1.00  0.00     0.070 C 
ENDROOT
BRANCH   3   4
HETATM    4  C4  UNL     1      22.205   6.615  50.796  1.00  0.00     0.246 C 
HETATM    5  O1  UNL     1      21.590   5.625  50.269  1.00  0.00    -0.268 OA
HETATM    6  N1  UNL     1      23.420   6.718  51.495  1.00  0.00    -0.308 N 
HETATM    7  H6  UNL     1      23.656   7.652  51.807  1.00  0.00     0.170 HD
BRANCH   6   8
HETATM    8  C5  UNL     1      23.796   5.341  51.463  1.00  0.00     0.128 C 
HETATM    9  C6  UNL     1      24.306   4.096  51.386  1.00  0.00     0.079 C 
HETATM   10  C7  UNL     1      24.807   3.477  50.028  1.00  0.00     0.082 C 
HETATM   11  C8  UNL     1      24.602   4.289  49.021  1.00  0.00     0.037 C 
HETATM   12  N4  UNL     1      25.604   2.676  50.980  1.00  0.00    -0.233 N 
HETATM   13  C9  UNL     1      25.838   5.058  49.464  1.00  0.00     0.151 C 
HETATM   14  C10 UNL     1      26.804   3.956  49.536  1.00  0.00     0.141 C 
HETATM   15  N5  UNL     1      25.231   5.708  50.680  1.00  0.00    -0.362 N 
HETATM   16  N3  UNL     1      26.980   3.067  50.514  1.00  0.00    -0.181 NA
HETATM   17  H16 UNL     1      26.081   6.450  50.708  1.00  0.00     0.162 HD
BRANCH   9  18
HETATM   18  N2  UNL     1      23.925   3.984  52.849  1.00  0.00    -0.298 NA
HETATM   19  H7  UNL     1      23.107   3.417  53.094  1.00  0.00     0.124 HD
HETATM   20  H8  UNL     1      23.062   3.383  53.058  1.00  0.00     0.124 HD
ENDBRANCH   9  18
BRANCH  12  21
HETATM   21  C11 UNL     1      25.397   1.794  52.041  1.00  0.00     0.060 A 
HETATM   22  C12 UNL     1      26.503   1.755  52.826  1.00  0.00     0.032 A 
HETATM   23  C13 UNL     1      26.508   0.908  53.947  1.00  0.00     0.004 A 
HETATM   24  C14 UNL     1      25.342   0.162  54.151  1.00  0.00     0.019 A 
HETATM   25  C15 UNL     1      24.210   0.176  53.382  1.00  0.00     0.013 A 
HETATM   26 BR1  UNL     1      22.687  -0.890  53.749  1.00  0.00    -0.051 Br
HETATM   27  C16 UNL     1      24.305   1.032  52.317  1.00  0.00     0.050 A 
ENDBRANCH  12  21
ENDBRANCH   6   8
ENDBRANCH   3   4
TORSDOF 4
ENDMDL
MODEL 2
REMARK VINA RESULT:      -7.2      3.178      4.783
REMARK  4 active torsions:
REMARK  status: ('A' for Active; 'I' for Inactive)
REMARK    1  A    between atoms: C3_3  and  C4_4 
REMARK       I    between atoms: C4_4  and  N1_6 
REMARK    2  A    between atoms: N1_6  and  C5_7 
REMARK    3  A    between atoms: C6_8  and  N2_9 
REMARK    4  A    between atoms: N4_15  and  C11_16 
ROOT
HETATM    1  C1  UNL     1      26.805   7.061  47.887  1.00  0.00     0.036 C 
HETATM    2  C2  UNL     1      26.374   5.957  48.724  1.00  0.00    -0.026 C 
HETATM    3  C3  UNL     1      25.866   5.105  49.558  1.00  0.00     0.070 C 
ENDROOT
BRANCH   3   4
HETATM    4  C4  UNL     1      25.544   3.922  50.306  1.00  0.00     0.246 C 
HETATM    5  O1  UNL     1      24.450   3.493  49.798  1.00  0.00    -0.268 OA
HETATM    6  N1  UNL     1      26.355   3.453  51.353  1.00  0.00    -0.308 N 
HETATM    7  H6  UNL     1      27.177   4.013  51.541  1.00  0.00     0.170 HD
BRANCH   6   8
HETATM    8  C5  UNL     1      25.579   2.311  51.722  1.00  0.00     0.128 C 
HETATM    9  C6  UNL     1      24.951   1.222  52.205  1.00  0.00     0.079 C 
HETATM   10  C7  UNL     1      25.662  -0.180  52.306  1.00  0.00     0.082 C 
HETATM   11  C8  UNL     1      26.875  -0.144  51.810  1.00  0.00     0.037 C 
HETATM   12  N4  UNL     1      24.632  -0.344  53.351  1.00  0.00    -0.233 N 
HETATM   13  C9  UNL     1      27.325   0.504  53.112  1.00  0.00     0.151 C 
HETATM   14  C10 UNL     1      26.783  -0.465  54.072  1.00  0.00     0.141 C 
HETATM   15  N5  UNL     1      26.714   1.859  52.868  1.00  0.00    -0.362 N 
HETATM   16  N3  UNL     1      25.537  -0.571  54.532  1.00  0.00    -0.181 NA
HETATM   17  H16 UNL     1      27.363   2.297  53.682  1.00  0.00     0.162 HD
BRANCH   9  18
HETATM   18  N2  UNL     1      23.722   2.107  52.260  1.00  0.00    -0.298 NA
HETATM   19  H7  UNL     1      23.649   2.875  51.585  1.00  0.00     0.124 HD
HETATM   20  H8  UNL     1      23.690   2.898  51.538  1.00  0.00     0.124 HD
ENDBRANCH   9  18
BRANCH  12  21
HETATM   21  C11 UNL     1      23.242  -0.327  53.468  1.00  0.00     0.060 A 
HETATM   22  C12 UNL     1      22.885  -0.660  54.734  1.00  0.00     0.032 A 
HETATM   23  C13 UNL     1      21.519  -0.720  55.058  1.00  0.00     0.004 A 
HETATM   24  C14 UNL     1      20.633  -0.427  54.017  1.00  0.00     0.019 A 
HETATM   25  C15 UNL     1      20.957  -0.088  52.731  1.00  0.00     0.013 A 
HETATM   26 BR1  UNL     1      19.665   0.281  51.393  1.00  0.00    -0.051 Br
HETATM   27  C16 UNL     1      22.308  -0.056  52.517  1.00  0.00     0.050 A 
ENDBRANCH  12  21
ENDBRANCH   6   8
ENDBRANCH   3   4
TORSDOF 4
ENDMDL
MODEL 3
REMARK VINA RESULT:      -7.1      2.946      4.048
REMARK  4 active torsions:
REMARK  status: ('A' for Active; 'I' for Inactive)
REMARK    1  A    between atoms: C3_3  and  C4_4 
REMARK       I    between atoms: C4_4  and  N1_6 
REMARK    2  A    between atoms: N1_6  and  C5_7 
REMARK    3  A    between atoms: C6_8  and  N2_9 
REMARK    4  A    between atoms: N4_15  and  C11_16 
ROOT
HETATM    1  C1  UNL     1      24.039   7.949  46.703  1.00  0.00     0.036 C 
HETATM    2  C2  UNL     1      24.290   6.902  47.676  1.00  0.00    -0.026 C 
HETATM    3  C3  UNL     1      24.329   5.903  48.501  1.00  0.00     0.070 C 
ENDROOT
BRANCH   3   4
HETATM    4  C4  UNL     1      24.721   4.933  49.485  1.00  0.00     0.246 C 
HETATM    5  O1  UNL     1      25.220   5.616  50.447  1.00  0.00    -0.268 OA
HETATM    6  N1  UNL     1      24.535   3.553  49.293  1.00  0.00    -0.308 N 
HETATM    7  H6  UNL     1      24.110   3.298  48.411  1.00  0.00     0.170 HD
BRANCH   6   8
HETATM    8  C5  UNL     1      25.093   3.095  50.526  1.00  0.00     0.128 C 
HETATM    9  C6  UNL     1      25.491   2.549  51.692  1.00  0.00     0.079 C 
HETATM   10  C7  UNL     1      24.618   2.635  52.999  1.00  0.00     0.082 C 
HETATM   11  C8  UNL     1      23.530   3.340  52.809  1.00  0.00     0.037 C 
HETATM   12  N4  UNL     1      25.411   1.427  53.304  1.00  0.00    -0.233 N 
HETATM   13  C9  UNL     1      22.925   2.117  52.134  1.00  0.00     0.151 C 
HETATM   14  C10 UNL     1      23.165   1.113  53.177  1.00  0.00     0.141 C 
HETATM   15  N5  UNL     1      23.722   2.192  50.858  1.00  0.00    -0.362 N 
HETATM   16  N3  UNL     1      24.284   0.440  53.441  1.00  0.00    -0.181 NA
HETATM   17  H16 UNL     1      22.989   1.493  50.359  1.00  0.00     0.162 HD
BRANCH   9  18
HETATM   18  N2  UNL     1      26.783   2.239  50.962  1.00  0.00    -0.298 NA
HETATM   19  H7  UNL     1      26.728   1.966  49.976  1.00  0.00     0.124 HD
HETATM   20  H8  UNL     1      26.676   1.955  49.934  1.00  0.00     0.124 HD
ENDBRANCH   9  18
BRANCH  12  21
HETATM   21  C11 UNL     1      26.748   1.060  53.457  1.00  0.00     0.060 A 
HETATM   22  C12 UNL     1      27.486   2.146  53.798  1.00  0.00     0.032 A 
HETATM   23  C13 UNL     1      28.870   1.994  53.983  1.00  0.00     0.004 A 
HETATM   24  C14 UNL     1      29.372   0.703  53.790  1.00  0.00     0.019 A 
HETATM   25  C15 UNL     1      28.659  -0.415  53.446  1.00  0.00     0.013 A 
HETATM   26 BR1  UNL     1      29.449  -2.120  53.200  1.00  0.00    -0.051 Br
HETATM   27  C16 UNL     1      27.323  -0.162  53.291  1.00  0.00     0.050 A 
ENDBRANCH  12  21
ENDBRANCH   6   8
ENDBRANCH   3   4
TORSDOF 4
ENDMDL
MODEL 4
REMARK VINA RESULT:      -6.9      3.449      7.414
REMARK  4 active torsions:
REMARK  status: ('A' for Active; 'I' for Inactive)
REMARK    1  A    between atoms: C3_3  and  C4_4 
REMARK       I    between atoms: C4_4  and  N1_6 
REMARK    2  A    between atoms: N1_6  and  C5_7 
REMARK    3  A    between atoms: C6_8  and  N2_9 
REMARK    4  A    between atoms: N4_15  and  C11_16 
ROOT
HETATM    1  C1  UNL     1      29.926  -1.122  53.776  1.00  0.00     0.036 C 
HETATM    2  C2  UNL     1      28.653  -0.592  53.323  1.00  0.00    -0.026 C 
HETATM    3  C3  UNL     1      27.439  -0.292  52.982  1.00  0.00     0.070 C 
ENDROOT
BRANCH   3   4
HETATM    4  C4  UNL     1      26.260   0.363  52.489  1.00  0.00     0.246 C 
HETATM    5  O1  UNL     1      26.601   0.857  51.358  1.00  0.00    -0.268 OA
HETATM    6  N1  UNL     1      25.054   0.378  53.210  1.00  0.00    -0.308 N 
HETATM    7  H6  UNL     1      25.082  -0.102  54.100  1.00  0.00     0.170 HD
BRANCH   6   8
HETATM    8  C5  UNL     1      24.272   1.143  52.291  1.00  0.00     0.128 C 
HETATM    9  C6  UNL     1      23.424   1.885  51.552  1.00  0.00     0.079 C 
HETATM   10  C7  UNL     1      21.973   1.390  51.193  1.00  0.00     0.082 C 
HETATM   11  C8  UNL     1      21.750   0.179  51.641  1.00  0.00     0.037 C 
HETATM   12  N4  UNL     1      21.776   2.849  51.084  1.00  0.00    -0.233 N 
HETATM   13  C9  UNL     1      21.516   0.793  53.015  1.00  0.00     0.151 C 
HETATM   14  C10 UNL     1      20.518   1.811  52.665  1.00  0.00     0.141 C 
HETATM   15  N5  UNL     1      22.954   1.115  53.324  1.00  0.00    -0.362 N 
HETATM   16  N3  UNL     1      20.713   3.018  52.135  1.00  0.00    -0.181 NA
HETATM   17  H16 UNL     1      22.692   1.237  54.416  1.00  0.00     0.162 HD
BRANCH   9  18
HETATM   18  N2  UNL     1      24.592   2.838  51.392  1.00  0.00    -0.298 NA
HETATM   19  H7  UNL     1      25.530   2.439  51.288  1.00  0.00     0.124 HD
HETATM   20  H8  UNL     1      25.554   2.376  51.290  1.00  0.00     0.124 HD
ENDBRANCH   9  18
BRANCH  12  21
HETATM   21  C11 UNL     1      22.279   3.925  50.351  1.00  0.00     0.060 A 
HETATM   22  C12 UNL     1      22.326   3.601  49.035  1.00  0.00     0.032 A 
HETATM   23  C13 UNL     1      22.823   4.547  48.122  1.00  0.00     0.004 A 
HETATM   24  C14 UNL     1      23.236   5.765  48.671  1.00  0.00     0.019 A 
HETATM   25  C15 UNL     1      23.203   6.125  49.992  1.00  0.00     0.013 A 
HETATM   26 BR1  UNL     1      23.803   7.807  50.627  1.00  0.00    -0.051 Br
HETATM   27  C16 UNL     1      22.704   5.138  50.797  1.00  0.00     0.050 A 
ENDBRANCH  12  21
ENDBRANCH   6   8
ENDBRANCH   3   4
TORSDOF 4
ENDMDL
MODEL 5
REMARK VINA RESULT:      -6.8      3.919      7.764
REMARK  4 active torsions:
REMARK  status: ('A' for Active; 'I' for Inactive)
REMARK    1  A    between atoms: C3_3  and  C4_4 
REMARK       I    between atoms: C4_4  and  N1_6 
REMARK    2  A    between atoms: N1_6  and  C5_7 
REMARK    3  A    between atoms: C6_8  and  N2_9 
REMARK    4  A    between atoms: N4_15  and  C11_16 
ROOT
HETATM    1  C1  UNL     1      30.360  -1.289  53.833  1.00  0.00     0.036 C 
HETATM    2  C2  UNL     1      29.011  -0.869  53.501  1.00  0.00    -0.026 C 
HETATM    3  C3  UNL     1      27.894  -0.342  53.107  1.00  0.00     0.070 C 
ENDROOT
BRANCH   3   4
HETATM    4  C4  UNL     1      26.509  -0.054  52.861  1.00  0.00     0.246 C 
HETATM    5  O1  UNL     1      26.436   0.195  51.608  1.00  0.00    -0.268 OA
HETATM    6  N1  UNL     1      25.545  -0.077  53.884  1.00  0.00    -0.308 N 
HETATM    7  H6  UNL     1      25.903  -0.307  54.803  1.00  0.00     0.170 HD
BRANCH   6   8
HETATM    8  C5  UNL     1      24.404   0.281  53.103  1.00  0.00     0.128 C 
HETATM    9  C6  UNL     1      23.241   0.621  52.514  1.00  0.00     0.079 C 
HETATM   10  C7  UNL     1      21.991  -0.336  52.512  1.00  0.00     0.082 C 
HETATM   11  C8  UNL     1      22.260  -1.485  53.082  1.00  0.00     0.037 C 
HETATM   12  N4  UNL     1      21.313   0.965  52.343  1.00  0.00    -0.233 N 
HETATM   13  C9  UNL     1      22.092  -0.789  54.426  1.00  0.00     0.151 C 
HETATM   14  C10 UNL     1      20.771  -0.181  54.228  1.00  0.00     0.141 C 
HETATM   15  N5  UNL     1      23.378  -0.006  54.395  1.00  0.00    -0.362 N 
HETATM   16  N3  UNL     1      20.463   0.944  53.584  1.00  0.00    -0.181 NA
HETATM   17  H16 UNL     1      23.292   0.178  55.506  1.00  0.00     0.162 HD
BRANCH   9  18
HETATM   18  N2  UNL     1      23.986   1.853  52.038  1.00  0.00    -0.298 NA
HETATM   19  H7  UNL     1      24.991   1.914  52.227  1.00  0.00     0.124 HD
HETATM   20  H8  UNL     1      25.034   1.874  52.260  1.00  0.00     0.124 HD
ENDBRANCH   9  18
BRANCH  12  21
HETATM   21  C11 UNL     1      21.297   2.032  51.444  1.00  0.00     0.060 A 
HETATM   22  C12 UNL     1      20.907   3.164  52.084  1.00  0.00     0.032 A 
HETATM   23  C13 UNL     1      20.807   4.357  51.349  1.00  0.00     0.004 A 
HETATM   24  C14 UNL     1      21.123   4.263  49.990  1.00  0.00     0.019 A 
HETATM   25  C15 UNL     1      21.519   3.140  49.312  1.00  0.00     0.013 A 
HETATM   26 BR1  UNL     1      21.913   3.128  47.458  1.00  0.00    -0.051 Br
HETATM   27  C16 UNL     1      21.586   2.034  50.115  1.00  0.00     0.050 A 
ENDBRANCH  12  21
ENDBRANCH   6   8
ENDBRANCH   3   4
TORSDOF 4
ENDMDL
MODEL 6
REMARK VINA RESULT:      -6.8      2.423      3.083
REMARK  4 active torsions:
REMARK  status: ('A' for Active; 'I' for Inactive)
REMARK    1  A    between atoms: C3_3  and  C4_4 
REMARK       I    between atoms: C4_4  and  N1_6 
REMARK    2  A    between atoms: N1_6  and  C5_7 
REMARK    3  A    between atoms: C6_8  and  N2_9 
REMARK    4  A    between atoms: N4_15  and  C11_16 
ROOT
HETATM    1  C1  UNL     1      21.391   9.951  48.931  1.00  0.00     0.036 C 
HETATM    2  C2  UNL     1      21.563   8.634  49.516  1.00  0.00    -0.026 C 
HETATM    3  C3  UNL     1      21.689   7.550  50.214  1.00  0.00     0.070 C 
ENDROOT
BRANCH   3   4
HETATM    4  C4  UNL     1      21.877   6.192  50.643  1.00  0.00     0.246 C 
HETATM    5  O1  UNL     1      21.164   5.488  49.847  1.00  0.00    -0.268 OA
HETATM    6  N1  UNL     1      22.703   5.857  51.730  1.00  0.00    -0.308 N 
HETATM    7  H6  UNL     1      23.148   6.643  52.187  1.00  0.00     0.170 HD
BRANCH   6   8
HETATM    8  C5  UNL     1      22.511   4.442  51.709  1.00  0.00     0.128 C 
HETATM    9  C6  UNL     1      22.489   3.095  51.750  1.00  0.00     0.079 C 
HETATM   10  C7  UNL     1      23.437   2.213  50.854  1.00  0.00     0.082 C 
HETATM   11  C8  UNL     1      24.168   2.949  50.053  1.00  0.00     0.037 C 
HETATM   12  N4  UNL     1      23.173   1.263  51.954  1.00  0.00    -0.233 N 
HETATM   13  C9  UNL     1      25.075   3.238  51.241  1.00  0.00     0.151 C 
HETATM   14  C10 UNL     1      25.347   1.866  51.685  1.00  0.00     0.141 C 
HETATM   15  N5  UNL     1      24.144   4.174  51.965  1.00  0.00    -0.362 N 
HETATM   16  N3  UNL     1      24.585   1.069  52.434  1.00  0.00    -0.181 NA
HETATM   17  H16 UNL     1      25.007   4.545  52.593  1.00  0.00     0.162 HD
BRANCH   9  18
HETATM   18  N2  UNL     1      21.309   3.267  52.687  1.00  0.00    -0.298 NA
HETATM   19  H7  UNL     1      20.409   2.863  52.410  1.00  0.00     0.124 HD
HETATM   20  H8  UNL     1      20.388   2.831  52.354  1.00  0.00     0.124 HD
ENDBRANCH   9  18
BRANCH  12  21
HETATM   21  C11 UNL     1      22.086   0.622  52.550  1.00  0.00     0.060 A 
HETATM   22  C12 UNL     1      22.445   0.153  53.771  1.00  0.00     0.032 A 
HETATM   23  C13 UNL     1      21.494  -0.544  54.535  1.00  0.00     0.004 A 
HETATM   24  C14 UNL     1      20.234  -0.697  53.946  1.00  0.00     0.019 A 
HETATM   25  C15 UNL     1      19.838  -0.238  52.719  1.00  0.00     0.013 A 
HETATM   26 BR1  UNL     1      18.100  -0.514  52.015  1.00  0.00    -0.051 Br
HETATM   27  C16 UNL     1      20.834   0.428  52.057  1.00  0.00     0.050 A 
ENDBRANCH  12  21
ENDBRANCH   6   8
ENDBRANCH   3   4
TORSDOF 4
ENDMDL
MODEL 7
REMARK VINA RESULT:      -6.8      3.447      6.475
REMARK  4 active torsions:
REMARK  status: ('A' for Active; 'I' for Inactive)
REMARK    1  A    between atoms: C3_3  and  C4_4 
REMARK       I    between atoms: C4_4  and  N1_6 
REMARK    2  A    between atoms: N1_6  and  C5_7 
REMARK    3  A    between atoms: C6_8  and  N2_9 
REMARK    4  A    between atoms: N4_15  and  C11_16 
ROOT
HETATM    1  C1  UNL     1      17.830  -2.521  53.805  1.00  0.00     0.036 C 
HETATM    2  C2  UNL     1      19.078  -1.792  53.670  1.00  0.00    -0.026 C 
HETATM    3  C3  UNL     1      20.207  -1.161  53.749  1.00  0.00     0.070 C 
ENDROOT
BRANCH   3   4
HETATM    4  C4  UNL     1      21.412  -0.435  53.459  1.00  0.00     0.246 C 
HETATM    5  O1  UNL     1      21.061   0.795  53.422  1.00  0.00    -0.268 OA
HETATM    6  N1  UNL     1      22.649  -1.079  53.277  1.00  0.00    -0.308 N 
HETATM    7  H6  UNL     1      22.622  -2.087  53.361  1.00  0.00     0.170 HD
BRANCH   6   8
HETATM    8  C5  UNL     1      23.447   0.077  53.016  1.00  0.00     0.128 C 
HETATM    9  C6  UNL     1      24.329   1.058  52.742  1.00  0.00     0.079 C 
HETATM   10  C7  UNL     1      25.583   1.336  53.654  1.00  0.00     0.082 C 
HETATM   11  C8  UNL     1      25.601   0.553  54.704  1.00  0.00     0.037 C 
HETATM   12  N4  UNL     1      26.068   1.900  52.378  1.00  0.00    -0.233 N 
HETATM   13  C9  UNL     1      26.137  -0.549  53.801  1.00  0.00     0.151 C 
HETATM   14  C10 UNL     1      27.273   0.157  53.196  1.00  0.00     0.141 C 
HETATM   15  N5  UNL     1      24.853  -0.833  53.068  1.00  0.00    -0.362 N 
HETATM   16  N3  UNL     1      27.271   1.018  52.179  1.00  0.00    -0.181 NA
HETATM   17  H16 UNL     1      25.276  -1.816  52.707  1.00  0.00     0.162 HD
BRANCH   9  18
HETATM   18  N2  UNL     1      23.379   1.430  51.622  1.00  0.00    -0.298 NA
HETATM   19  H7  UNL     1      23.747   1.975  50.836  1.00  0.00     0.124 HD
HETATM   20  H8  UNL     1      23.807   2.002  50.823  1.00  0.00     0.124 HD
ENDBRANCH   9  18
BRANCH  12  21
HETATM   21  C11 UNL     1      25.713   2.894  51.466  1.00  0.00     0.060 A 
HETATM   22  C12 UNL     1      26.479   2.789  50.352  1.00  0.00     0.032 A 
HETATM   23  C13 UNL     1      26.291   3.715  49.311  1.00  0.00     0.004 A 
HETATM   24  C14 UNL     1      25.308   4.685  49.529  1.00  0.00     0.019 A 
HETATM   25  C15 UNL     1      24.517   4.821  50.639  1.00  0.00     0.013 A 
HETATM   26 BR1  UNL     1      23.218   6.187  50.831  1.00  0.00    -0.051 Br
HETATM   27  C16 UNL     1      24.776   3.873  51.592  1.00  0.00     0.050 A 
ENDBRANCH  12  21
ENDBRANCH   6   8
ENDBRANCH   3   4
TORSDOF 4
ENDMDL
MODEL 8
REMARK VINA RESULT:      -6.7      3.300      6.439
REMARK  4 active torsions:
REMARK  status: ('A' for Active; 'I' for Inactive)
REMARK    1  A    between atoms: C3_3  and  C4_4 
REMARK       I    between atoms: C4_4  and  N1_6 
REMARK    2  A    between atoms: N1_6  and  C5_7 
REMARK    3  A    between atoms: C6_8  and  N2_9 
REMARK    4  A    between atoms: N4_15  and  C11_16 
ROOT
HETATM    1  C1  UNL     1      29.764  -0.261  53.624  1.00  0.00     0.036 C 
HETATM    2  C2  UNL     1      28.511   0.409  53.325  1.00  0.00    -0.026 C 
HETATM    3  C3  UNL     1      27.465   1.158  53.169  1.00  0.00     0.070 C 
ENDROOT
BRANCH   3   4
HETATM    4  C4  UNL     1      26.186   1.690  52.790  1.00  0.00     0.246 C 
HETATM    5  O1  UNL     1      25.328   0.975  53.415  1.00  0.00    -0.268 OA
HETATM    6  N1  UNL     1      26.058   2.775  51.905  1.00  0.00    -0.308 N 
HETATM    7  H6  UNL     1      26.932   3.145  51.554  1.00  0.00     0.170 HD
BRANCH   6   8
HETATM    8  C5  UNL     1      24.632   2.859  51.885  1.00  0.00     0.128 C 
HETATM    9  C6  UNL     1      23.308   3.078  51.769  1.00  0.00     0.079 C 
HETATM   10  C7  UNL     1      22.613   4.356  52.372  1.00  0.00     0.082 C 
HETATM   11  C8  UNL     1      23.465   5.104  53.030  1.00  0.00     0.037 C 
HETATM   12  N4  UNL     1      21.647   4.023  51.307  1.00  0.00    -0.233 N 
HETATM   13  C9  UNL     1      23.943   5.639  51.687  1.00  0.00     0.151 C 
HETATM   14  C10 UNL     1      22.657   6.049  51.111  1.00  0.00     0.141 C 
HETATM   15  N5  UNL     1      24.691   4.408  51.250  1.00  0.00    -0.362 N 
HETATM   16  N3  UNL     1      21.738   5.295  50.508  1.00  0.00    -0.181 NA
HETATM   17  H16 UNL     1      25.232   5.015  50.466  1.00  0.00     0.162 HD
BRANCH   9  18
HETATM   18  N2  UNL     1      23.261   1.701  51.136  1.00  0.00    -0.298 NA
HETATM   19  H7  UNL     1      22.626   1.005  51.539  1.00  0.00     0.124 HD
HETATM   20  H8  UNL     1      22.585   1.006  51.593  1.00  0.00     0.124 HD
ENDBRANCH   9  18
BRANCH  12  21
HETATM   21  C11 UNL     1      20.816   2.966  50.935  1.00  0.00     0.060 A 
HETATM   22  C12 UNL     1      20.623   2.985  49.593  1.00  0.00     0.032 A 
HETATM   23  C13 UNL     1      19.796   2.008  49.013  1.00  0.00     0.004 A 
HETATM   24  C14 UNL     1      19.232   1.084  49.900  1.00  0.00     0.019 A 
HETATM   25  C15 UNL     1      19.405   1.035  51.257  1.00  0.00     0.013 A 
HETATM   26 BR1  UNL     1      18.579  -0.262  52.366  1.00  0.00    -0.051 Br
HETATM   27  C16 UNL     1      20.226   2.026  51.722  1.00  0.00     0.050 A 
ENDBRANCH  12  21
ENDBRANCH   6   8
ENDBRANCH   3   4
TORSDOF 4
ENDMDL
MODEL 9
REMARK VINA RESULT:      -6.4      1.805      2.462
REMARK  4 active torsions:
REMARK  status: ('A' for Active; 'I' for Inactive)
REMARK    1  A    between atoms: C3_3  and  C4_4 
REMARK       I    between atoms: C4_4  and  N1_6 
REMARK    2  A    between atoms: N1_6  and  C5_7 
REMARK    3  A    between atoms: C6_8  and  N2_9 
REMARK    4  A    between atoms: N4_15  and  C11_16 
ROOT
HETATM    1  C1  UNL     1      20.594  11.115  49.030  1.00  0.00     0.036 C 
HETATM    2  C2  UNL     1      20.924   9.743  49.368  1.00  0.00    -0.026 C 
HETATM    3  C3  UNL     1      21.024   8.498  49.715  1.00  0.00     0.070 C 
ENDROOT
BRANCH   3   4
HETATM    4  C4  UNL     1      21.501   7.176  50.010  1.00  0.00     0.246 C 
HETATM    5  O1  UNL     1      21.016   6.432  49.088  1.00  0.00    -0.268 OA
HETATM    6  N1  UNL     1      22.323   6.905  51.117  1.00  0.00    -0.308 N 
HETATM    7  H6  UNL     1      22.546   7.709  51.690  1.00  0.00     0.170 HD
BRANCH   6   8
HETATM    8  C5  UNL     1      22.468   5.497  50.929  1.00  0.00     0.128 C 
HETATM    9  C6  UNL     1      22.766   4.188  50.809  1.00  0.00     0.079 C 
HETATM   10  C7  UNL     1      23.859   3.665  49.802  1.00  0.00     0.082 C 
HETATM   11  C8  UNL     1      24.363   4.640  49.087  1.00  0.00     0.037 C 
HETATM   12  N4  UNL     1      23.870   2.561  50.783  1.00  0.00    -0.233 N 
HETATM   13  C9  UNL     1      25.223   5.001  50.290  1.00  0.00     0.151 C 
HETATM   14  C10 UNL     1      25.828   3.692  50.563  1.00  0.00     0.141 C 
HETATM   15  N5  UNL     1      24.128   5.600  51.132  1.00  0.00    -0.362 N 
HETATM   16  N3  UNL     1      25.306   2.656  51.221  1.00  0.00    -0.181 NA
HETATM   17  H16 UNL     1      24.903   6.091  51.790  1.00  0.00     0.162 HD
BRANCH   9  18
HETATM   18  N2  UNL     1      21.617   3.966  51.772  1.00  0.00    -0.298 NA
HETATM   19  H7  UNL     1      21.284   4.765  52.321  1.00  0.00     0.124 HD
HETATM   20  H8  UNL     1      21.305   4.829  52.326  1.00  0.00     0.124 HD
ENDBRANCH   9  18
BRANCH  12  21
HETATM   21  C11 UNL     1      22.989   1.616  51.311  1.00  0.00     0.060 A 
HETATM   22  C12 UNL     1      22.077   1.265  50.371  1.00  0.00     0.032 A 
HETATM   23  C13 UNL     1      21.082   0.331  50.707  1.00  0.00     0.004 A 
HETATM   24  C14 UNL     1      21.126  -0.158  52.017  1.00  0.00     0.019 A 
HETATM   25  C15 UNL     1      22.030   0.173  52.990  1.00  0.00     0.013 A 
HETATM   26 BR1  UNL     1      21.986  -0.548  54.743  1.00  0.00    -0.051 Br
HETATM   27  C16 UNL     1      22.955   1.087  52.563  1.00  0.00     0.050 A 
ENDBRANCH  12  21
ENDBRANCH   6   8
ENDBRANCH   3   4
TORSDOF 4
ENDMDL
