MODEL 1
REMARK VINA RESULT:      -6.7      0.000      0.000
REMARK  7 active torsions:
REMARK  status: ('A' for Active; 'I' for Inactive)
REMARK    1  A    between atoms: O1_2  and  C2_3 
REMARK    2  A    between atoms: C4_5  and  C5_6 
REMARK    3  A    between atoms: C6_7  and  C7_8 
REMARK    4  A    between atoms: C7_8  and  C8_9 
REMARK    5  A    between atoms: C8_9  and  C9_10 
REMARK    6  A    between atoms: C12_17  and  O3_18 
REMARK    7  A    between atoms: C14_20  and  O4_21 
ROOT
HETATM    1  C2  UNL     1      26.095   4.038  49.842  1.00  0.00     0.140 A 
HETATM    2  C3  UNL     1      25.273   3.032  50.090  1.00  0.00     0.045 A 
HETATM    3  C4  UNL     1      23.967   2.950  50.861  1.00  0.00     0.112 A 
HETATM    4  C12 UNL     1      23.725   4.323  51.329  1.00  0.00     0.109 A 
HETATM    5  C14 UNL     1      24.438   5.427  51.172  1.00  0.00     0.174 A 
HETATM    6  N2  UNL     1      25.631   5.253  50.417  1.00  0.00    -0.316 N 
HETATM    7  H20 UNL     1      26.214   6.118  50.281  1.00  0.00     0.170 HD
ENDROOT
BRANCH   3   8
HETATM    8  C5  UNL     1      24.190   1.950  51.933  1.00  0.00     0.031 C 
HETATM    9  C6  UNL     1      25.015   1.672  52.936  1.00  0.00    -0.014 C 
HETATM   10  C10 UNL     1      24.734   0.289  53.474  1.00  0.00     0.302 C 
HETATM   11  F1  UNL     1      25.458  -0.622  52.636  1.00  0.00    -0.222 F 
HETATM   12  N1  UNL     1      23.370   0.075  53.099  1.00  0.00    -0.323 N 
HETATM   13  C11 UNL     1      23.111   0.933  52.004  1.00  0.00     0.251 C 
HETATM   14  H13 UNL     1      22.770  -0.611  53.609  1.00  0.00     0.166 HD
HETATM   15  O2  UNL     1      22.056   0.680  51.323  1.00  0.00    -0.268 OA
BRANCH   9  16
HETATM   16  C7  UNL     1      26.202   2.326  53.480  1.00  0.00     0.041 C 
BRANCH  16  17
HETATM   17  C8  UNL     1      27.516   2.110  52.869  1.00  0.00     0.019 C 
BRANCH  17  18
HETATM   18  C9  UNL     1      28.655   1.592  53.650  1.00  0.00     0.115 C 
HETATM   19 CL1  UNL     1      28.101   0.351  54.797  1.00  0.00    -0.130 Cl
ENDBRANCH  17  18
ENDBRANCH  16  17
ENDBRANCH   9  16
ENDBRANCH   3   8
BRANCH   4  20
HETATM   20  O3  UNL     1      22.552   4.401  52.027  1.00  0.00    -0.355 OA
HETATM   21  C13 UNL     1      21.251   4.320  51.535  1.00  0.00     0.209 C 
ENDBRANCH   4  20
BRANCH   1  22
HETATM   22  O1  UNL     1      27.267   3.941  49.112  1.00  0.00    -0.341 OA
HETATM   23  C1  UNL     1      27.919   5.049  48.535  1.00  0.00     0.211 C 
ENDBRANCH   1  22
BRANCH   5  24
HETATM   24  O4  UNL     1      24.101   6.676  51.673  1.00  0.00    -0.339 OA
HETATM   25  C15 UNL     1      23.775   7.676  50.693  1.00  0.00     0.211 C 
ENDBRANCH   5  24
TORSDOF 7
ENDMDL
MODEL 2
REMARK VINA RESULT:      -6.4      2.792      4.780
REMARK  7 active torsions:
REMARK  status: ('A' for Active; 'I' for Inactive)
REMARK    1  A    between atoms: O1_2  and  C2_3 
REMARK    2  A    between atoms: C4_5  and  C5_6 
REMARK    3  A    between atoms: C6_7  and  C7_8 
REMARK    4  A    between atoms: C7_8  and  C8_9 
REMARK    5  A    between atoms: C8_9  and  C9_10 
REMARK    6  A    between atoms: C12_17  and  O3_18 
REMARK    7  A    between atoms: C14_20  and  O4_21 
ROOT
HETATM    1  C2  UNL     1      23.985   4.470  51.990  1.00  0.00     0.140 A 
HETATM    2  C3  UNL     1      23.835   3.427  52.791  1.00  0.00     0.045 A 
HETATM    3  C4  UNL     1      24.551   2.089  52.868  1.00  0.00     0.112 A 
HETATM    4  C12 UNL     1      25.561   2.147  51.802  1.00  0.00     0.109 A 
HETATM    5  C14 UNL     1      25.837   3.099  50.924  1.00  0.00     0.174 A 
HETATM    6  N2  UNL     1      25.025   4.260  51.042  1.00  0.00    -0.316 N 
HETATM    7  H20 UNL     1      25.227   5.030  50.354  1.00  0.00     0.170 HD
ENDROOT
BRANCH   3   8
HETATM    8  C5  UNL     1      23.503   1.057  52.686  1.00  0.00     0.031 C 
HETATM    9  C6  UNL     1      22.419   0.795  51.963  1.00  0.00    -0.014 C 
HETATM   10  C10 UNL     1      21.696  -0.406  52.525  1.00  0.00     0.302 C 
HETATM   11  F1  UNL     1      20.861   0.087  53.581  1.00  0.00    -0.222 F 
HETATM   12  N1  UNL     1      22.734  -1.106  53.218  1.00  0.00    -0.323 N 
HETATM   13  C11 UNL     1      23.736  -0.151  53.516  1.00  0.00     0.251 C 
HETATM   14  H13 UNL     1      22.660  -2.128  53.413  1.00  0.00     0.166 HD
HETATM   15  O2  UNL     1      24.602  -0.496  54.396  1.00  0.00    -0.268 OA
BRANCH   9  16
HETATM   16  C7  UNL     1      21.719   1.506  50.897  1.00  0.00     0.041 C 
BRANCH  16  17
HETATM   17  C8  UNL     1      21.516   0.876  49.590  1.00  0.00     0.019 C 
BRANCH  17  18
HETATM   18  C9  UNL     1      21.720   1.620  48.334  1.00  0.00     0.115 C 
HETATM   19 CL1  UNL     1      23.103   2.728  48.492  1.00  0.00    -0.130 Cl
ENDBRANCH  17  18
ENDBRANCH  16  17
ENDBRANCH   9  16
ENDBRANCH   3   8
BRANCH   4  20
HETATM   20  O3  UNL     1      26.306   1.000  51.772  1.00  0.00    -0.355 OA
HETATM   21  C13 UNL     1      27.346   0.628  52.622  1.00  0.00     0.209 C 
ENDBRANCH   4  20
BRANCH   1  22
HETATM   22  O1  UNL     1      23.235   5.630  52.053  1.00  0.00    -0.341 OA
HETATM   23  C1  UNL     1      22.130   5.890  51.216  1.00  0.00     0.211 C 
ENDBRANCH   1  22
BRANCH   5  24
HETATM   24  O4  UNL     1      26.825   3.030  49.952  1.00  0.00    -0.339 OA
HETATM   25  C15 UNL     1      26.981   4.201  49.132  1.00  0.00     0.211 C 
ENDBRANCH   5  24
TORSDOF 7
ENDMDL
MODEL 3
REMARK VINA RESULT:      -6.0      3.149      5.142
REMARK  7 active torsions:
REMARK  status: ('A' for Active; 'I' for Inactive)
REMARK    1  A    between atoms: O1_2  and  C2_3 
REMARK    2  A    between atoms: C4_5  and  C5_6 
REMARK    3  A    between atoms: C6_7  and  C7_8 
REMARK    4  A    between atoms: C7_8  and  C8_9 
REMARK    5  A    between atoms: C8_9  and  C9_10 
REMARK    6  A    between atoms: C12_17  and  O3_18 
REMARK    7  A    between atoms: C14_20  and  O4_21 
ROOT
HETATM    1  C2  UNL     1      21.654   2.838  52.198  1.00  0.00     0.140 A 
HETATM    2  C3  UNL     1      22.740   2.690  52.939  1.00  0.00     0.045 A 
HETATM    3  C4  UNL     1      24.205   2.518  52.577  1.00  0.00     0.112 A 
HETATM    4  C12 UNL     1      24.233   2.564  51.108  1.00  0.00     0.109 A 
HETATM    5  C14 UNL     1      23.252   2.701  50.230  1.00  0.00     0.174 A 
HETATM    6  N2  UNL     1      21.961   2.837  50.809  1.00  0.00    -0.316 N 
HETATM    7  H20 UNL     1      21.166   2.947  50.128  1.00  0.00     0.170 HD
ENDROOT
BRANCH   3   8
HETATM    8  C5  UNL     1      24.623   1.228  53.176  1.00  0.00     0.031 C 
HETATM    9  C6  UNL     1      24.225  -0.033  53.303  1.00  0.00    -0.014 C 
HETATM   10  C10 UNL     1      25.102  -0.758  54.296  1.00  0.00     0.302 C 
HETATM   11  F1  UNL     1      24.565  -0.466  55.594  1.00  0.00    -0.222 F 
HETATM   12  N1  UNL     1      26.315  -0.002  54.260  1.00  0.00    -0.323 N 
HETATM   13  C11 UNL     1      25.974   1.289  53.788  1.00  0.00     0.251 C 
HETATM   14  H13 UNL     1      27.225  -0.423  54.550  1.00  0.00     0.166 HD
HETATM   15  O2  UNL     1      26.848   2.208  53.971  1.00  0.00    -0.268 OA
BRANCH   9  16
HETATM   16  C7  UNL     1      23.057  -0.777  52.839  1.00  0.00     0.041 C 
BRANCH  16  17
HETATM   17  C8  UNL     1      22.057  -1.263  53.793  1.00  0.00     0.019 C 
BRANCH  17  18
HETATM   18  C9  UNL     1      20.974  -0.393  54.286  1.00  0.00     0.115 C 
HETATM   19 CL1  UNL     1      19.621  -0.378  53.131  1.00  0.00    -0.130 Cl
ENDBRANCH  17  18
ENDBRANCH  16  17
ENDBRANCH   9  16
ENDBRANCH   3   8
BRANCH   4  20
HETATM   20  O3  UNL     1      25.513   2.444  50.640  1.00  0.00    -0.355 OA
HETATM   21  C13 UNL     1      26.438   3.457  50.397  1.00  0.00     0.209 C 
ENDBRANCH   4  20
BRANCH   1  22
HETATM   22  O1  UNL     1      20.371   2.980  52.694  1.00  0.00    -0.341 OA
HETATM   23  C1  UNL     1      19.223   3.044  51.877  1.00  0.00     0.211 C 
ENDBRANCH   1  22
BRANCH   5  24
HETATM   24  O4  UNL     1      23.409   2.723  48.851  1.00  0.00    -0.339 OA
HETATM   25  C15 UNL     1      22.338   2.144  48.089  1.00  0.00     0.211 C 
ENDBRANCH   5  24
TORSDOF 7
ENDMDL
MODEL 4
REMARK VINA RESULT:      -5.9      3.688      5.750
REMARK  7 active torsions:
REMARK  status: ('A' for Active; 'I' for Inactive)
REMARK    1  A    between atoms: O1_2  and  C2_3 
REMARK    2  A    between atoms: C4_5  and  C5_6 
REMARK    3  A    between atoms: C6_7  and  C7_8 
REMARK    4  A    between atoms: C7_8  and  C8_9 
REMARK    5  A    between atoms: C8_9  and  C9_10 
REMARK    6  A    between atoms: C12_17  and  O3_18 
REMARK    7  A    between atoms: C14_20  and  O4_21 
ROOT
HETATM    1  C2  UNL     1      24.478   3.000  51.732  1.00  0.00     0.140 A 
HETATM    2  C3  UNL     1      23.470   2.594  52.488  1.00  0.00     0.045 A 
HETATM    3  C4  UNL     1      23.199   1.284  53.208  1.00  0.00     0.112 A 
HETATM    4  C12 UNL     1      24.372   0.448  52.913  1.00  0.00     0.109 A 
HETATM    5  C14 UNL     1      25.449   0.698  52.183  1.00  0.00     0.174 A 
HETATM    6  N2  UNL     1      25.474   1.994  51.599  1.00  0.00    -0.316 N 
HETATM    7  H20 UNL     1      26.321   2.213  51.014  1.00  0.00     0.170 HD
ENDROOT
BRANCH   3   8
HETATM    8  C5  UNL     1      21.915   0.780  52.665  1.00  0.00     0.031 C 
HETATM    9  C6  UNL     1      21.296   0.547  51.512  1.00  0.00    -0.014 C 
HETATM   10  C10 UNL     1      19.840   0.233  51.758  1.00  0.00     0.302 C 
HETATM   11  F1  UNL     1      19.168   1.496  51.853  1.00  0.00    -0.222 F 
HETATM   12  N1  UNL     1      19.841  -0.247  53.105  1.00  0.00    -0.323 N 
HETATM   13  C11 UNL     1      21.000   0.282  53.723  1.00  0.00     0.251 C 
HETATM   14  H13 UNL     1      19.079  -0.866  53.460  1.00  0.00     0.166 HD
HETATM   15  O2  UNL     1      21.033   0.232  55.002  1.00  0.00    -0.268 OA
BRANCH   9  16
HETATM   16  C7  UNL     1      21.676   0.703  50.111  1.00  0.00     0.041 C 
BRANCH  16  17
HETATM   17  C8  UNL     1      21.566   2.006  49.451  1.00  0.00     0.019 C 
BRANCH  17  18
HETATM   18  C9  UNL     1      20.705   2.202  48.270  1.00  0.00     0.115 C 
HETATM   19 CL1  UNL     1      19.023   2.483  48.774  1.00  0.00    -0.130 Cl
ENDBRANCH  17  18
ENDBRANCH  16  17
ENDBRANCH   9  16
ENDBRANCH   3   8
BRANCH   4  20
HETATM   20  O3  UNL     1      24.272  -0.769  53.527  1.00  0.00    -0.355 OA
HETATM   21  C13 UNL     1      24.492  -1.076  54.869  1.00  0.00     0.209 C 
ENDBRANCH   4  20
BRANCH   1  22
HETATM   22  O1  UNL     1      24.569   4.245  51.138  1.00  0.00    -0.341 OA
HETATM   23  C1  UNL     1      23.586   5.247  51.272  1.00  0.00     0.211 C 
ENDBRANCH   1  22
BRANCH   5  24
HETATM   24  O4  UNL     1      26.498  -0.187  51.975  1.00  0.00    -0.339 OA
HETATM   25  C15 UNL     1      27.622  -0.045  52.859  1.00  0.00     0.211 C 
ENDBRANCH   5  24
TORSDOF 7
ENDMDL
MODEL 5
REMARK VINA RESULT:      -5.7      2.825      3.666
REMARK  7 active torsions:
REMARK  status: ('A' for Active; 'I' for Inactive)
REMARK    1  A    between atoms: O1_2  and  C2_3 
REMARK    2  A    between atoms: C4_5  and  C5_6 
REMARK    3  A    between atoms: C6_7  and  C7_8 
REMARK    4  A    between atoms: C7_8  and  C8_9 
REMARK    5  A    between atoms: C8_9  and  C9_10 
REMARK    6  A    between atoms: C12_17  and  O3_18 
REMARK    7  A    between atoms: C14_20  and  O4_21 
ROOT
HETATM    1  C2  UNL     1      25.958   3.295  50.522  1.00  0.00     0.140 A 
HETATM    2  C3  UNL     1      24.980   2.802  49.781  1.00  0.00     0.045 A 
HETATM    3  C4  UNL     1      23.739   3.437  49.176  1.00  0.00     0.112 A 
HETATM    4  C12 UNL     1      23.813   4.849  49.575  1.00  0.00     0.109 A 
HETATM    5  C14 UNL     1      24.709   5.495  50.306  1.00  0.00     0.174 A 
HETATM    6  N2  UNL     1      25.780   4.684  50.771  1.00  0.00    -0.316 N 
HETATM    7  H20 UNL     1      26.504   5.177  51.355  1.00  0.00     0.170 HD
ENDROOT
BRANCH   3   8
HETATM    8  C5  UNL     1      22.587   2.685  49.728  1.00  0.00     0.031 C 
HETATM    9  C6  UNL     1      22.088   2.253  50.882  1.00  0.00    -0.014 C 
HETATM   10  C10 UNL     1      20.938   1.308  50.629  1.00  0.00     0.302 C 
HETATM   11  F1  UNL     1      21.522   0.016  50.408  1.00  0.00    -0.222 F 
HETATM   12  N1  UNL     1      20.486   1.697  49.329  1.00  0.00    -0.323 N 
HETATM   13  C11 UNL     1      21.578   2.339  48.696  1.00  0.00     0.251 C 
HETATM   14  H13 UNL     1      19.513   1.494  49.011  1.00  0.00     0.166 HD
HETATM   15  O2  UNL     1      21.489   2.488  47.427  1.00  0.00    -0.268 OA
BRANCH   9  16
HETATM   16  C7  UNL     1      22.519   2.358  52.273  1.00  0.00     0.041 C 
BRANCH  16  17
HETATM   17  C8  UNL     1      23.462   1.389  52.834  1.00  0.00     0.019 C 
BRANCH  17  18
HETATM   18  C9  UNL     1      23.006   0.106  53.400  1.00  0.00     0.115 C 
HETATM   19 CL1  UNL     1      21.419   0.307  54.180  1.00  0.00    -0.130 Cl
ENDBRANCH  17  18
ENDBRANCH  16  17
ENDBRANCH   9  16
ENDBRANCH   3   8
BRANCH   4  20
HETATM   20  O3  UNL     1      22.756   5.555  49.071  1.00  0.00    -0.355 OA
HETATM   21  C13 UNL     1      22.594   6.056  47.780  1.00  0.00     0.209 C 
ENDBRANCH   4  20
BRANCH   1  22
HETATM   22  O1  UNL     1      27.031   2.567  51.003  1.00  0.00    -0.341 OA
HETATM   23  C1  UNL     1      27.113   2.080  52.324  1.00  0.00     0.211 C 
ENDBRANCH   1  22
BRANCH   5  24
HETATM   24  O4  UNL     1      24.663   6.845  50.620  1.00  0.00    -0.339 OA
HETATM   25  C15 UNL     1      25.807   7.620  50.223  1.00  0.00     0.211 C 
ENDBRANCH   5  24
TORSDOF 7
ENDMDL
MODEL 6
REMARK VINA RESULT:      -5.7      7.006     10.558
REMARK  7 active torsions:
REMARK  status: ('A' for Active; 'I' for Inactive)
REMARK    1  A    between atoms: O1_2  and  C2_3 
REMARK    2  A    between atoms: C4_5  and  C5_6 
REMARK    3  A    between atoms: C6_7  and  C7_8 
REMARK    4  A    between atoms: C7_8  and  C8_9 
REMARK    5  A    between atoms: C8_9  and  C9_10 
REMARK    6  A    between atoms: C12_17  and  O3_18 
REMARK    7  A    between atoms: C14_20  and  O4_21 
ROOT
HETATM    1  C2  UNL     1      30.427   5.473  48.267  1.00  0.00     0.140 A 
HETATM    2  C3  UNL     1      31.578   4.931  47.905  1.00  0.00     0.045 A 
HETATM    3  C4  UNL     1      33.013   5.419  48.013  1.00  0.00     0.112 A 
HETATM    4  C12 UNL     1      32.911   6.729  48.673  1.00  0.00     0.109 A 
HETATM    5  C14 UNL     1      31.853   7.405  49.091  1.00  0.00     0.174 A 
HETATM    6  N2  UNL     1      30.612   6.746  48.873  1.00  0.00    -0.316 N 
HETATM    7  H20 UNL     1      29.756   7.266  49.197  1.00  0.00     0.170 HD
ENDROOT
BRANCH   3   8
HETATM    8  C5  UNL     1      33.537   5.451  46.627  1.00  0.00     0.031 C 
HETATM    9  C6  UNL     1      33.471   6.167  45.509  1.00  0.00    -0.014 C 
HETATM   10  C10 UNL     1      34.129   5.421  44.373  1.00  0.00     0.302 C 
HETATM   11  F1  UNL     1      33.135   4.528  43.851  1.00  0.00    -0.222 F 
HETATM   12  N1  UNL     1      35.038   4.549  45.051  1.00  0.00    -0.323 N 
HETATM   13  C11 UNL     1      34.541   4.389  46.367  1.00  0.00     0.251 C 
HETATM   14  H13 UNL     1      35.878   4.162  44.568  1.00  0.00     0.166 HD
HETATM   15  O2  UNL     1      35.027   3.414  47.041  1.00  0.00    -0.268 OA
BRANCH   9  16
HETATM   16  C7  UNL     1      32.764   7.388  45.132  1.00  0.00     0.041 C 
BRANCH  16  17
HETATM   17  C8  UNL     1      31.301   7.433  45.138  1.00  0.00     0.019 C 
BRANCH  17  18
HETATM   18  C9  UNL     1      30.565   8.558  45.745  1.00  0.00     0.115 C 
HETATM   19 CL1  UNL     1      28.877   8.094  46.057  1.00  0.00    -0.130 Cl
ENDBRANCH  17  18
ENDBRANCH  16  17
ENDBRANCH   9  16
ENDBRANCH   3   8
BRANCH   4  20
HETATM   20  O3  UNL     1      34.149   7.279  48.859  1.00  0.00    -0.355 OA
HETATM   21  C13 UNL     1      34.734   8.335  48.161  1.00  0.00     0.209 C 
ENDBRANCH   4  20
BRANCH   1  22
HETATM   22  O1  UNL     1      29.186   4.887  48.090  1.00  0.00    -0.341 OA
HETATM   23  C1  UNL     1      27.973   5.507  48.451  1.00  0.00     0.211 C 
ENDBRANCH   1  22
BRANCH   5  24
HETATM   24  O4  UNL     1      31.888   8.650  49.702  1.00  0.00    -0.339 OA
HETATM   25  C15 UNL     1      30.767   9.510  49.439  1.00  0.00     0.211 C 
ENDBRANCH   5  24
TORSDOF 7
ENDMDL
MODEL 7
REMARK VINA RESULT:      -5.6      3.234      5.825
REMARK  7 active torsions:
REMARK  status: ('A' for Active; 'I' for Inactive)
REMARK    1  A    between atoms: O1_2  and  C2_3 
REMARK    2  A    between atoms: C4_5  and  C5_6 
REMARK    3  A    between atoms: C6_7  and  C7_8 
REMARK    4  A    between atoms: C7_8  and  C8_9 
REMARK    5  A    between atoms: C8_9  and  C9_10 
REMARK    6  A    between atoms: C12_17  and  O3_18 
REMARK    7  A    between atoms: C14_20  and  O4_21 
ROOT
HETATM    1  C2  UNL     1      24.720   0.587  52.986  1.00  0.00     0.140 A 
HETATM    2  C3  UNL     1      24.077   1.214  52.015  1.00  0.00     0.045 A 
HETATM    3  C4  UNL     1      24.498   2.321  51.063  1.00  0.00     0.112 A 
HETATM    4  C12 UNL     1      25.895   2.607  51.419  1.00  0.00     0.109 A 
HETATM    5  C14 UNL     1      26.673   2.080  52.352  1.00  0.00     0.174 A 
HETATM    6  N2  UNL     1      26.053   1.063  53.128  1.00  0.00    -0.316 N 
HETATM    7  H20 UNL     1      26.653   0.631  53.877  1.00  0.00     0.170 HD
ENDROOT
BRANCH   3   8
HETATM    8  C5  UNL     1      23.548   3.436  51.291  1.00  0.00     0.031 C 
HETATM    9  C6  UNL     1      22.549   4.085  50.702  1.00  0.00    -0.014 C 
HETATM   10  C10 UNL     1      22.200   5.327  51.487  1.00  0.00     0.302 C 
HETATM   11  F1  UNL     1      23.109   6.347  51.050  1.00  0.00    -0.222 F 
HETATM   12  N1  UNL     1      22.662   5.010  52.804  1.00  0.00    -0.323 N 
HETATM   13  C11 UNL     1      23.654   4.012  52.655  1.00  0.00     0.251 C 
HETATM   14  H13 UNL     1      22.270   5.489  53.645  1.00  0.00     0.166 HD
HETATM   15  O2  UNL     1      24.410   3.809  53.670  1.00  0.00    -0.268 OA
BRANCH   9  16
HETATM   16  C7  UNL     1      21.874   3.947  49.415  1.00  0.00     0.041 C 
BRANCH  16  17
HETATM   17  C8  UNL     1      22.623   3.553  48.220  1.00  0.00     0.019 C 
BRANCH  17  18
HETATM   18  C9  UNL     1      22.503   2.200  47.645  1.00  0.00     0.115 C 
HETATM   19 CL1  UNL     1      21.528   1.162  48.711  1.00  0.00    -0.130 Cl
ENDBRANCH  17  18
ENDBRANCH  16  17
ENDBRANCH   9  16
ENDBRANCH   3   8
BRANCH   4  20
HETATM   20  O3  UNL     1      26.415   3.581  50.613  1.00  0.00    -0.355 OA
HETATM   21  C13 UNL     1      26.448   3.618  49.221  1.00  0.00     0.209 C 
ENDBRANCH   4  20
BRANCH   1  22
HETATM   22  O1  UNL     1      24.181  -0.413  53.775  1.00  0.00    -0.341 OA
HETATM   23  C1  UNL     1      22.840  -0.840  53.683  1.00  0.00     0.211 C 
ENDBRANCH   1  22
BRANCH   5  24
HETATM   24  O4  UNL     1      27.989   2.444  52.596  1.00  0.00    -0.339 OA
HETATM   25  C15 UNL     1      28.601   1.847  53.751  1.00  0.00     0.211 C 
ENDBRANCH   5  24
TORSDOF 7
ENDMDL
MODEL 8
REMARK VINA RESULT:      -5.5      3.387      4.754
REMARK  7 active torsions:
REMARK  status: ('A' for Active; 'I' for Inactive)
REMARK    1  A    between atoms: O1_2  and  C2_3 
REMARK    2  A    between atoms: C4_5  and  C5_6 
REMARK    3  A    between atoms: C6_7  and  C7_8 
REMARK    4  A    between atoms: C7_8  and  C8_9 
REMARK    5  A    between atoms: C8_9  and  C9_10 
REMARK    6  A    between atoms: C12_17  and  O3_18 
REMARK    7  A    between atoms: C14_20  and  O4_21 
ROOT
HETATM    1  C2  UNL     1      21.188   2.084  49.538  1.00  0.00     0.140 A 
HETATM    2  C3  UNL     1      22.009   1.391  50.310  1.00  0.00     0.045 A 
HETATM    3  C4  UNL     1      21.951   1.016  51.781  1.00  0.00     0.112 A 
HETATM    4  C12 UNL     1      20.688   1.594  52.263  1.00  0.00     0.109 A 
HETATM    5  C14 UNL     1      19.767   2.306  51.631  1.00  0.00     0.174 A 
HETATM    6  N2  UNL     1      20.047   2.538  50.256  1.00  0.00    -0.316 N 
HETATM    7  H20 UNL     1      19.329   3.102  49.734  1.00  0.00     0.170 HD
ENDROOT
BRANCH   3   8
HETATM    8  C5  UNL     1      23.176   1.581  52.394  1.00  0.00     0.031 C 
HETATM    9  C6  UNL     1      23.756   2.745  52.669  1.00  0.00    -0.014 C 
HETATM   10  C10 UNL     1      25.181   2.523  53.118  1.00  0.00     0.302 C 
HETATM   11  F1  UNL     1      25.968   2.423  51.922  1.00  0.00    -0.222 F 
HETATM   12  N1  UNL     1      25.153   1.181  53.612  1.00  0.00    -0.323 N 
HETATM   13  C11 UNL     1      24.055   0.542  52.987  1.00  0.00     0.251 C 
HETATM   14  H13 UNL     1      25.859   0.843  54.302  1.00  0.00     0.166 HD
HETATM   15  O2  UNL     1      24.034  -0.737  53.049  1.00  0.00    -0.268 OA
BRANCH   9  16
HETATM   16  C7  UNL     1      23.375   4.139  52.461  1.00  0.00     0.041 C 
BRANCH  16  17
HETATM   17  C8  UNL     1      23.995   4.929  51.396  1.00  0.00     0.019 C 
BRANCH  17  18
HETATM   18  C9  UNL     1      23.788   4.604  49.972  1.00  0.00     0.115 C 
HETATM   19 CL1  UNL     1      25.251   3.856  49.292  1.00  0.00    -0.130 Cl
ENDBRANCH  17  18
ENDBRANCH  16  17
ENDBRANCH   9  16
ENDBRANCH   3   8
BRANCH   4  20
HETATM   20  O3  UNL     1      20.492   1.308  53.586  1.00  0.00    -0.355 OA
HETATM   21  C13 UNL     1      20.512   0.061  54.207  1.00  0.00     0.209 C 
ENDBRANCH   4  20
BRANCH   1  22
HETATM   22  O1  UNL     1      21.394   2.342  48.195  1.00  0.00    -0.341 OA
HETATM   23  C1  UNL     1      22.599   2.053  47.522  1.00  0.00     0.211 C 
ENDBRANCH   1  22
BRANCH   5  24
HETATM   24  O4  UNL     1      18.607   2.805  52.205  1.00  0.00    -0.339 OA
HETATM   25  C15 UNL     1      17.856   3.728  51.399  1.00  0.00     0.211 C 
ENDBRANCH   5  24
TORSDOF 7
ENDMDL
MODEL 9
REMARK VINA RESULT:      -5.5      2.989      5.491
REMARK  7 active torsions:
REMARK  status: ('A' for Active; 'I' for Inactive)
REMARK    1  A    between atoms: O1_2  and  C2_3 
REMARK    2  A    between atoms: C4_5  and  C5_6 
REMARK    3  A    between atoms: C6_7  and  C7_8 
REMARK    4  A    between atoms: C7_8  and  C8_9 
REMARK    5  A    between atoms: C8_9  and  C9_10 
REMARK    6  A    between atoms: C12_17  and  O3_18 
REMARK    7  A    between atoms: C14_20  and  O4_21 
ROOT
HETATM    1  C2  UNL     1      24.482   0.005  53.907  1.00  0.00     0.140 A 
HETATM    2  C3  UNL     1      23.927   0.366  52.762  1.00  0.00     0.045 A 
HETATM    3  C4  UNL     1      24.290   1.435  51.745  1.00  0.00     0.112 A 
HETATM    4  C12 UNL     1      25.502   2.066  52.287  1.00  0.00     0.109 A 
HETATM    5  C14 UNL     1      26.174   1.830  53.404  1.00  0.00     0.174 A 
HETATM    6  N2  UNL     1      25.635   0.784  54.202  1.00  0.00    -0.316 N 
HETATM    7  H20 UNL     1      26.153   0.579  55.095  1.00  0.00     0.170 HD
ENDROOT
BRANCH   3   8
HETATM    8  C5  UNL     1      23.107   2.323  51.649  1.00  0.00     0.031 C 
HETATM    9  C6  UNL     1      22.692   3.538  51.990  1.00  0.00    -0.014 C 
HETATM   10  C10 UNL     1      21.207   3.668  51.745  1.00  0.00     0.302 C 
HETATM   11  F1  UNL     1      20.561   3.130  52.907  1.00  0.00    -0.222 F 
HETATM   12  N1  UNL     1      20.963   2.680  50.740  1.00  0.00    -0.323 N 
HETATM   13  C11 UNL     1      22.011   1.734  50.840  1.00  0.00     0.251 C 
HETATM   14  H13 UNL     1      20.136   2.746  50.107  1.00  0.00     0.166 HD
HETATM   15  O2  UNL     1      21.820   0.614  50.247  1.00  0.00    -0.268 OA
BRANCH   9  16
HETATM   16  C7  UNL     1      23.312   4.659  52.690  1.00  0.00     0.041 C 
BRANCH  16  17
HETATM   17  C8  UNL     1      23.751   5.846  51.952  1.00  0.00     0.019 C 
BRANCH  17  18
HETATM   18  C9  UNL     1      24.017   5.800  50.503  1.00  0.00     0.115 C 
HETATM   19 CL1  UNL     1      25.603   6.523  50.145  1.00  0.00    -0.130 Cl
ENDBRANCH  17  18
ENDBRANCH  16  17
ENDBRANCH   9  16
ENDBRANCH   3   8
BRANCH   4  20
HETATM   20  O3  UNL     1      25.960   3.045  51.449  1.00  0.00    -0.355 OA
HETATM   21  C13 UNL     1      26.479   2.903  50.164  1.00  0.00     0.209 C 
ENDBRANCH   4  20
BRANCH   1  22
HETATM   22  O1  UNL     1      24.015  -1.005  54.729  1.00  0.00    -0.341 OA
HETATM   23  C1  UNL     1      22.648  -1.220  54.999  1.00  0.00     0.211 C 
ENDBRANCH   1  22
BRANCH   5  24
HETATM   24  O4  UNL     1      27.315   2.507  53.811  1.00  0.00    -0.339 OA
HETATM   25  C15 UNL     1      28.565   1.868  53.504  1.00  0.00     0.211 C 
ENDBRANCH   5  24
TORSDOF 7
ENDMDL
