MODEL 1
REMARK VINA RESULT:      -9.5      0.000      0.000
REMARK  2 active torsions:
REMARK  status: ('A' for Active; 'I' for Inactive)
REMARK    1  A    between atoms: O1_1  and  C1_2 
REMARK    2  A    between atoms: C2_3  and  C3_4 
ROOT
HETATM    1  C3  UNL     1      23.670   2.422  51.086  1.00  0.00     0.077 C 
HETATM    2  C4  UNL     1      23.942   3.221  49.831  1.00  0.00    -0.061 C 
HETATM    3  C5  UNL     1      25.233   3.474  49.854  1.00  0.00     0.036 C 
HETATM    4  C6  UNL     1      25.941   2.771  50.908  1.00  0.00     0.068 A 
HETATM    5  N1  UNL     1      27.186   2.569  51.373  1.00  0.00    -0.242 NA
HETATM    6  C7  UNL     1      27.376   1.697  52.413  1.00  0.00     0.234 A 
HETATM    7  N2  UNL     1      26.363   1.021  53.002  1.00  0.00    -0.239 NA
HETATM    8  C8  UNL     1      25.098   1.178  52.589  1.00  0.00     0.103 A 
HETATM    9  C9  UNL     1      24.991   2.057  51.561  1.00  0.00     0.014 A 
HETATM   10  C10 UNL     1      24.164   0.368  53.301  1.00  0.00     0.142 C 
HETATM   11  F1  UNL     1      24.483  -0.474  54.311  1.00  0.00    -0.207 F 
HETATM   12  C11 UNL     1      23.017  -0.144  53.634  1.00  0.00     0.155 A 
HETATM   13  C12 UNL     1      21.615  -0.308  53.527  1.00  0.00    -0.000 A 
HETATM   14 BR1  UNL     1      22.271  -1.441  54.929  1.00  0.00    -0.114 Br
HETATM   15  C13 UNL     1      20.348  -0.260  53.210  1.00  0.00     0.017 C 
HETATM   16  C14 UNL     1      19.363   0.343  52.332  1.00  0.00     0.018 C 
HETATM   17  C15 UNL     1      19.159   1.180  51.356  1.00  0.00     0.084 C 
HETATM   18  N3  UNL     1      19.667   2.115  50.424  1.00  0.00    -0.383 N 
HETATM   19  C16 UNL     1      19.696   2.079  48.963  1.00  0.00     0.240 C 
HETATM   20  N4  UNL     1      20.290   3.178  48.335  1.00  0.00    -0.397 N 
HETATM   21  C17 UNL     1      21.221   2.959  47.271  1.00  0.00     0.119 C 
HETATM   22  C18 UNL     1      22.657   3.340  47.648  1.00  0.00     0.028 C 
HETATM   23  C19 UNL     1      22.647   3.326  49.168  1.00  0.00     0.018 C 
HETATM   24  C20 UNL     1      21.898   4.549  49.571  1.00  0.00     0.028 C 
HETATM   25  C21 UNL     1      20.475   4.391  49.053  1.00  0.00     0.119 C 
HETATM   26  H11 UNL     1      20.042   2.868  51.081  1.00  0.00     0.160 HD
ENDROOT
BRANCH   1  27
HETATM   27  C2  UNL     1      23.074   3.305  52.152  1.00  0.00     0.011 C 
HETATM   28  C1  UNL     1      23.263   4.430  52.810  1.00  0.00     0.128 C 
BRANCH  28  29
HETATM   29  O1  UNL     1      23.941   5.568  53.116  1.00  0.00    -0.373 OA
HETATM   30  H1  UNL     1      24.602   6.067  52.538  1.00  0.00     0.216 HD
ENDBRANCH  28  29
ENDBRANCH   1  27
TORSDOF 2
ENDMDL
MODEL 2
REMARK VINA RESULT:      -9.4      1.826      2.984
REMARK  2 active torsions:
REMARK  status: ('A' for Active; 'I' for Inactive)
REMARK    1  A    between atoms: O1_1  and  C1_2 
REMARK    2  A    between atoms: C2_3  and  C3_4 
ROOT
HETATM    1  C3  UNL     1      23.313   3.096  50.737  1.00  0.00     0.077 C 
HETATM    2  C4  UNL     1      22.299   3.796  49.860  1.00  0.00    -0.061 C 
HETATM    3  C5  UNL     1      22.990   4.673  49.163  1.00  0.00     0.036 C 
HETATM    4  C6  UNL     1      24.425   4.536  49.323  1.00  0.00     0.068 A 
HETATM    5  N1  UNL     1      25.579   5.044  48.856  1.00  0.00    -0.242 NA
HETATM    6  C7  UNL     1      26.765   4.497  49.273  1.00  0.00     0.234 A 
HETATM    7  N2  UNL     1      26.833   3.461  50.140  1.00  0.00    -0.239 NA
HETATM    8  C8  UNL     1      25.721   2.909  50.644  1.00  0.00     0.103 A 
HETATM    9  C9  UNL     1      24.591   3.505  50.187  1.00  0.00     0.014 A 
HETATM   10  C10 UNL     1      25.979   1.809  51.516  1.00  0.00     0.142 C 
HETATM   11  F1  UNL     1      27.210   1.352  51.840  1.00  0.00    -0.207 F 
HETATM   12  C11 UNL     1      25.725   0.820  52.318  1.00  0.00     0.155 A 
HETATM   13  C12 UNL     1      24.873  -0.047  53.045  1.00  0.00    -0.000 A 
HETATM   14 BR1  UNL     1      26.696  -0.543  53.376  1.00  0.00    -0.114 Br
HETATM   15  C13 UNL     1      23.871  -0.683  53.592  1.00  0.00     0.017 C 
HETATM   16  C14 UNL     1      22.426  -0.756  53.703  1.00  0.00     0.018 C 
HETATM   17  C15 UNL     1      21.290  -0.240  53.333  1.00  0.00     0.084 C 
HETATM   18  N3  UNL     1      20.573   0.728  52.591  1.00  0.00    -0.383 N 
HETATM   19  C16 UNL     1      19.641   0.569  51.475  1.00  0.00     0.240 C 
HETATM   20  N4  UNL     1      19.105   1.750  50.952  1.00  0.00    -0.397 N 
HETATM   21  C17 UNL     1      19.065   1.934  49.534  1.00  0.00     0.119 C 
HETATM   22  C18 UNL     1      20.023   3.029  49.048  1.00  0.00     0.028 C 
HETATM   23  C19 UNL     1      21.026   3.160  50.183  1.00  0.00     0.018 C 
HETATM   24  C20 UNL     1      20.299   3.862  51.277  1.00  0.00     0.028 C 
HETATM   25  C21 UNL     1      19.161   2.951  51.711  1.00  0.00     0.119 C 
HETATM   26  H11 UNL     1      20.905   1.626  53.061  1.00  0.00     0.160 HD
ENDROOT
BRANCH   1  27
HETATM   27  C2  UNL     1      23.267   3.651  52.138  1.00  0.00     0.011 C 
HETATM   28  C1  UNL     1      23.576   4.709  52.859  1.00  0.00     0.128 C 
BRANCH  28  29
HETATM   29  O1  UNL     1      24.078   5.958  53.043  1.00  0.00    -0.373 OA
HETATM   30  H1  UNL     1      25.029   6.215  53.268  1.00  0.00     0.216 HD
ENDBRANCH  28  29
ENDBRANCH   1  27
TORSDOF 2
ENDMDL
MODEL 3
REMARK VINA RESULT:      -9.0      2.218      2.952
REMARK  2 active torsions:
REMARK  status: ('A' for Active; 'I' for Inactive)
REMARK    1  A    between atoms: O1_1  and  C1_2 
REMARK    2  A    between atoms: C2_3  and  C3_4 
ROOT
HETATM    1  C3  UNL     1      22.125   1.413  51.585  1.00  0.00     0.077 C 
HETATM    2  C4  UNL     1      23.203   2.096  50.772  1.00  0.00    -0.061 C 
HETATM    3  C5  UNL     1      24.326   1.857  51.415  1.00  0.00     0.036 C 
HETATM    4  C6  UNL     1      24.178   0.911  52.505  1.00  0.00     0.068 A 
HETATM    5  N1  UNL     1      24.910   0.252  53.420  1.00  0.00    -0.242 NA
HETATM    6  C7  UNL     1      24.292  -0.662  54.235  1.00  0.00     0.234 A 
HETATM    7  N2  UNL     1      22.970  -0.937  54.163  1.00  0.00    -0.239 NA
HETATM    8  C8  UNL     1      22.183  -0.314  53.275  1.00  0.00     0.103 A 
HETATM    9  C9  UNL     1      22.865   0.575  52.509  1.00  0.00     0.014 A 
HETATM   10  C10 UNL     1      20.824  -0.748  53.319  1.00  0.00     0.142 C 
HETATM   11  F1  UNL     1      20.337  -1.679  54.171  1.00  0.00    -0.207 F 
HETATM   12  C11 UNL     1      19.567  -0.813  52.999  1.00  0.00     0.155 A 
HETATM   13  C12 UNL     1      18.421  -0.448  52.252  1.00  0.00    -0.000 A 
HETATM   14 BR1  UNL     1      17.930  -1.786  53.535  1.00  0.00    -0.114 Br
HETATM   15  C13 UNL     1      17.552   0.071  51.425  1.00  0.00     0.017 C 
HETATM   16  C14 UNL     1      17.358   1.021  50.345  1.00  0.00     0.018 C 
HETATM   17  C15 UNL     1      17.922   1.905  49.574  1.00  0.00     0.084 C 
HETATM   18  N3  UNL     1      19.077   2.618  49.175  1.00  0.00    -0.383 N 
HETATM   19  C16 UNL     1      19.799   2.620  47.904  1.00  0.00     0.240 C 
HETATM   20  N4  UNL     1      20.927   3.443  47.842  1.00  0.00    -0.397 N 
HETATM   21  C17 UNL     1      22.139   2.932  47.280  1.00  0.00     0.119 C 
HETATM   22  C18 UNL     1      23.248   2.747  48.322  1.00  0.00     0.028 C 
HETATM   23  C19 UNL     1      22.497   2.690  49.643  1.00  0.00     0.018 C 
HETATM   24  C20 UNL     1      22.063   4.089  49.913  1.00  0.00     0.028 C 
HETATM   25  C21 UNL     1      21.102   4.480  48.800  1.00  0.00     0.119 C 
HETATM   26  H11 UNL     1      19.295   3.159  50.068  1.00  0.00     0.160 HD
ENDROOT
BRANCH   1  27
HETATM   27  C2  UNL     1      21.390   2.420  52.433  1.00  0.00     0.011 C 
HETATM   28  C1  UNL     1      20.249   3.068  52.541  1.00  0.00     0.128 C 
BRANCH  28  29
HETATM   29  O1  UNL     1      18.990   3.399  52.151  1.00  0.00    -0.373 OA
HETATM   30  H1  UNL     1      18.594   4.325  52.062  1.00  0.00     0.216 HD
ENDBRANCH  28  29
ENDBRANCH   1  27
TORSDOF 2
ENDMDL
MODEL 4
REMARK VINA RESULT:      -8.7      2.874      6.553
REMARK  2 active torsions:
REMARK  status: ('A' for Active; 'I' for Inactive)
REMARK    1  A    between atoms: O1_1  and  C1_2 
REMARK    2  A    between atoms: C2_3  and  C3_4 
ROOT
HETATM    1  C3  UNL     1      22.448   1.765  51.507  1.00  0.00     0.077 C 
HETATM    2  C4  UNL     1      23.012   0.699  52.421  1.00  0.00    -0.061 C 
HETATM    3  C5  UNL     1      21.985  -0.056  52.749  1.00  0.00     0.036 C 
HETATM    4  C6  UNL     1      20.778   0.258  52.007  1.00  0.00     0.068 A 
HETATM    5  N1  UNL     1      19.514  -0.170  51.844  1.00  0.00    -0.242 NA
HETATM    6  C7  UNL     1      18.721   0.435  50.903  1.00  0.00     0.234 A 
HETATM    7  N2  UNL     1      19.152   1.452  50.122  1.00  0.00    -0.239 NA
HETATM    8  C8  UNL     1      20.399   1.927  50.235  1.00  0.00     0.103 A 
HETATM    9  C9  UNL     1      21.119   1.281  51.186  1.00  0.00     0.014 A 
HETATM   10  C10 UNL     1      20.691   2.978  49.314  1.00  0.00     0.142 C 
HETATM   11  F1  UNL     1      19.816   3.482  48.414  1.00  0.00    -0.207 F 
HETATM   12  C11 UNL     1      21.385   3.894  48.708  1.00  0.00     0.155 A 
HETATM   13  C12 UNL     1      22.550   4.661  48.468  1.00  0.00    -0.000 A 
HETATM   14 BR1  UNL     1      21.169   5.234  47.268  1.00  0.00    -0.114 Br
HETATM   15  C13 UNL     1      23.740   5.202  48.465  1.00  0.00     0.017 C 
HETATM   16  C14 UNL     1      25.056   5.187  49.076  1.00  0.00     0.018 C 
HETATM   17  C15 UNL     1      25.819   4.637  49.976  1.00  0.00     0.084 C 
HETATM   18  N3  UNL     1      25.997   3.692  51.013  1.00  0.00    -0.383 N 
HETATM   19  C16 UNL     1      26.882   2.531  51.098  1.00  0.00     0.240 C 
HETATM   20  N4  UNL     1      26.803   1.786  52.278  1.00  0.00    -0.397 N 
HETATM   21  C17 UNL     1      26.735   0.359  52.203  1.00  0.00     0.119 C 
HETATM   22  C18 UNL     1      25.374  -0.196  52.638  1.00  0.00     0.028 C 
HETATM   23  C19 UNL     1      24.438   0.994  52.501  1.00  0.00     0.018 C 
HETATM   24  C20 UNL     1      24.772   1.895  53.639  1.00  0.00     0.028 C 
HETATM   25  C21 UNL     1      26.208   2.354  53.437  1.00  0.00     0.119 C 
HETATM   26  H11 UNL     1      25.293   4.049  51.731  1.00  0.00     0.160 HD
ENDROOT
BRANCH   1  27
HETATM   27  C2  UNL     1      22.250   3.054  52.263  1.00  0.00     0.011 C 
HETATM   28  C1  UNL     1      22.650   4.307  52.325  1.00  0.00     0.128 C 
BRANCH  28  29
HETATM   29  O1  UNL     1      23.389   5.375  51.924  1.00  0.00    -0.373 OA
HETATM   30  H1  UNL     1      23.803   5.534  51.016  1.00  0.00     0.216 HD
ENDBRANCH  28  29
ENDBRANCH   1  27
TORSDOF 2
ENDMDL
MODEL 5
REMARK VINA RESULT:      -8.4      2.676      5.058
REMARK  2 active torsions:
REMARK  status: ('A' for Active; 'I' for Inactive)
REMARK    1  A    between atoms: O1_1  and  C1_2 
REMARK    2  A    between atoms: C2_3  and  C3_4 
ROOT
HETATM    1  C3  UNL     1      20.864   1.190  51.590  1.00  0.00     0.077 C 
HETATM    2  C4  UNL     1      19.369   1.159  51.824  1.00  0.00    -0.061 C 
HETATM    3  C5  UNL     1      19.170   0.163  52.660  1.00  0.00     0.036 C 
HETATM    4  C6  UNL     1      20.397  -0.401  53.191  1.00  0.00     0.068 A 
HETATM    5  N1  UNL     1      20.826  -1.317  54.076  1.00  0.00    -0.242 NA
HETATM    6  C7  UNL     1      22.171  -1.439  54.311  1.00  0.00     0.234 A 
HETATM    7  N2  UNL     1      23.098  -0.675  53.690  1.00  0.00    -0.239 NA
HETATM    8  C8  UNL     1      22.739   0.256  52.796  1.00  0.00     0.103 A 
HETATM    9  C9  UNL     1      21.395   0.314  52.616  1.00  0.00     0.014 A 
HETATM   10  C10 UNL     1      23.843   0.988  52.264  1.00  0.00     0.142 C 
HETATM   11  F1  UNL     1      25.138   0.779  52.591  1.00  0.00    -0.207 F 
HETATM   12  C11 UNL     1      24.475   1.868  51.547  1.00  0.00     0.155 A 
HETATM   13  C12 UNL     1      24.560   2.925  50.610  1.00  0.00    -0.000 A 
HETATM   14 BR1  UNL     1      26.327   2.477  51.207  1.00  0.00    -0.114 Br
HETATM   15  C13 UNL     1      24.343   3.875  49.738  1.00  0.00     0.017 C 
HETATM   16  C14 UNL     1      23.330   4.591  48.986  1.00  0.00     0.018 C 
HETATM   17  C15 UNL     1      22.058   4.710  48.736  1.00  0.00     0.084 C 
HETATM   18  N3  UNL     1      20.725   4.289  48.957  1.00  0.00    -0.383 N 
HETATM   19  C16 UNL     1      19.587   5.005  49.532  1.00  0.00     0.240 C 
HETATM   20  N4  UNL     1      18.392   4.284  49.620  1.00  0.00    -0.397 N 
HETATM   21  C17 UNL     1      17.635   4.327  50.832  1.00  0.00     0.119 C 
HETATM   22  C18 UNL     1      17.631   2.989  51.580  1.00  0.00     0.028 C 
HETATM   23  C19 UNL     1      18.845   2.262  51.025  1.00  0.00     0.018 C 
HETATM   24  C20 UNL     1      18.460   1.837  49.651  1.00  0.00     0.028 C 
HETATM   25  C21 UNL     1      18.216   3.105  48.845  1.00  0.00     0.119 C 
HETATM   26  H11 UNL     1      20.771   3.286  48.597  1.00  0.00     0.160 HD
ENDROOT
BRANCH   1  27
HETATM   27  C2  UNL     1      21.203   0.541  50.272  1.00  0.00     0.011 C 
HETATM   28  C1  UNL     1      21.585   0.803  49.040  1.00  0.00     0.128 C 
BRANCH  28  29
HETATM   29  O1  UNL     1      21.945   1.628  48.022  1.00  0.00    -0.373 OA
HETATM   30  H1  UNL     1      21.893   2.637  47.996  1.00  0.00     0.216 HD
ENDBRANCH  28  29
ENDBRANCH   1  27
TORSDOF 2
ENDMDL
MODEL 6
REMARK VINA RESULT:      -8.3      2.741      4.650
REMARK  2 active torsions:
REMARK  status: ('A' for Active; 'I' for Inactive)
REMARK    1  A    between atoms: O1_1  and  C1_2 
REMARK    2  A    between atoms: C2_3  and  C3_4 
ROOT
HETATM    1  C3  UNL     1      22.282   1.548  52.054  1.00  0.00     0.077 C 
HETATM    2  C4  UNL     1      23.756   1.801  52.281  1.00  0.00    -0.061 C 
HETATM    3  C5  UNL     1      24.089   1.026  53.291  1.00  0.00     0.036 C 
HETATM    4  C6  UNL     1      23.038   0.106  53.684  1.00  0.00     0.068 A 
HETATM    5  N1  UNL     1      22.808  -0.913  54.532  1.00  0.00    -0.242 NA
HETATM    6  C7  UNL     1      21.606  -1.569  54.472  1.00  0.00     0.234 A 
HETATM    7  N2  UNL     1      20.630  -1.241  53.595  1.00  0.00    -0.239 NA
HETATM    8  C8  UNL     1      20.795  -0.236  52.725  1.00  0.00     0.103 A 
HETATM    9  C9  UNL     1      22.005   0.365  52.846  1.00  0.00     0.014 A 
HETATM   10  C10 UNL     1      19.678  -0.049  51.856  1.00  0.00     0.142 C 
HETATM   11  F1  UNL     1      18.542  -0.782  51.889  1.00  0.00    -0.207 F 
HETATM   12  C11 UNL     1      18.963   0.470  50.903  1.00  0.00     0.155 A 
HETATM   13  C12 UNL     1      18.712   1.380  49.849  1.00  0.00    -0.000 A 
HETATM   14 BR1  UNL     1      17.191   0.231  50.056  1.00  0.00    -0.114 Br
HETATM   15  C13 UNL     1      18.753   2.320  48.941  1.00  0.00     0.017 C 
HETATM   16  C14 UNL     1      19.550   3.389  48.370  1.00  0.00     0.018 C 
HETATM   17  C15 UNL     1      20.678   4.037  48.421  1.00  0.00     0.084 C 
HETATM   18  N3  UNL     1      21.948   4.232  49.014  1.00  0.00    -0.383 N 
HETATM   19  C16 UNL     1      23.290   4.085  48.453  1.00  0.00     0.240 C 
HETATM   20  N4  UNL     1      24.351   4.348  49.325  1.00  0.00    -0.397 N 
HETATM   21  C17 UNL     1      25.457   3.443  49.377  1.00  0.00     0.119 C 
HETATM   22  C18 UNL     1      25.536   2.672  50.700  1.00  0.00     0.028 C 
HETATM   23  C19 UNL     1      24.127   2.777  51.262  1.00  0.00     0.018 C 
HETATM   24  C20 UNL     1      23.994   4.181  51.741  1.00  0.00     0.028 C 
HETATM   25  C21 UNL     1      24.120   5.081  50.521  1.00  0.00     0.119 C 
HETATM   26  H11 UNL     1      21.665   4.511  50.004  1.00  0.00     0.160 HD
ENDROOT
BRANCH   1  27
HETATM   27  C2  UNL     1      21.459   2.656  52.659  1.00  0.00     0.011 C 
HETATM   28  C1  UNL     1      20.584   3.595  52.365  1.00  0.00     0.128 C 
BRANCH  28  29
HETATM   29  O1  UNL     1      19.788   4.303  51.521  1.00  0.00    -0.373 OA
HETATM   30  H1  UNL     1      19.868   4.381  50.517  1.00  0.00     0.216 HD
ENDBRANCH  28  29
ENDBRANCH   1  27
TORSDOF 2
ENDMDL
MODEL 7
REMARK VINA RESULT:      -8.0      8.943     11.429
REMARK  2 active torsions:
REMARK  status: ('A' for Active; 'I' for Inactive)
REMARK    1  A    between atoms: O1_1  and  C1_2 
REMARK    2  A    between atoms: C2_3  and  C3_4 
ROOT
HETATM    1  C3  UNL     1      31.894   7.599  47.167  1.00  0.00     0.077 C 
HETATM    2  C4  UNL     1      33.145   8.075  46.463  1.00  0.00    -0.061 C 
HETATM    3  C5  UNL     1      33.920   7.015  46.378  1.00  0.00     0.036 C 
HETATM    4  C6  UNL     1      33.265   5.786  46.786  1.00  0.00     0.068 A 
HETATM    5  N1  UNL     1      33.483   4.461  46.853  1.00  0.00    -0.242 NA
HETATM    6  C7  UNL     1      32.464   3.637  47.256  1.00  0.00     0.234 A 
HETATM    7  N2  UNL     1      31.237   4.096  47.593  1.00  0.00    -0.239 NA
HETATM    8  C8  UNL     1      30.954   5.405  47.551  1.00  0.00     0.103 A 
HETATM    9  C9  UNL     1      32.011   6.153  47.147  1.00  0.00     0.014 A 
HETATM   10  C10 UNL     1      29.605   5.706  47.910  1.00  0.00     0.142 C 
HETATM   11  F1  UNL     1      28.681   4.790  48.280  1.00  0.00    -0.207 F 
HETATM   12  C11 UNL     1      28.550   6.427  48.138  1.00  0.00     0.155 A 
HETATM   13  C12 UNL     1      27.828   7.642  48.217  1.00  0.00    -0.000 A 
HETATM   14 BR1  UNL     1      26.669   6.196  48.710  1.00  0.00    -0.114 Br
HETATM   15  C13 UNL     1      27.419   8.884  48.201  1.00  0.00     0.017 C 
HETATM   16  C14 UNL     1      27.801  10.259  47.941  1.00  0.00     0.018 C 
HETATM   17  C15 UNL     1      28.761  11.060  47.577  1.00  0.00     0.084 C 
HETATM   18  N3  UNL     1      30.103  11.252  47.172  1.00  0.00    -0.383 N 
HETATM   19  C16 UNL     1      30.652  11.759  45.915  1.00  0.00     0.240 C 
HETATM   20  N4  UNL     1      32.047  11.813  45.834  1.00  0.00    -0.397 N 
HETATM   21  C17 UNL     1      32.700  11.327  44.659  1.00  0.00     0.119 C 
HETATM   22  C18 UNL     1      33.507  10.047  44.912  1.00  0.00     0.028 C 
HETATM   23  C19 UNL     1      32.904   9.487  46.190  1.00  0.00     0.018 C 
HETATM   24  C20 UNL     1      33.395  10.372  47.282  1.00  0.00     0.028 C 
HETATM   25  C21 UNL     1      32.829  11.760  47.020  1.00  0.00     0.119 C 
HETATM   26  H11 UNL     1      30.623  10.913  48.040  1.00  0.00     0.160 HD
ENDROOT
BRANCH   1  27
HETATM   27  C2  UNL     1      31.925   7.998  48.621  1.00  0.00     0.011 C 
HETATM   28  C1  UNL     1      31.303   8.728  49.522  1.00  0.00     0.128 C 
BRANCH  28  29
HETATM   29  O1  UNL     1      30.333   9.581  49.948  1.00  0.00    -0.373 OA
HETATM   30  H1  UNL     1      29.974  10.395  49.469  1.00  0.00     0.216 HD
ENDBRANCH  28  29
ENDBRANCH   1  27
TORSDOF 2
ENDMDL
MODEL 8
REMARK VINA RESULT:      -7.9      7.122      8.856
REMARK  2 active torsions:
REMARK  status: ('A' for Active; 'I' for Inactive)
REMARK    1  A    between atoms: O1_1  and  C1_2 
REMARK    2  A    between atoms: C2_3  and  C3_4 
ROOT
HETATM    1  C3  UNL     1      28.633   8.412  47.749  1.00  0.00     0.077 C 
HETATM    2  C4  UNL     1      29.383   9.507  47.023  1.00  0.00    -0.061 C 
HETATM    3  C5  UNL     1      30.610   9.053  46.883  1.00  0.00     0.036 C 
HETATM    4  C6  UNL     1      30.760   7.663  47.273  1.00  0.00     0.068 A 
HETATM    5  N1  UNL     1      31.675   6.678  47.293  1.00  0.00    -0.242 NA
HETATM    6  C7  UNL     1      31.298   5.425  47.700  1.00  0.00     0.234 A 
HETATM    7  N2  UNL     1      30.037   5.126  48.088  1.00  0.00    -0.239 NA
HETATM    8  C8  UNL     1      29.077   6.061  48.093  1.00  0.00     0.103 A 
HETATM    9  C9  UNL     1      29.528   7.272  47.681  1.00  0.00     0.014 A 
HETATM   10  C10 UNL     1      27.803   5.563  48.502  1.00  0.00     0.142 C 
HETATM   11  F1  UNL     1      27.554   4.286  48.870  1.00  0.00    -0.207 F 
HETATM   12  C11 UNL     1      26.535   5.578  48.783  1.00  0.00     0.155 A 
HETATM   13  C12 UNL     1      25.266   6.191  48.920  1.00  0.00    -0.000 A 
HETATM   14 BR1  UNL     1      25.120   4.341  49.402  1.00  0.00    -0.114 Br
HETATM   15  C13 UNL     1      24.240   7.000  48.953  1.00  0.00     0.017 C 
HETATM   16  C14 UNL     1      23.788   8.360  48.724  1.00  0.00     0.018 C 
HETATM   17  C15 UNL     1      24.130   9.561  48.357  1.00  0.00     0.084 C 
HETATM   18  N3  UNL     1      25.125  10.466  47.919  1.00  0.00    -0.383 N 
HETATM   19  C16 UNL     1      25.250  11.203  46.662  1.00  0.00     0.240 C 
HETATM   20  N4  UNL     1      26.378  12.020  46.541  1.00  0.00    -0.397 N 
HETATM   21  C17 UNL     1      27.142  11.987  45.333  1.00  0.00     0.119 C 
HETATM   22  C18 UNL     1      28.531  11.364  45.523  1.00  0.00     0.028 C 
HETATM   23  C19 UNL     1      28.391  10.553  46.800  1.00  0.00     0.018 C 
HETATM   24  C20 UNL     1      28.357  11.552  47.904  1.00  0.00     0.028 C 
HETATM   25  C21 UNL     1      27.108  12.397  47.701  1.00  0.00     0.119 C 
HETATM   26  H11 UNL     1      25.781  10.464  48.760  1.00  0.00     0.160 HD
ENDROOT
BRANCH   1  27
HETATM   27  C2  UNL     1      28.499   8.748  49.213  1.00  0.00     0.011 C 
HETATM   28  C1  UNL     1      27.636   9.148  50.123  1.00  0.00     0.128 C 
BRANCH  28  29
HETATM   29  O1  UNL     1      26.408   9.538  50.555  1.00  0.00    -0.373 OA
HETATM   30  H1  UNL     1      25.834   9.100  51.262  1.00  0.00     0.216 HD
ENDBRANCH  28  29
ENDBRANCH   1  27
TORSDOF 2
ENDMDL
MODEL 9
REMARK VINA RESULT:      -7.9      3.189      5.642
REMARK  2 active torsions:
REMARK  status: ('A' for Active; 'I' for Inactive)
REMARK    1  A    between atoms: O1_1  and  C1_2 
REMARK    2  A    between atoms: C2_3  and  C3_4 
ROOT
HETATM    1  C3  UNL     1      19.826   0.514  52.267  1.00  0.00     0.077 C 
HETATM    2  C4  UNL     1      18.576  -0.313  52.473  1.00  0.00    -0.061 C 
HETATM    3  C5  UNL     1      18.948  -1.321  53.232  1.00  0.00     0.036 C 
HETATM    4  C6  UNL     1      20.301  -1.192  53.741  1.00  0.00     0.068 A 
HETATM    5  N1  UNL     1      21.168  -1.807  54.565  1.00  0.00    -0.242 NA
HETATM    6  C7  UNL     1      22.382  -1.221  54.813  1.00  0.00     0.234 A 
HETATM    7  N2  UNL     1      22.756  -0.043  54.264  1.00  0.00    -0.239 NA
HETATM    8  C8  UNL     1      21.941   0.621  53.434  1.00  0.00     0.103 A 
HETATM    9  C9  UNL     1      20.762  -0.022  53.236  1.00  0.00     0.014 A 
HETATM   10  C10 UNL     1      22.485   1.858  52.974  1.00  0.00     0.142 C 
HETATM   11  F1  UNL     1      23.704   2.337  53.307  1.00  0.00    -0.207 F 
HETATM   12  C11 UNL     1      22.544   2.986  52.332  1.00  0.00     0.155 A 
HETATM   13  C12 UNL     1      22.040   3.994  51.475  1.00  0.00    -0.000 A 
HETATM   14 BR1  UNL     1      23.793   4.498  52.068  1.00  0.00    -0.114 Br
HETATM   15  C13 UNL     1      21.337   4.746  50.670  1.00  0.00     0.017 C 
HETATM   16  C14 UNL     1      20.081   4.874  49.954  1.00  0.00     0.018 C 
HETATM   17  C15 UNL     1      18.930   4.326  49.692  1.00  0.00     0.084 C 
HETATM   18  N3  UNL     1      18.022   3.254  49.861  1.00  0.00    -0.383 N 
HETATM   19  C16 UNL     1      16.691   3.224  50.466  1.00  0.00     0.240 C 
HETATM   20  N4  UNL     1      16.054   1.980  50.483  1.00  0.00    -0.397 N 
HETATM   21  C17 UNL     1      15.415   1.535  51.682  1.00  0.00     0.119 C 
HETATM   22  C18 UNL     1      16.132   0.345  52.333  1.00  0.00     0.028 C 
HETATM   23  C19 UNL     1      17.533   0.403  51.747  1.00  0.00     0.018 C 
HETATM   24  C20 UNL     1      17.395  -0.063  50.339  1.00  0.00     0.028 C 
HETATM   25  C21 UNL     1      16.504   0.941  49.623  1.00  0.00     0.119 C 
HETATM   26  H11 UNL     1      18.578   2.452  49.430  1.00  0.00     0.160 HD
ENDROOT
BRANCH   1  27
HETATM   27  C2  UNL     1      20.424   0.233  50.912  1.00  0.00     0.011 C 
HETATM   28  C1  UNL     1      20.713   0.791  49.755  1.00  0.00     0.128 C 
BRANCH  28  29
HETATM   29  O1  UNL     1      20.762   1.827  48.876  1.00  0.00    -0.373 OA
HETATM   30  H1  UNL     1      19.990   2.266  48.395  1.00  0.00     0.216 HD
ENDBRANCH  28  29
ENDBRANCH   1  27
TORSDOF 2
ENDMDL
