MODEL 1
REMARK VINA RESULT:      -7.1      0.000      0.000
REMARK  6 active torsions:
REMARK  status: ('A' for Active; 'I' for Inactive)
REMARK    1  A    between atoms: N1_2  and  C3_4 
REMARK    2  A    between atoms: C3_4  and  C4_5 
REMARK    3  A    between atoms: C4_5  and  C5_6 
REMARK    4  A    between atoms: C5_6  and  O1_7 
REMARK    5  A    between atoms: O1_7  and  C6_8 
REMARK    6  A    between atoms: C9_11  and  N2_12 
ROOT
HETATM    1  C6  UNL     1      22.622   2.083  52.429  1.00  0.00     0.060 A 
HETATM    2  C7  UNL     1      23.863   2.486  52.194  1.00  0.00     0.043 A 
HETATM    3  C8  UNL     1      24.302   1.363  53.023  1.00  0.00    -0.016 A 
HETATM    4  C9  UNL     1      25.195   0.595  53.638  1.00  0.00     0.035 C 
HETATM    5  C15 UNL     1      24.488  -0.542  54.330  1.00  0.00     0.205 C 
HETATM    6  N3  UNL     1      23.583  -1.138  53.368  1.00  0.00    -0.299 NA
HETATM    7  C16 UNL     1      22.709  -0.422  52.755  1.00  0.00     0.100 C 
HETATM    8  C17 UNL     1      22.933   0.919  53.291  1.00  0.00     0.117 A 
ENDROOT
BRANCH   4   9
HETATM    9  N2  UNL     1      26.599   0.861  53.569  1.00  0.00    -0.377 N 
HETATM   10  C10 UNL     1      27.427   1.598  52.635  1.00  0.00     0.153 C 
HETATM   11  C11 UNL     1      28.459   2.365  53.366  1.00  0.00     0.032 C 
HETATM   12  C12 UNL     1      29.072   1.719  54.347  1.00  0.00     0.111 C 
HETATM   13  F1  UNL     1      30.023   2.464  55.003  1.00  0.00    -0.209 F 
HETATM   14  C13 UNL     1      28.709   0.307  54.658  1.00  0.00     0.162 C 
HETATM   15 CL1  UNL     1      29.332  -0.768  53.389  1.00  0.00    -0.116 Cl
HETATM   16  C14 UNL     1      27.211   0.205  54.725  1.00  0.00     0.150 C 
ENDBRANCH   4   9
BRANCH   1  17
HETATM   17  O1  UNL     1      21.482   2.671  51.950  1.00  0.00    -0.354 OA
BRANCH  17  18
HETATM   18  C5  UNL     1      20.159   2.345  52.311  1.00  0.00     0.177 C 
BRANCH  18  19
HETATM   19  C4  UNL     1      19.621   1.215  51.449  1.00  0.00     0.057 C 
BRANCH  19  20
HETATM   20  C3  UNL     1      19.131   0.093  52.341  1.00  0.00     0.273 C 
BRANCH  20  21
HETATM   21  N1  UNL     1      18.013  -0.556  51.715  1.00  0.00     0.080 N 
HETATM   22  C1  UNL     1      16.903  -0.759  52.620  1.00  0.00     0.309 C 
HETATM   23  C2  UNL     1      17.614   0.066  50.477  1.00  0.00     0.309 C 
ENDBRANCH  20  21
ENDBRANCH  19  20
ENDBRANCH  18  19
ENDBRANCH  17  18
ENDBRANCH   1  17
TORSDOF 6
ENDMDL
MODEL 2
REMARK VINA RESULT:      -7.0      1.346      1.791
REMARK  6 active torsions:
REMARK  status: ('A' for Active; 'I' for Inactive)
REMARK    1  A    between atoms: N1_2  and  C3_4 
REMARK    2  A    between atoms: C3_4  and  C4_5 
REMARK    3  A    between atoms: C4_5  and  C5_6 
REMARK    4  A    between atoms: C5_6  and  O1_7 
REMARK    5  A    between atoms: O1_7  and  C6_8 
REMARK    6  A    between atoms: C9_11  and  N2_12 
ROOT
HETATM    1  C6  UNL     1      22.744   2.457  52.390  1.00  0.00     0.060 A 
HETATM    2  C7  UNL     1      24.008   2.817  52.210  1.00  0.00     0.043 A 
HETATM    3  C8  UNL     1      24.374   1.623  52.974  1.00  0.00    -0.016 A 
HETATM    4  C9  UNL     1      25.215   0.777  53.558  1.00  0.00     0.035 C 
HETATM    5  C15 UNL     1      24.439  -0.369  54.159  1.00  0.00     0.205 C 
HETATM    6  N3  UNL     1      23.534  -0.859  53.139  1.00  0.00    -0.299 NA
HETATM    7  C16 UNL     1      22.709  -0.065  52.554  1.00  0.00     0.100 C 
HETATM    8  C17 UNL     1      22.979   1.227  53.180  1.00  0.00     0.117 A 
ENDROOT
BRANCH   4   9
HETATM    9  N2  UNL     1      26.630   0.981  53.540  1.00  0.00    -0.377 N 
HETATM   10  C10 UNL     1      27.521   1.695  52.647  1.00  0.00     0.153 C 
HETATM   11  C11 UNL     1      28.561   2.404  53.424  1.00  0.00     0.032 C 
HETATM   12  C12 UNL     1      29.112   1.714  54.413  1.00  0.00     0.111 C 
HETATM   13  F1  UNL     1      30.073   2.405  55.113  1.00  0.00    -0.209 F 
HETATM   14  C13 UNL     1      28.677   0.315  54.686  1.00  0.00     0.162 C 
HETATM   15 CL1  UNL     1      29.294  -0.765  53.418  1.00  0.00    -0.116 Cl
HETATM   16  C14 UNL     1      27.174   0.279  54.703  1.00  0.00     0.150 C 
ENDBRANCH   4   9
BRANCH   1  17
HETATM   17  O1  UNL     1      21.645   3.126  51.923  1.00  0.00    -0.354 OA
BRANCH  17  18
HETATM   18  C5  UNL     1      20.320   2.982  52.384  1.00  0.00     0.177 C 
BRANCH  18  19
HETATM   19  C4  UNL     1      19.378   2.651  51.239  1.00  0.00     0.057 C 
BRANCH  19  20
HETATM   20  C3  UNL     1      19.699   1.269  50.708  1.00  0.00     0.273 C 
BRANCH  20  21
HETATM   21  N1  UNL     1      20.065   1.367  49.322  1.00  0.00     0.080 N 
HETATM   22  C1  UNL     1      19.682   2.629  48.728  1.00  0.00     0.309 C 
HETATM   23  C2  UNL     1      21.446   1.032  49.075  1.00  0.00     0.309 C 
ENDBRANCH  20  21
ENDBRANCH  19  20
ENDBRANCH  18  19
ENDBRANCH  17  18
ENDBRANCH   1  17
TORSDOF 6
ENDMDL
MODEL 3
REMARK VINA RESULT:      -6.8      2.433      3.750
REMARK  6 active torsions:
REMARK  status: ('A' for Active; 'I' for Inactive)
REMARK    1  A    between atoms: N1_2  and  C3_4 
REMARK    2  A    between atoms: C3_4  and  C4_5 
REMARK    3  A    between atoms: C4_5  and  C5_6 
REMARK    4  A    between atoms: C5_6  and  O1_7 
REMARK    5  A    between atoms: O1_7  and  C6_8 
REMARK    6  A    between atoms: C9_11  and  N2_12 
ROOT
HETATM    1  C6  UNL     1      22.544   2.339  52.331  1.00  0.00     0.060 A 
HETATM    2  C7  UNL     1      23.806   2.688  52.121  1.00  0.00     0.043 A 
HETATM    3  C8  UNL     1      24.178   1.535  52.942  1.00  0.00    -0.016 A 
HETATM    4  C9  UNL     1      25.025   0.719  53.561  1.00  0.00     0.035 C 
HETATM    5  C15 UNL     1      24.255  -0.394  54.226  1.00  0.00     0.205 C 
HETATM    6  N3  UNL     1      23.341  -0.935  53.241  1.00  0.00    -0.299 NA
HETATM    7  C16 UNL     1      22.510  -0.172  52.624  1.00  0.00     0.100 C 
HETATM    8  C17 UNL     1      22.786   1.150  53.181  1.00  0.00     0.117 A 
ENDROOT
BRANCH   4   9
HETATM    9  N2  UNL     1      26.440   0.921  53.519  1.00  0.00    -0.377 N 
HETATM   10  C10 UNL     1      27.318   1.632  52.609  1.00  0.00     0.153 C 
HETATM   11  C11 UNL     1      28.371   2.341  53.367  1.00  0.00     0.032 C 
HETATM   12  C12 UNL     1      28.936   1.654  54.349  1.00  0.00     0.111 C 
HETATM   13  F1  UNL     1      29.910   2.345  55.031  1.00  0.00    -0.209 F 
HETATM   14  C13 UNL     1      28.504   0.256  54.634  1.00  0.00     0.162 C 
HETATM   15 CL1  UNL     1      29.100  -0.829  53.359  1.00  0.00    -0.116 Cl
HETATM   16  C14 UNL     1      27.002   0.222  54.675  1.00  0.00     0.150 C 
ENDBRANCH   4   9
BRANCH   1  17
HETATM   17  O1  UNL     1      21.440   2.984  51.841  1.00  0.00    -0.354 OA
BRANCH  17  18
HETATM   18  C5  UNL     1      21.304   3.548  50.556  1.00  0.00     0.177 C 
BRANCH  18  19
HETATM   19  C4  UNL     1      20.773   4.970  50.638  1.00  0.00     0.057 C 
BRANCH  19  20
HETATM   20  C3  UNL     1      21.756   5.829  51.406  1.00  0.00     0.273 C 
BRANCH  20  21
HETATM   21  N1  UNL     1      22.772   6.304  50.508  1.00  0.00     0.080 N 
HETATM   22  C1  UNL     1      22.362   7.474  49.764  1.00  0.00     0.309 C 
HETATM   23  C2  UNL     1      24.057   6.471  51.141  1.00  0.00     0.309 C 
ENDBRANCH  20  21
ENDBRANCH  19  20
ENDBRANCH  18  19
ENDBRANCH  17  18
ENDBRANCH   1  17
TORSDOF 6
ENDMDL
MODEL 4
REMARK VINA RESULT:      -6.7      2.448      3.208
REMARK  6 active torsions:
REMARK  status: ('A' for Active; 'I' for Inactive)
REMARK    1  A    between atoms: N1_2  and  C3_4 
REMARK    2  A    between atoms: C3_4  and  C4_5 
REMARK    3  A    between atoms: C4_5  and  C5_6 
REMARK    4  A    between atoms: C5_6  and  O1_7 
REMARK    5  A    between atoms: O1_7  and  C6_8 
REMARK    6  A    between atoms: C9_11  and  N2_12 
ROOT
HETATM    1  C6  UNL     1      21.049   0.593  53.158  1.00  0.00     0.060 A 
HETATM    2  C7  UNL     1      22.221   0.897  52.617  1.00  0.00     0.043 A 
HETATM    3  C8  UNL     1      22.832   0.120  53.696  1.00  0.00    -0.016 A 
HETATM    4  C9  UNL     1      23.843  -0.393  54.388  1.00  0.00     0.035 C 
HETATM    5  C15 UNL     1      23.304  -1.233  55.518  1.00  0.00     0.205 C 
HETATM    6  N3  UNL     1      22.305  -2.121  54.957  1.00  0.00    -0.299 NA
HETATM    7  C16 UNL     1      21.316  -1.656  54.281  1.00  0.00     0.100 C 
HETATM    8  C17 UNL     1      21.541  -0.213  54.300  1.00  0.00     0.117 A 
ENDROOT
BRANCH   4   9
HETATM    9  N2  UNL     1      25.207  -0.162  54.024  1.00  0.00    -0.377 N 
HETATM   10  C10 UNL     1      26.282   0.602  54.625  1.00  0.00     0.153 C 
HETATM   11  C11 UNL     1      27.556  -0.142  54.523  1.00  0.00     0.032 C 
HETATM   12  C12 UNL     1      27.795  -0.716  53.353  1.00  0.00     0.111 C 
HETATM   13  F1  UNL     1      28.987  -1.399  53.295  1.00  0.00    -0.209 F 
HETATM   14  C13 UNL     1      26.812  -0.592  52.239  1.00  0.00     0.162 C 
HETATM   15 CL1  UNL     1      26.853   1.059  51.583  1.00  0.00    -0.116 Cl
HETATM   16  C14 UNL     1      25.442  -0.894  52.779  1.00  0.00     0.150 C 
ENDBRANCH   4   9
BRANCH   1  17
HETATM   17  O1  UNL     1      19.823   0.981  52.689  1.00  0.00    -0.354 OA
BRANCH  17  18
HETATM   18  C5  UNL     1      19.541   2.150  51.953  1.00  0.00     0.177 C 
BRANCH  18  19
HETATM   19  C4  UNL     1      19.455   1.850  50.465  1.00  0.00     0.057 C 
BRANCH  19  20
HETATM   20  C3  UNL     1      20.124   2.966  49.690  1.00  0.00     0.273 C 
BRANCH  20  21
HETATM   21  N1  UNL     1      21.291   2.452  49.028  1.00  0.00     0.080 N 
HETATM   22  C1  UNL     1      22.520   3.021  49.536  1.00  0.00     0.309 C 
HETATM   23  C2  UNL     1      21.326   1.012  48.975  1.00  0.00     0.309 C 
ENDBRANCH  20  21
ENDBRANCH  19  20
ENDBRANCH  18  19
ENDBRANCH  17  18
ENDBRANCH   1  17
TORSDOF 6
ENDMDL
MODEL 5
REMARK VINA RESULT:      -6.6      2.121      2.973
REMARK  6 active torsions:
REMARK  status: ('A' for Active; 'I' for Inactive)
REMARK    1  A    between atoms: N1_2  and  C3_4 
REMARK    2  A    between atoms: C3_4  and  C4_5 
REMARK    3  A    between atoms: C4_5  and  C5_6 
REMARK    4  A    between atoms: C5_6  and  O1_7 
REMARK    5  A    between atoms: O1_7  and  C6_8 
REMARK    6  A    between atoms: C9_11  and  N2_12 
ROOT
HETATM    1  C6  UNL     1      20.212   0.241  52.840  1.00  0.00     0.060 A 
HETATM    2  C7  UNL     1      21.301   0.580  52.162  1.00  0.00     0.043 A 
HETATM    3  C8  UNL     1      22.071   0.048  53.288  1.00  0.00    -0.016 A 
HETATM    4  C9  UNL     1      23.179  -0.242  53.960  1.00  0.00     0.035 C 
HETATM    5  C15 UNL     1      22.820  -0.950  55.242  1.00  0.00     0.205 C 
HETATM    6  N3  UNL     1      21.896  -2.014  54.903  1.00  0.00    -0.299 NA
HETATM    7  C16 UNL     1      20.816  -1.766  54.252  1.00  0.00     0.100 C 
HETATM    8  C17 UNL     1      20.871  -0.322  54.041  1.00  0.00     0.117 A 
ENDROOT
BRANCH   4   9
HETATM    9  N2  UNL     1      24.478   0.073  53.451  1.00  0.00    -0.377 N 
HETATM   10  C10 UNL     1      24.942   0.741  52.251  1.00  0.00     0.153 C 
HETATM   11  C11 UNL     1      26.086   1.623  52.569  1.00  0.00     0.032 C 
HETATM   12  C12 UNL     1      27.004   1.110  53.375  1.00  0.00     0.111 C 
HETATM   13  F1  UNL     1      28.051   1.958  53.648  1.00  0.00    -0.209 F 
HETATM   14  C13 UNL     1      26.849  -0.276  53.904  1.00  0.00     0.162 C 
HETATM   15 CL1  UNL     1      27.147  -1.451  52.606  1.00  0.00    -0.116 Cl
HETATM   16  C14 UNL     1      25.448  -0.432  54.425  1.00  0.00     0.150 C 
ENDBRANCH   4   9
BRANCH   1  17
HETATM   17  O1  UNL     1      18.920   0.420  52.424  1.00  0.00    -0.354 OA
BRANCH  17  18
HETATM   18  C5  UNL     1      18.079  -0.562  51.863  1.00  0.00     0.177 C 
BRANCH  18  19
HETATM   19  C4  UNL     1      17.440  -1.416  52.945  1.00  0.00     0.057 C 
BRANCH  19  20
HETATM   20  C3  UNL     1      16.066  -1.861  52.487  1.00  0.00     0.273 C 
BRANCH  20  21
HETATM   21  N1  UNL     1      15.963  -3.288  52.615  1.00  0.00     0.080 N 
HETATM   22  C1  UNL     1      16.916  -3.839  53.553  1.00  0.00     0.309 C 
HETATM   23  C2  UNL     1      14.616  -3.741  52.861  1.00  0.00     0.309 C 
ENDBRANCH  20  21
ENDBRANCH  19  20
ENDBRANCH  18  19
ENDBRANCH  17  18
ENDBRANCH   1  17
TORSDOF 6
ENDMDL
MODEL 6
REMARK VINA RESULT:      -6.5      4.651      7.716
REMARK  6 active torsions:
REMARK  status: ('A' for Active; 'I' for Inactive)
REMARK    1  A    between atoms: N1_2  and  C3_4 
REMARK    2  A    between atoms: C3_4  and  C4_5 
REMARK    3  A    between atoms: C4_5  and  C5_6 
REMARK    4  A    between atoms: C5_6  and  O1_7 
REMARK    5  A    between atoms: O1_7  and  C6_8 
REMARK    6  A    between atoms: C9_11  and  N2_12 
ROOT
HETATM    1  C6  UNL     1      26.007   4.405  49.590  1.00  0.00     0.060 A 
HETATM    2  C7  UNL     1      26.714   3.336  49.931  1.00  0.00     0.043 A 
HETATM    3  C8  UNL     1      25.732   3.125  50.996  1.00  0.00    -0.016 A 
HETATM    4  C9  UNL     1      25.212   2.505  52.050  1.00  0.00     0.035 C 
HETATM    5  C15 UNL     1      23.926   3.186  52.448  1.00  0.00     0.205 C 
HETATM    6  N3  UNL     1      23.128   3.338  51.249  1.00  0.00    -0.299 NA
HETATM    7  C16 UNL     1      23.604   3.931  50.212  1.00  0.00     0.100 C 
HETATM    8  C17 UNL     1      24.953   4.307  50.626  1.00  0.00     0.117 A 
ENDROOT
BRANCH   4   9
HETATM    9  N2  UNL     1      25.825   1.351  52.631  1.00  0.00    -0.377 N 
HETATM   10  C10 UNL     1      26.286   0.089  52.087  1.00  0.00     0.153 C 
HETATM   11  C11 UNL     1      27.565  -0.301  52.718  1.00  0.00     0.032 C 
HETATM   12  C12 UNL     1      27.633  -0.142  54.031  1.00  0.00     0.111 C 
HETATM   13  F1  UNL     1      28.836  -0.515  54.582  1.00  0.00    -0.209 F 
HETATM   14  C13 UNL     1      26.465   0.401  54.783  1.00  0.00     0.162 C 
HETATM   15 CL1  UNL     1      25.182  -0.825  54.869  1.00  0.00    -0.116 Cl
HETATM   16  C14 UNL     1      25.962   1.620  54.063  1.00  0.00     0.150 C 
ENDBRANCH   4   9
BRANCH   1  17
HETATM   17  O1  UNL     1      26.290   5.258  48.557  1.00  0.00    -0.354 OA
BRANCH  17  18
HETATM   18  C5  UNL     1      27.124   6.393  48.615  1.00  0.00     0.177 C 
BRANCH  18  19
HETATM   19  C4  UNL     1      28.543   6.049  48.193  1.00  0.00     0.057 C 
BRANCH  19  20
HETATM   20  C3  UNL     1      29.249   7.309  47.735  1.00  0.00     0.273 C 
BRANCH  20  21
HETATM   21  N1  UNL     1      30.088   7.795  48.795  1.00  0.00     0.080 N 
HETATM   22  C1  UNL     1      31.490   7.515  48.574  1.00  0.00     0.309 C 
HETATM   23  C2  UNL     1      29.843   9.177  49.126  1.00  0.00     0.309 C 
ENDBRANCH  20  21
ENDBRANCH  19  20
ENDBRANCH  18  19
ENDBRANCH  17  18
ENDBRANCH   1  17
TORSDOF 6
ENDMDL
MODEL 7
REMARK VINA RESULT:      -6.5      5.019      8.245
REMARK  6 active torsions:
REMARK  status: ('A' for Active; 'I' for Inactive)
REMARK    1  A    between atoms: N1_2  and  C3_4 
REMARK    2  A    between atoms: C3_4  and  C4_5 
REMARK    3  A    between atoms: C4_5  and  C5_6 
REMARK    4  A    between atoms: C5_6  and  O1_7 
REMARK    5  A    between atoms: O1_7  and  C6_8 
REMARK    6  A    between atoms: C9_11  and  N2_12 
ROOT
HETATM    1  C6  UNL     1      26.302   2.830  50.654  1.00  0.00     0.060 A 
HETATM    2  C7  UNL     1      24.992   3.020  50.723  1.00  0.00     0.043 A 
HETATM    3  C8  UNL     1      24.951   1.863  51.620  1.00  0.00    -0.016 A 
HETATM    4  C9  UNL     1      24.362   0.957  52.392  1.00  0.00     0.035 C 
HETATM    5  C15 UNL     1      25.409   0.064  53.007  1.00  0.00     0.205 C 
HETATM    6  N3  UNL     1      26.430   0.922  53.574  1.00  0.00    -0.299 NA
HETATM    7  C16 UNL     1      27.018   1.810  52.853  1.00  0.00     0.100 C 
HETATM    8  C17 UNL     1      26.397   1.647  51.541  1.00  0.00     0.117 A 
ENDROOT
BRANCH   4   9
HETATM    9  N2  UNL     1      22.945   0.930  52.583  1.00  0.00    -0.377 N 
HETATM   10  C10 UNL     1      21.907   1.936  52.475  1.00  0.00     0.153 C 
HETATM   11  C11 UNL     1      20.702   1.358  51.841  1.00  0.00     0.032 C 
HETATM   12  C12 UNL     1      20.345   0.156  52.269  1.00  0.00     0.111 C 
HETATM   13  F1  UNL     1      19.222  -0.348  51.657  1.00  0.00    -0.209 F 
HETATM   14  C13 UNL     1      21.140  -0.532  53.326  1.00  0.00     0.162 C 
HETATM   15 CL1  UNL     1      20.858   0.252  54.895  1.00  0.00    -0.116 Cl
HETATM   16  C14 UNL     1      22.595  -0.440  52.961  1.00  0.00     0.150 C 
ENDBRANCH   4   9
BRANCH   1  17
HETATM   17  O1  UNL     1      27.186   3.586  49.932  1.00  0.00    -0.354 OA
BRANCH  17  18
HETATM   18  C5  UNL     1      26.861   4.642  49.056  1.00  0.00     0.177 C 
BRANCH  18  19
HETATM   19  C4  UNL     1      28.114   5.247  48.444  1.00  0.00     0.057 C 
BRANCH  19  20
HETATM   20  C3  UNL     1      27.878   6.718  48.169  1.00  0.00     0.273 C 
BRANCH  20  21
HETATM   21  N1  UNL     1      29.135   7.359  47.904  1.00  0.00     0.080 N 
HETATM   22  C1  UNL     1      30.267   6.596  48.383  1.00  0.00     0.309 C 
HETATM   23  C2  UNL     1      29.285   7.773  46.531  1.00  0.00     0.309 C 
ENDBRANCH  20  21
ENDBRANCH  19  20
ENDBRANCH  18  19
ENDBRANCH  17  18
ENDBRANCH   1  17
TORSDOF 6
ENDMDL
MODEL 8
REMARK VINA RESULT:      -6.5      2.413      3.025
REMARK  6 active torsions:
REMARK  status: ('A' for Active; 'I' for Inactive)
REMARK    1  A    between atoms: N1_2  and  C3_4 
REMARK    2  A    between atoms: C3_4  and  C4_5 
REMARK    3  A    between atoms: C4_5  and  C5_6 
REMARK    4  A    between atoms: C5_6  and  O1_7 
REMARK    5  A    between atoms: O1_7  and  C6_8 
REMARK    6  A    between atoms: C9_11  and  N2_12 
ROOT
HETATM    1  C6  UNL     1      21.039   0.217  53.060  1.00  0.00     0.060 A 
HETATM    2  C7  UNL     1      22.193   0.549  52.497  1.00  0.00     0.043 A 
HETATM    3  C8  UNL     1      22.844  -0.071  53.653  1.00  0.00    -0.016 A 
HETATM    4  C9  UNL     1      23.880  -0.438  54.400  1.00  0.00     0.035 C 
HETATM    5  C15 UNL     1      23.386  -1.197  55.606  1.00  0.00     0.205 C 
HETATM    6  N3  UNL     1      22.460  -2.205  55.132  1.00  0.00    -0.299 NA
HETATM    7  C16 UNL     1      21.449  -1.882  54.406  1.00  0.00     0.100 C 
HETATM    8  C17 UNL     1      21.571  -0.432  54.280  1.00  0.00     0.117 A 
ENDROOT
BRANCH   4   9
HETATM    9  N2  UNL     1      25.228  -0.147  54.022  1.00  0.00    -0.377 N 
HETATM   10  C10 UNL     1      26.271   0.672  54.606  1.00  0.00     0.153 C 
HETATM   11  C11 UNL     1      27.577  -0.013  54.501  1.00  0.00     0.032 C 
HETATM   12  C12 UNL     1      27.834  -0.589  53.335  1.00  0.00     0.111 C 
HETATM   13  F1  UNL     1      29.056  -1.216  53.275  1.00  0.00    -0.209 F 
HETATM   14  C13 UNL     1      26.838  -0.522  52.228  1.00  0.00     0.162 C 
HETATM   15 CL1  UNL     1      26.797   1.121  51.554  1.00  0.00    -0.116 Cl
HETATM   16  C14 UNL     1      25.488  -0.882  52.783  1.00  0.00     0.150 C 
ENDBRANCH   4   9
BRANCH   1  17
HETATM   17  O1  UNL     1      19.795   0.468  52.546  1.00  0.00    -0.354 OA
BRANCH  17  18
HETATM   18  C5  UNL     1      19.452   0.533  51.180  1.00  0.00     0.177 C 
BRANCH  18  19
HETATM   19  C4  UNL     1      19.104   1.955  50.773  1.00  0.00     0.057 C 
BRANCH  19  20
HETATM   20  C3  UNL     1      17.793   2.355  51.417  1.00  0.00     0.273 C 
BRANCH  20  21
HETATM   21  N1  UNL     1      17.716   3.787  51.487  1.00  0.00     0.080 N 
HETATM   22  C1  UNL     1      18.455   4.442  50.430  1.00  0.00     0.309 C 
HETATM   23  C2  UNL     1      16.366   4.279  51.608  1.00  0.00     0.309 C 
ENDBRANCH  20  21
ENDBRANCH  19  20
ENDBRANCH  18  19
ENDBRANCH  17  18
ENDBRANCH   1  17
TORSDOF 6
ENDMDL
MODEL 9
REMARK VINA RESULT:      -6.4      5.531      9.062
REMARK  6 active torsions:
REMARK  status: ('A' for Active; 'I' for Inactive)
REMARK    1  A    between atoms: N1_2  and  C3_4 
REMARK    2  A    between atoms: C3_4  and  C4_5 
REMARK    3  A    between atoms: C4_5  and  C5_6 
REMARK    4  A    between atoms: C5_6  and  O1_7 
REMARK    5  A    between atoms: O1_7  and  C6_8 
REMARK    6  A    between atoms: C9_11  and  N2_12 
ROOT
HETATM    1  C6  UNL     1      26.772   4.221  49.343  1.00  0.00     0.060 A 
HETATM    2  C7  UNL     1      26.426   2.996  49.717  1.00  0.00     0.043 A 
HETATM    3  C8  UNL     1      25.239   3.602  50.323  1.00  0.00    -0.016 A 
HETATM    4  C9  UNL     1      24.101   3.598  51.007  1.00  0.00     0.035 C 
HETATM    5  C15 UNL     1      23.535   4.995  51.048  1.00  0.00     0.205 C 
HETATM    6  N3  UNL     1      23.546   5.505  49.693  1.00  0.00    -0.299 NA
HETATM    7  C16 UNL     1      24.631   5.521  49.003  1.00  0.00     0.100 C 
HETATM    8  C17 UNL     1      25.621   4.955  49.917  1.00  0.00     0.117 A 
ENDROOT
BRANCH   4   9
HETATM    9  N2  UNL     1      23.549   2.397  51.555  1.00  0.00    -0.377 N 
HETATM   10  C10 UNL     1      24.117   1.110  51.903  1.00  0.00     0.153 C 
HETATM   11  C11 UNL     1      23.535   0.622  53.172  1.00  0.00     0.032 C 
HETATM   12  C12 UNL     1      22.223   0.765  53.297  1.00  0.00     0.111 C 
HETATM   13  F1  UNL     1      21.719   0.301  54.489  1.00  0.00    -0.209 F 
HETATM   14  C13 UNL     1      21.427   1.385  52.200  1.00  0.00     0.162 C 
HETATM   15 CL1  UNL     1      21.303   0.254  50.835  1.00  0.00    -0.116 Cl
HETATM   16  C14 UNL     1      22.121   2.643  51.761  1.00  0.00     0.150 C 
ENDBRANCH   4   9
BRANCH   1  17
HETATM   17  O1  UNL     1      27.895   4.558  48.636  1.00  0.00    -0.354 OA
BRANCH  17  18
HETATM   18  C5  UNL     1      28.285   5.858  48.257  1.00  0.00     0.177 C 
BRANCH  18  19
HETATM   19  C4  UNL     1      29.799   5.989  48.234  1.00  0.00     0.057 C 
BRANCH  19  20
HETATM   20  C3  UNL     1      30.174   7.422  47.918  1.00  0.00     0.273 C 
BRANCH  20  21
HETATM   21  N1  UNL     1      30.500   8.107  49.137  1.00  0.00     0.080 N 
HETATM   22  C1  UNL     1      31.900   8.002  49.484  1.00  0.00     0.309 C 
HETATM   23  C2  UNL     1      30.019   9.466  49.171  1.00  0.00     0.309 C 
ENDBRANCH  20  21
ENDBRANCH  19  20
ENDBRANCH  18  19
ENDBRANCH  17  18
ENDBRANCH   1  17
TORSDOF 6
ENDMDL
