MODEL 1
REMARK VINA RESULT:      -8.3      0.000      0.000
REMARK  2 active torsions:
REMARK  status: ('A' for Active; 'I' for Inactive)
REMARK    1  A    between atoms: S1_7  and  N1_8 
REMARK    2  A    between atoms: N1_8  and  C7_9 
ROOT
HETATM    1  C7  UNL     1      23.725   1.845  52.131  1.00  0.00     0.171 A 
HETATM    2  N2  UNL     1      23.461   2.126  50.890  1.00  0.00    -0.220 NA
HETATM    3  C8  UNL     1      22.221   1.463  51.098  1.00  0.00     0.115 A 
HETATM    4  S2  UNL     1      20.519   0.729  50.848  1.00  0.00    -0.072 SA
HETATM    5  C9  UNL     1      20.356   0.100  52.524  1.00  0.00     0.020 A 
HETATM    6  C10 UNL     1      21.615   0.488  53.181  1.00  0.00    -0.025 A 
HETATM    7  C11 UNL     1      22.454   1.166  52.342  1.00  0.00     0.056 A 
HETATM    8  C12 UNL     1      21.533  -0.011  54.574  1.00  0.00     0.070 C 
HETATM    9  C13 UNL     1      21.088  -1.444  54.581  1.00  0.00     0.274 C 
HETATM   10  N3  UNL     1      19.793  -1.654  54.031  1.00  0.00     0.088 N 
HETATM   11  C14 UNL     1      19.288  -0.624  53.184  1.00  0.00     0.316 C 
HETATM   12  H13 UNL     1      19.735  -2.569  53.536  1.00  0.00     0.316 HD
ENDROOT
BRANCH   1  13
HETATM   13  N1  UNL     1      24.884   2.149  52.898  1.00  0.00    -0.201 NA
BRANCH  13  14
HETATM   14  S1  UNL     1      26.242   1.326  52.746  1.00  0.00    -0.052 SA
HETATM   15  C6  UNL     1      27.707   2.339  53.123  1.00  0.00     0.059 C 
HETATM   16  C5  UNL     1      28.885   2.074  53.720  1.00  0.00     0.007 C 
HETATM   17  C4  UNL     1      29.506   0.870  54.324  1.00  0.00    -0.001 C 
HETATM   18  C3  UNL     1      29.202  -0.420  54.103  1.00  0.00     0.004 C 
HETATM   19  C2  UNL     1      28.198  -1.133  53.232  1.00  0.00     0.141 C 
HETATM   20  C1  UNL     1      28.652  -2.530  52.968  1.00  0.00     0.044 C 
HETATM   21  O1  UNL     1      26.915  -1.067  53.738  1.00  0.00    -0.371 OA
HETATM   22  C15 UNL     1      25.996  -0.508  52.819  1.00  0.00     0.259 C 
ENDBRANCH  13  14
ENDBRANCH   1  13
TORSDOF 2
ENDMDL
MODEL 2
REMARK VINA RESULT:      -8.1      2.550      6.840
REMARK  2 active torsions:
REMARK  status: ('A' for Active; 'I' for Inactive)
REMARK    1  A    between atoms: S1_7  and  N1_8 
REMARK    2  A    between atoms: N1_8  and  C7_9 
ROOT
HETATM    1  C7  UNL     1      25.907   1.956  53.245  1.00  0.00     0.171 A 
HETATM    2  N2  UNL     1      26.518   2.679  54.136  1.00  0.00    -0.220 NA
HETATM    3  C8  UNL     1      27.492   1.645  54.177  1.00  0.00     0.115 A 
HETATM    4  S2  UNL     1      28.997   0.618  54.600  1.00  0.00    -0.072 SA
HETATM    5  C9  UNL     1      28.608  -0.727  53.474  1.00  0.00     0.020 A 
HETATM    6  C10 UNL     1      27.347  -0.315  52.837  1.00  0.00    -0.025 A 
HETATM    7  C11 UNL     1      26.907   0.897  53.289  1.00  0.00     0.056 A 
HETATM    8  C12 UNL     1      26.979  -1.396  51.893  1.00  0.00     0.070 C 
HETATM    9  C13 UNL     1      27.078  -2.729  52.576  1.00  0.00     0.274 C 
HETATM   10  N3  UNL     1      28.388  -3.055  53.028  1.00  0.00     0.088 N 
HETATM   11  C14 UNL     1      29.298  -1.968  53.176  1.00  0.00     0.316 C 
HETATM   12  H13 UNL     1      28.358  -3.606  53.912  1.00  0.00     0.316 HD
ENDROOT
BRANCH   1  13
HETATM   13  N1  UNL     1      24.696   2.217  52.547  1.00  0.00    -0.201 NA
BRANCH  13  14
HETATM   14  S1  UNL     1      23.505   1.157  52.488  1.00  0.00    -0.052 SA
HETATM   15  C6  UNL     1      23.730  -0.197  53.685  1.00  0.00     0.059 C 
HETATM   16  C5  UNL     1      22.875  -0.908  54.446  1.00  0.00     0.007 C 
HETATM   17  C4  UNL     1      21.407  -0.912  54.648  1.00  0.00    -0.001 C 
HETATM   18  C3  UNL     1      20.454  -0.442  53.826  1.00  0.00     0.004 C 
HETATM   19  C2  UNL     1      20.464   0.229  52.474  1.00  0.00     0.141 C 
HETATM   20  C1  UNL     1      19.145   0.045  51.804  1.00  0.00     0.044 C 
HETATM   21  O1  UNL     1      20.858   1.550  52.541  1.00  0.00    -0.371 OA
HETATM   22  C15 UNL     1      21.968   1.830  51.707  1.00  0.00     0.259 C 
ENDBRANCH  13  14
ENDBRANCH   1  13
TORSDOF 2
ENDMDL
MODEL 3
REMARK VINA RESULT:      -8.0      3.175      5.272
REMARK  2 active torsions:
REMARK  status: ('A' for Active; 'I' for Inactive)
REMARK    1  A    between atoms: S1_7  and  N1_8 
REMARK    2  A    between atoms: N1_8  and  C7_9 
ROOT
HETATM    1  C7  UNL     1      24.285   2.433  52.056  1.00  0.00     0.171 A 
HETATM    2  N2  UNL     1      23.395   3.114  52.713  1.00  0.00    -0.220 NA
HETATM    3  C8  UNL     1      23.725   4.201  51.858  1.00  0.00     0.115 A 
HETATM    4  S2  UNL     1      23.780   5.879  51.034  1.00  0.00    -0.072 SA
HETATM    5  C9  UNL     1      25.055   5.443  49.845  1.00  0.00     0.020 A 
HETATM    6  C10 UNL     1      25.368   4.037  50.146  1.00  0.00    -0.025 A 
HETATM    7  C11 UNL     1      24.622   3.547  51.181  1.00  0.00     0.056 A 
HETATM    8  C12 UNL     1      26.422   3.626  49.188  1.00  0.00     0.070 C 
HETATM    9  C13 UNL     1      27.516   4.653  49.158  1.00  0.00     0.274 C 
HETATM   10  N3  UNL     1      27.094   5.940  48.721  1.00  0.00     0.088 N 
HETATM   11  C14 UNL     1      25.696   6.208  48.792  1.00  0.00     0.316 C 
HETATM   12  H13 UNL     1      27.618   6.696  49.211  1.00  0.00     0.316 HD
ENDROOT
BRANCH   1  13
HETATM   13  N1  UNL     1      24.693   1.081  52.226  1.00  0.00    -0.201 NA
BRANCH  13  14
HETATM   14  S1  UNL     1      26.231   0.666  52.328  1.00  0.00    -0.052 SA
HETATM   15  C6  UNL     1      27.304   2.088  52.704  1.00  0.00     0.059 C 
HETATM   16  C5  UNL     1      28.417   2.234  53.448  1.00  0.00     0.007 C 
HETATM   17  C4  UNL     1      29.251   1.328  54.275  1.00  0.00    -0.001 C 
HETATM   18  C3  UNL     1      29.339  -0.011  54.208  1.00  0.00     0.004 C 
HETATM   19  C2  UNL     1      28.691  -1.069  53.350  1.00  0.00     0.141 C 
HETATM   20  C1  UNL     1      29.535  -2.299  53.333  1.00  0.00     0.044 C 
HETATM   21  O1  UNL     1      27.381  -1.316  53.711  1.00  0.00    -0.371 OA
HETATM   22  C15 UNL     1      26.479  -1.143  52.634  1.00  0.00     0.259 C 
ENDBRANCH  13  14
ENDBRANCH   1  13
TORSDOF 2
ENDMDL
MODEL 4
REMARK VINA RESULT:      -8.0      1.718      2.325
REMARK  2 active torsions:
REMARK  status: ('A' for Active; 'I' for Inactive)
REMARK    1  A    between atoms: S1_7  and  N1_8 
REMARK    2  A    between atoms: N1_8  and  C7_9 
ROOT
HETATM    1  C7  UNL     1      23.753   0.392  52.714  1.00  0.00     0.171 A 
HETATM    2  N2  UNL     1      23.830  -0.204  53.867  1.00  0.00    -0.220 NA
HETATM    3  C8  UNL     1      22.430  -0.418  53.750  1.00  0.00     0.115 A 
HETATM    4  S2  UNL     1      20.664  -0.940  54.078  1.00  0.00    -0.072 SA
HETATM    5  C9  UNL     1      19.999  -0.263  52.553  1.00  0.00     0.020 A 
HETATM    6  C10 UNL     1      21.166   0.325  51.877  1.00  0.00    -0.025 A 
HETATM    7  C11 UNL     1      22.318   0.172  52.596  1.00  0.00     0.056 A 
HETATM    8  C12 UNL     1      20.670   0.902  50.605  1.00  0.00     0.070 C 
HETATM    9  C13 UNL     1      19.448   1.735  50.862  1.00  0.00     0.274 C 
HETATM   10  N3  UNL     1      18.349   1.005  51.397  1.00  0.00     0.088 N 
HETATM   11  C14 UNL     1      18.655  -0.245  52.009  1.00  0.00     0.316 C 
HETATM   12  H13 UNL     1      17.793   1.589  52.058  1.00  0.00     0.316 HD
ENDROOT
BRANCH   1  13
HETATM   13  N1  UNL     1      24.780   1.002  51.943  1.00  0.00    -0.201 NA
BRANCH  13  14
HETATM   14  S1  UNL     1      26.322   0.651  52.156  1.00  0.00    -0.052 SA
HETATM   15  C6  UNL     1      27.301   2.111  52.636  1.00  0.00     0.059 C 
HETATM   16  C5  UNL     1      28.347   2.289  53.466  1.00  0.00     0.007 C 
HETATM   17  C4  UNL     1      29.154   1.404  54.339  1.00  0.00    -0.001 C 
HETATM   18  C3  UNL     1      29.305   0.071  54.258  1.00  0.00     0.004 C 
HETATM   19  C2  UNL     1      28.772  -0.997  53.336  1.00  0.00     0.141 C 
HETATM   20  C1  UNL     1      29.667  -2.189  53.364  1.00  0.00     0.044 C 
HETATM   21  O1  UNL     1      27.450  -1.306  53.591  1.00  0.00    -0.371 OA
HETATM   22  C15 UNL     1      26.626  -1.151  52.451  1.00  0.00     0.259 C 
ENDBRANCH  13  14
ENDBRANCH   1  13
TORSDOF 2
ENDMDL
MODEL 5
REMARK VINA RESULT:      -7.8      2.031      3.942
REMARK  2 active torsions:
REMARK  status: ('A' for Active; 'I' for Inactive)
REMARK    1  A    between atoms: S1_7  and  N1_8 
REMARK    2  A    between atoms: N1_8  and  C7_9 
ROOT
HETATM    1  C7  UNL     1      23.395   1.298  52.102  1.00  0.00     0.171 A 
HETATM    2  N2  UNL     1      22.408   0.460  52.209  1.00  0.00    -0.220 NA
HETATM    3  C8  UNL     1      22.001   0.915  50.925  1.00  0.00     0.115 A 
HETATM    4  S2  UNL     1      21.069   1.151  49.320  1.00  0.00    -0.072 SA
HETATM    5  C9  UNL     1      22.172   2.409  48.665  1.00  0.00     0.020 A 
HETATM    6  C10 UNL     1      23.192   2.579  49.712  1.00  0.00    -0.025 A 
HETATM    7  C11 UNL     1      22.977   1.763  50.787  1.00  0.00     0.056 A 
HETATM    8  C12 UNL     1      24.132   3.613  49.220  1.00  0.00     0.070 C 
HETATM    9  C13 UNL     1      23.368   4.801  48.712  1.00  0.00     0.274 C 
HETATM   10  N3  UNL     1      22.514   4.515  47.610  1.00  0.00     0.088 N 
HETATM   11  C14 UNL     1      22.162   3.148  47.417  1.00  0.00     0.316 C 
HETATM   12  H13 UNL     1      21.649   5.096  47.640  1.00  0.00     0.316 HD
ENDROOT
BRANCH   1  13
HETATM   13  N1  UNL     1      24.449   1.571  53.018  1.00  0.00    -0.201 NA
BRANCH  13  14
HETATM   14  S1  UNL     1      25.920   0.988  52.816  1.00  0.00    -0.052 SA
HETATM   15  C6  UNL     1      27.201   2.268  53.013  1.00  0.00     0.059 C 
HETATM   16  C5  UNL     1      28.443   2.259  53.534  1.00  0.00     0.007 C 
HETATM   17  C4  UNL     1      29.307   1.233  54.166  1.00  0.00    -0.001 C 
HETATM   18  C3  UNL     1      29.226  -0.104  54.054  1.00  0.00     0.004 C 
HETATM   19  C2  UNL     1      28.313  -1.046  53.311  1.00  0.00     0.141 C 
HETATM   20  C1  UNL     1      28.992  -2.359  53.106  1.00  0.00     0.044 C 
HETATM   21  O1  UNL     1      27.074  -1.166  53.908  1.00  0.00    -0.371 OA
HETATM   22  C15 UNL     1      26.012  -0.848  53.027  1.00  0.00     0.259 C 
ENDBRANCH  13  14
ENDBRANCH   1  13
TORSDOF 2
ENDMDL
MODEL 6
REMARK VINA RESULT:      -7.6      4.200      6.141
REMARK  2 active torsions:
REMARK  status: ('A' for Active; 'I' for Inactive)
REMARK    1  A    between atoms: S1_7  and  N1_8 
REMARK    2  A    between atoms: N1_8  and  C7_9 
ROOT
HETATM    1  C7  UNL     1      22.973   2.163  50.656  1.00  0.00     0.171 A 
HETATM    2  N2  UNL     1      21.757   1.847  50.988  1.00  0.00    -0.220 NA
HETATM    3  C8  UNL     1      22.340   1.037  52.000  1.00  0.00     0.115 A 
HETATM    4  S2  UNL     1      22.582  -0.134  53.439  1.00  0.00    -0.072 SA
HETATM    5  C9  UNL     1      24.378  -0.054  53.423  1.00  0.00     0.020 A 
HETATM    6  C10 UNL     1      24.691   0.864  52.317  1.00  0.00    -0.025 A 
HETATM    7  C11 UNL     1      23.568   1.333  51.694  1.00  0.00     0.056 A 
HETATM    8  C12 UNL     1      26.168   0.965  52.259  1.00  0.00     0.070 C 
HETATM    9  C13 UNL     1      26.778  -0.406  52.297  1.00  0.00     0.274 C 
HETATM   10  N3  UNL     1      26.498  -1.134  53.487  1.00  0.00     0.088 N 
HETATM   11  C14 UNL     1      25.380  -0.693  54.253  1.00  0.00     0.316 C 
HETATM   12  H13 UNL     1      26.406  -2.154  53.294  1.00  0.00     0.316 HD
ENDROOT
BRANCH   1  13
HETATM   13  N1  UNL     1      23.431   3.028  49.624  1.00  0.00    -0.201 NA
BRANCH  13  14
HETATM   14  S1  UNL     1      24.504   4.178  49.894  1.00  0.00    -0.052 SA
HETATM   15  C6  UNL     1      26.201   3.639  49.510  1.00  0.00     0.059 C 
HETATM   16  C5  UNL     1      27.272   4.265  48.985  1.00  0.00     0.007 C 
HETATM   17  C4  UNL     1      27.548   5.637  48.496  1.00  0.00    -0.001 C 
HETATM   18  C3  UNL     1      26.894   6.772  48.794  1.00  0.00     0.004 C 
HETATM   19  C2  UNL     1      25.712   7.110  49.669  1.00  0.00     0.141 C 
HETATM   20  C1  UNL     1      25.754   8.552  50.050  1.00  0.00     0.044 C 
HETATM   21  O1  UNL     1      24.509   6.735  49.103  1.00  0.00    -0.371 OA
HETATM   22  C15 UNL     1      23.761   5.872  49.939  1.00  0.00     0.259 C 
ENDBRANCH  13  14
ENDBRANCH   1  13
TORSDOF 2
ENDMDL
MODEL 7
REMARK VINA RESULT:      -7.6      1.337      2.293
REMARK  2 active torsions:
REMARK  status: ('A' for Active; 'I' for Inactive)
REMARK    1  A    between atoms: S1_7  and  N1_8 
REMARK    2  A    between atoms: N1_8  and  C7_9 
ROOT
HETATM    1  C7  UNL     1      23.922   1.819  51.288  1.00  0.00     0.171 A 
HETATM    2  N2  UNL     1      23.173   2.689  50.679  1.00  0.00    -0.220 NA
HETATM    3  C8  UNL     1      22.121   2.241  51.524  1.00  0.00     0.115 A 
HETATM    4  S2  UNL     1      20.460   2.028  52.356  1.00  0.00    -0.072 SA
HETATM    5  C9  UNL     1      20.996   0.731  53.479  1.00  0.00     0.020 A 
HETATM    6  C10 UNL     1      22.418   0.535  53.154  1.00  0.00    -0.025 A 
HETATM    7  C11 UNL     1      22.843   1.362  52.153  1.00  0.00     0.056 A 
HETATM    8  C12 UNL     1      22.912  -0.532  54.057  1.00  0.00     0.070 C 
HETATM    9  C13 UNL     1      21.966  -1.697  54.041  1.00  0.00     0.274 C 
HETATM   10  N3  UNL     1      20.656  -1.389  54.505  1.00  0.00     0.088 N 
HETATM   11  C14 UNL     1      20.289  -0.012  54.504  1.00  0.00     0.316 C 
HETATM   12  H13 UNL     1      19.934  -1.942  53.995  1.00  0.00     0.316 HD
ENDROOT
BRANCH   1  13
HETATM   13  N1  UNL     1      25.298   1.517  51.090  1.00  0.00    -0.201 NA
BRANCH  13  14
HETATM   14  S1  UNL     1      26.270   1.153  52.301  1.00  0.00    -0.052 SA
HETATM   15  C6  UNL     1      26.427  -0.646  52.541  1.00  0.00     0.059 C 
HETATM   16  C5  UNL     1      27.449  -1.443  52.906  1.00  0.00     0.007 C 
HETATM   17  C4  UNL     1      28.870  -1.225  53.270  1.00  0.00    -0.001 C 
HETATM   18  C3  UNL     1      29.451  -0.095  53.708  1.00  0.00     0.004 C 
HETATM   19  C2  UNL     1      28.959   1.303  53.991  1.00  0.00     0.141 C 
HETATM   20  C1  UNL     1      29.879   1.983  54.948  1.00  0.00     0.044 C 
HETATM   21  O1  UNL     1      28.740   2.032  52.839  1.00  0.00    -0.371 OA
HETATM   22  C15 UNL     1      27.419   2.532  52.755  1.00  0.00     0.259 C 
ENDBRANCH  13  14
ENDBRANCH   1  13
TORSDOF 2
ENDMDL
MODEL 8
REMARK VINA RESULT:      -7.4      2.989      7.208
REMARK  2 active torsions:
REMARK  status: ('A' for Active; 'I' for Inactive)
REMARK    1  A    between atoms: S1_7  and  N1_8 
REMARK    2  A    between atoms: N1_8  and  C7_9 
ROOT
HETATM    1  C7  UNL     1      23.050   2.793  51.942  1.00  0.00     0.171 A 
HETATM    2  N2  UNL     1      23.691   3.732  51.313  1.00  0.00    -0.220 NA
HETATM    3  C8  UNL     1      24.845   2.914  51.453  1.00  0.00     0.115 A 
HETATM    4  S2  UNL     1      26.594   2.254  51.371  1.00  0.00    -0.072 SA
HETATM    5  C9  UNL     1      26.237   0.719  52.235  1.00  0.00     0.020 A 
HETATM    6  C10 UNL     1      24.799   0.798  52.537  1.00  0.00    -0.025 A 
HETATM    7  C11 UNL     1      24.234   1.956  52.085  1.00  0.00     0.056 A 
HETATM    8  C12 UNL     1      24.451  -0.451  53.255  1.00  0.00     0.070 C 
HETATM    9  C13 UNL     1      25.441  -0.704  54.355  1.00  0.00     0.274 C 
HETATM   10  N3  UNL     1      26.777  -0.891  53.903  1.00  0.00     0.088 N 
HETATM   11  C14 UNL     1      27.081  -0.403  52.598  1.00  0.00     0.316 C 
HETATM   12  H13 UNL     1      27.465  -0.508  54.585  1.00  0.00     0.316 HD
ENDROOT
BRANCH   1  13
HETATM   13  N1  UNL     1      21.676   2.725  52.303  1.00  0.00    -0.201 NA
BRANCH  13  14
HETATM   14  S1  UNL     1      20.744   1.505  51.868  1.00  0.00    -0.052 SA
HETATM   15  C6  UNL     1      20.834   0.116  53.043  1.00  0.00     0.059 C 
HETATM   16  C5  UNL     1      19.926  -0.769  53.498  1.00  0.00     0.007 C 
HETATM   17  C4  UNL     1      18.484  -1.008  53.256  1.00  0.00    -0.001 C 
HETATM   18  C3  UNL     1      17.744  -0.627  52.200  1.00  0.00     0.004 C 
HETATM   19  C2  UNL     1      18.033   0.134  50.930  1.00  0.00     0.141 C 
HETATM   20  C1  UNL     1      17.012  -0.197  49.894  1.00  0.00     0.044 C 
HETATM   21  O1  UNL     1      18.168   1.491  51.143  1.00  0.00    -0.371 OA
HETATM   22  C15 UNL     1      19.408   1.994  50.683  1.00  0.00     0.259 C 
ENDBRANCH  13  14
ENDBRANCH   1  13
TORSDOF 2
ENDMDL
MODEL 9
REMARK VINA RESULT:      -7.2      2.858      6.728
REMARK  2 active torsions:
REMARK  status: ('A' for Active; 'I' for Inactive)
REMARK    1  A    between atoms: S1_7  and  N1_8 
REMARK    2  A    between atoms: N1_8  and  C7_9 
ROOT
HETATM    1  C7  UNL     1      22.048  -0.140  52.961  1.00  0.00     0.171 A 
HETATM    2  N2  UNL     1      22.317  -1.229  53.617  1.00  0.00    -0.220 NA
HETATM    3  C8  UNL     1      23.632  -0.708  53.764  1.00  0.00     0.115 A 
HETATM    4  S2  UNL     1      25.432  -0.492  54.226  1.00  0.00    -0.072 SA
HETATM    5  C9  UNL     1      25.616   1.116  53.445  1.00  0.00     0.020 A 
HETATM    6  C10 UNL     1      24.290   1.397  52.875  1.00  0.00    -0.025 A 
HETATM    7  C11 UNL     1      23.395   0.392  53.114  1.00  0.00     0.056 A 
HETATM    8  C12 UNL     1      24.388   2.720  52.214  1.00  0.00     0.070 C 
HETATM    9  C13 UNL     1      25.609   2.769  51.344  1.00  0.00     0.274 C 
HETATM   10  N3  UNL     1      26.834   2.612  52.051  1.00  0.00     0.088 N 
HETATM   11  C14 UNL     1      26.750   2.015  53.342  1.00  0.00     0.316 C 
HETATM   12  H13 UNL     1      27.539   2.101  51.478  1.00  0.00     0.316 HD
ENDROOT
BRANCH   1  13
HETATM   13  N1  UNL     1      20.827   0.271  52.358  1.00  0.00    -0.201 NA
BRANCH  13  14
HETATM   14  S1  UNL     1      20.774   1.412  51.243  1.00  0.00    -0.052 SA
HETATM   15  C6  UNL     1      20.504   3.064  51.961  1.00  0.00     0.059 C 
HETATM   16  C5  UNL     1      20.958   4.292  51.647  1.00  0.00     0.007 C 
HETATM   17  C4  UNL     1      21.857   4.842  50.605  1.00  0.00    -0.001 C 
HETATM   18  C3  UNL     1      22.185   4.299  49.420  1.00  0.00     0.004 C 
HETATM   19  C2  UNL     1      21.818   3.021  48.708  1.00  0.00     0.141 C 
HETATM   20  C1  UNL     1      22.025   3.178  47.239  1.00  0.00     0.044 C 
HETATM   21  O1  UNL     1      22.464   1.918  49.230  1.00  0.00    -0.371 OA
HETATM   22  C15 UNL     1      21.564   0.908  49.647  1.00  0.00     0.259 C 
ENDBRANCH  13  14
ENDBRANCH   1  13
TORSDOF 2
ENDMDL
