MODEL 1
REMARK VINA RESULT:      -8.8      0.000      0.000
REMARK  6 active torsions:
REMARK  status: ('A' for Active; 'I' for Inactive)
REMARK    1  A    between atoms: C2_2  and  O1_3 
REMARK    2  A    between atoms: O1_3  and  C3_4 
REMARK    3  A    between atoms: C3_4  and  O2_6 
REMARK    4  A    between atoms: O2_6  and  C5_7 
REMARK    5  A    between atoms: C9_13  and  N3_14 
REMARK    6  A    between atoms: N3_14  and  C10_15 
ROOT
HETATM    1  C10 UNL     1      26.093   0.738  53.173  1.00  0.00     0.031 C 
HETATM    2  C11 UNL     1      27.156  -0.008  53.041  1.00  0.00     0.052 C 
HETATM    3  C12 UNL     1      26.975  -1.322  52.448  1.00  0.00     0.098 C 
HETATM    4  N4  UNL     1      26.843  -2.385  51.985  1.00  0.00    -0.192 NA
HETATM    5  C13 UNL     1      28.570   0.339  53.437  1.00  0.00     0.049 C 
HETATM    6  C14 UNL     1      28.713  -0.050  54.892  1.00  0.00     0.020 C 
HETATM    7  C15 UNL     1      28.792   1.805  53.328  1.00  0.00    -0.021 C 
HETATM    8  C16 UNL     1      27.710   2.552  53.504  1.00  0.00    -0.024 C 
HETATM    9  C17 UNL     1      26.358   2.069  53.790  1.00  0.00     0.085 C 
ENDROOT
BRANCH   1  10
HETATM   10  N3  UNL     1      24.825   0.245  52.742  1.00  0.00    -0.342 N 
HETATM   11  H12 UNL     1      25.046   0.548  51.780  1.00  0.00     0.167 HD
BRANCH  10  12
HETATM   12  C9  UNL     1      23.940  -0.356  53.666  1.00  0.00     0.144 A 
HETATM   13  N2  UNL     1      24.556  -0.947  54.706  1.00  0.00    -0.223 NA
HETATM   14  C8  UNL     1      23.805  -1.563  55.667  1.00  0.00     0.236 A 
HETATM   15  N1  UNL     1      22.471  -1.570  55.558  1.00  0.00    -0.241 NA
HETATM   16  C7  UNL     1      21.820  -0.994  54.540  1.00  0.00     0.077 A 
HETATM   17  C6  UNL     1      20.445  -0.985  54.406  1.00  0.00     0.072 A 
HETATM   18  C18 UNL     1      22.577  -0.372  53.573  1.00  0.00     0.075 A 
HETATM   19  C5  UNL     1      19.784  -0.373  53.328  1.00  0.00     0.110 A 
HETATM   20  C20 UNL     1      20.616   0.220  52.413  1.00  0.00     0.136 A 
HETATM   21  C19 UNL     1      21.988   0.238  52.503  1.00  0.00     0.121 A 
HETATM   22  O3  UNL     1      19.971   0.819  51.355  1.00  0.00    -0.344 OA
HETATM   23  O4  UNL     1      22.724   0.870  51.515  1.00  0.00    -0.345 OA
HETATM   24  C22 UNL     1      22.094   1.102  50.270  1.00  0.00     0.202 C 
HETATM   25  C21 UNL     1      20.702   1.695  50.520  1.00  0.00     0.202 C 
BRANCH  19  26
HETATM   26  O2  UNL     1      18.449  -0.508  53.434  1.00  0.00    -0.318 OA
BRANCH  26  27
HETATM   27  C3  UNL     1      17.525  -1.318  52.797  1.00  0.00     0.262 C 
HETATM   28  C4  UNL     1      17.445  -2.702  53.429  1.00  0.00     0.071 C 
BRANCH  27  29
HETATM   29  O1  UNL     1      16.288  -0.674  52.870  1.00  0.00    -0.362 OA
BRANCH  29  30
HETATM   30  C2  UNL     1      15.856  -0.133  51.684  1.00  0.00     0.166 C 
HETATM   31  C1  UNL     1      16.744  -0.385  50.503  1.00  0.00     0.033 C 
ENDBRANCH  29  30
ENDBRANCH  27  29
ENDBRANCH  26  27
ENDBRANCH  19  26
ENDBRANCH  10  12
ENDBRANCH   1  10
TORSDOF 6
ENDMDL
MODEL 2
REMARK VINA RESULT:      -8.6      1.798      2.509
REMARK  6 active torsions:
REMARK  status: ('A' for Active; 'I' for Inactive)
REMARK    1  A    between atoms: C2_2  and  O1_3 
REMARK    2  A    between atoms: O1_3  and  C3_4 
REMARK    3  A    between atoms: C3_4  and  O2_6 
REMARK    4  A    between atoms: O2_6  and  C5_7 
REMARK    5  A    between atoms: C9_13  and  N3_14 
REMARK    6  A    between atoms: N3_14  and  C10_15 
ROOT
HETATM    1  C10 UNL     1      26.195   0.783  52.859  1.00  0.00     0.031 C 
HETATM    2  C11 UNL     1      27.193  -0.046  53.008  1.00  0.00     0.052 C 
HETATM    3  C12 UNL     1      27.022  -1.390  52.486  1.00  0.00     0.098 C 
HETATM    4  N4  UNL     1      26.895  -2.478  52.082  1.00  0.00    -0.192 NA
HETATM    5  C13 UNL     1      28.520   0.233  53.669  1.00  0.00     0.049 C 
HETATM    6  C14 UNL     1      28.326  -0.036  55.146  1.00  0.00     0.020 C 
HETATM    7  C15 UNL     1      28.888   1.664  53.506  1.00  0.00    -0.021 C 
HETATM    8  C16 UNL     1      27.864   2.499  53.395  1.00  0.00    -0.024 C 
HETATM    9  C17 UNL     1      26.445   2.141  53.422  1.00  0.00     0.085 C 
ENDROOT
BRANCH   1  10
HETATM   10  N3  UNL     1      25.005   0.346  52.205  1.00  0.00    -0.342 N 
HETATM   11  H12 UNL     1      25.534   0.257  51.323  1.00  0.00     0.167 HD
BRANCH  10  12
HETATM   12  C9  UNL     1      23.793   0.236  52.924  1.00  0.00     0.144 A 
HETATM   13  N2  UNL     1      23.813  -0.707  53.884  1.00  0.00    -0.223 NA
HETATM   14  C8  UNL     1      22.699  -0.909  54.649  1.00  0.00     0.236 A 
HETATM   15  N1  UNL     1      21.606  -0.166  54.431  1.00  0.00    -0.241 NA
HETATM   16  C7  UNL     1      21.545   0.781  53.487  1.00  0.00     0.077 A 
HETATM   17  C6  UNL     1      20.431   1.561  53.243  1.00  0.00     0.072 A 
HETATM   18  C18 UNL     1      22.669   0.984  52.718  1.00  0.00     0.075 A 
HETATM   19  C5  UNL     1      20.392   2.550  52.246  1.00  0.00     0.110 A 
HETATM   20  C20 UNL     1      21.553   2.682  51.529  1.00  0.00     0.136 A 
HETATM   21  C19 UNL     1      22.686   1.931  51.735  1.00  0.00     0.121 A 
HETATM   22  O3  UNL     1      21.516   3.650  50.551  1.00  0.00    -0.344 OA
HETATM   23  O4  UNL     1      23.802   2.156  50.945  1.00  0.00    -0.345 OA
HETATM   24  C22 UNL     1      23.614   2.832  49.717  1.00  0.00     0.202 C 
HETATM   25  C21 UNL     1      22.730   4.063  49.957  1.00  0.00     0.202 C 
BRANCH  19  26
HETATM   26  O2  UNL     1      19.194   3.163  52.215  1.00  0.00    -0.318 OA
BRANCH  26  27
HETATM   27  C3  UNL     1      17.996   2.869  51.586  1.00  0.00     0.262 C 
HETATM   28  C4  UNL     1      17.186   4.124  51.284  1.00  0.00     0.071 C 
BRANCH  27  29
HETATM   29  O1  UNL     1      18.301   2.188  50.407  1.00  0.00    -0.362 OA
BRANCH  29  30
HETATM   30  C2  UNL     1      17.561   1.050  50.197  1.00  0.00     0.166 C 
HETATM   31  C1  UNL     1      17.936  -0.124  51.051  1.00  0.00     0.033 C 
ENDBRANCH  29  30
ENDBRANCH  27  29
ENDBRANCH  26  27
ENDBRANCH  19  26
ENDBRANCH  10  12
ENDBRANCH   1  10
TORSDOF 6
ENDMDL
MODEL 3
REMARK VINA RESULT:      -8.6      3.274      7.823
REMARK  6 active torsions:
REMARK  status: ('A' for Active; 'I' for Inactive)
REMARK    1  A    between atoms: C2_2  and  O1_3 
REMARK    2  A    between atoms: O1_3  and  C3_4 
REMARK    3  A    between atoms: C3_4  and  O2_6 
REMARK    4  A    between atoms: O2_6  and  C5_7 
REMARK    5  A    between atoms: C9_13  and  N3_14 
REMARK    6  A    between atoms: N3_14  and  C10_15 
ROOT
HETATM    1  C10 UNL     1      21.323   2.433  50.956  1.00  0.00     0.031 C 
HETATM    2  C11 UNL     1      20.994   3.536  50.338  1.00  0.00     0.052 C 
HETATM    3  C12 UNL     1      21.335   4.788  50.990  1.00  0.00     0.098 C 
HETATM    4  N4  UNL     1      21.592   5.803  51.508  1.00  0.00    -0.192 NA
HETATM    5  C13 UNL     1      20.291   3.663  49.009  1.00  0.00     0.049 C 
HETATM    6  C14 UNL     1      18.808   3.612  49.305  1.00  0.00     0.020 C 
HETATM    7  C15 UNL     1      20.627   2.508  48.135  1.00  0.00    -0.021 C 
HETATM    8  C16 UNL     1      20.920   1.384  48.776  1.00  0.00    -0.024 C 
HETATM    9  C17 UNL     1      20.938   1.191  50.227  1.00  0.00     0.085 C 
ENDROOT
BRANCH   1  10
HETATM   10  N3  UNL     1      21.987   2.500  52.217  1.00  0.00    -0.342 N 
HETATM   11  H12 UNL     1      21.859   3.524  52.219  1.00  0.00     0.167 HD
BRANCH  10  12
HETATM   12  C9  UNL     1      22.467   1.323  52.836  1.00  0.00     0.144 A 
HETATM   13  N2  UNL     1      21.546   0.685  53.580  1.00  0.00    -0.223 NA
HETATM   14  C8  UNL     1      21.890  -0.467  54.230  1.00  0.00     0.236 A 
HETATM   15  N1  UNL     1      23.137  -0.941  54.115  1.00  0.00    -0.241 NA
HETATM   16  C7  UNL     1      24.082  -0.337  53.385  1.00  0.00     0.077 A 
HETATM   17  C6  UNL     1      25.374  -0.807  53.249  1.00  0.00     0.072 A 
HETATM   18  C18 UNL     1      23.734   0.823  52.730  1.00  0.00     0.075 A 
HETATM   19  C5  UNL     1      26.349  -0.154  52.476  1.00  0.00     0.110 A 
HETATM   20  C20 UNL     1      25.915   0.992  51.862  1.00  0.00     0.136 A 
HETATM   21  C19 UNL     1      24.641   1.498  51.966  1.00  0.00     0.121 A 
HETATM   22  O3  UNL     1      26.869   1.634  51.105  1.00  0.00    -0.344 OA
HETATM   23  O4  UNL     1      24.319   2.668  51.297  1.00  0.00    -0.345 OA
HETATM   24  C22 UNL     1      25.382   3.506  50.886  1.00  0.00     0.202 C 
HETATM   25  C21 UNL     1      26.459   2.648  50.210  1.00  0.00     0.202 C 
BRANCH  19  26
HETATM   26  O2  UNL     1      27.521  -0.815  52.511  1.00  0.00    -0.318 OA
BRANCH  26  27
HETATM   27  C3  UNL     1      28.536  -0.896  53.449  1.00  0.00     0.262 C 
HETATM   28  C4  UNL     1      29.343  -2.180  53.310  1.00  0.00     0.071 C 
BRANCH  27  29
HETATM   29  O1  UNL     1      29.357   0.219  53.270  1.00  0.00    -0.362 OA
BRANCH  29  30
HETATM   30  C2  UNL     1      29.203   1.199  54.220  1.00  0.00     0.166 C 
HETATM   31  C1  UNL     1      28.749   2.530  53.700  1.00  0.00     0.033 C 
ENDBRANCH  29  30
ENDBRANCH  27  29
ENDBRANCH  26  27
ENDBRANCH  19  26
ENDBRANCH  10  12
ENDBRANCH   1  10
TORSDOF 6
ENDMDL
MODEL 4
REMARK VINA RESULT:      -8.4      2.671      7.976
REMARK  6 active torsions:
REMARK  status: ('A' for Active; 'I' for Inactive)
REMARK    1  A    between atoms: C2_2  and  O1_3 
REMARK    2  A    between atoms: O1_3  and  C3_4 
REMARK    3  A    between atoms: C3_4  and  O2_6 
REMARK    4  A    between atoms: O2_6  and  C5_7 
REMARK    5  A    between atoms: C9_13  and  N3_14 
REMARK    6  A    between atoms: N3_14  and  C10_15 
ROOT
HETATM    1  C10 UNL     1      20.422   0.360  51.573  1.00  0.00     0.031 C 
HETATM    2  C11 UNL     1      19.826   0.753  50.480  1.00  0.00     0.052 C 
HETATM    3  C12 UNL     1      20.671   1.114  49.356  1.00  0.00     0.098 C 
HETATM    4  N4  UNL     1      21.338   1.420  48.448  1.00  0.00    -0.192 NA
HETATM    5  C13 UNL     1      18.341   0.880  50.246  1.00  0.00     0.049 C 
HETATM    6  C14 UNL     1      17.949   2.259  50.729  1.00  0.00     0.020 C 
HETATM    7  C15 UNL     1      17.602  -0.121  51.060  1.00  0.00    -0.021 C 
HETATM    8  C16 UNL     1      18.202  -0.482  52.187  1.00  0.00    -0.024 C 
HETATM    9  C17 UNL     1      19.490   0.009  52.682  1.00  0.00     0.085 C 
ENDROOT
BRANCH   1  10
HETATM   10  N3  UNL     1      21.847   0.302  51.619  1.00  0.00    -0.342 N 
HETATM   11  H12 UNL     1      21.884   0.687  50.662  1.00  0.00     0.167 HD
BRANCH  10  12
HETATM   12  C9  UNL     1      22.507  -0.181  52.772  1.00  0.00     0.144 A 
HETATM   13  N2  UNL     1      21.784  -1.065  53.484  1.00  0.00    -0.223 NA
HETATM   14  C8  UNL     1      22.314  -1.603  54.622  1.00  0.00     0.236 A 
HETATM   15  N1  UNL     1      23.545  -1.244  55.010  1.00  0.00    -0.241 NA
HETATM   16  C7  UNL     1      24.296  -0.370  54.330  1.00  0.00     0.077 A 
HETATM   17  C6  UNL     1      25.568   0.017  54.709  1.00  0.00     0.072 A 
HETATM   18  C18 UNL     1      23.761   0.172  53.184  1.00  0.00     0.075 A 
HETATM   19  C5  UNL     1      26.338   0.937  53.978  1.00  0.00     0.110 A 
HETATM   20  C20 UNL     1      25.726   1.425  52.853  1.00  0.00     0.136 A 
HETATM   21  C19 UNL     1      24.464   1.071  52.435  1.00  0.00     0.121 A 
HETATM   22  O3  UNL     1      26.478   2.328  52.135  1.00  0.00    -0.344 OA
HETATM   23  O4  UNL     1      23.950   1.632  51.278  1.00  0.00    -0.345 OA
HETATM   24  C22 UNL     1      24.543   2.827  50.806  1.00  0.00     0.202 C 
HETATM   25  C21 UNL     1      26.069   2.667  50.826  1.00  0.00     0.202 C 
BRANCH  19  26
HETATM   26  O2  UNL     1      27.535   1.141  54.559  1.00  0.00    -0.318 OA
BRANCH  26  27
HETATM   27  C3  UNL     1      28.839   0.988  54.120  1.00  0.00     0.262 C 
HETATM   28  C4  UNL     1      29.756   2.079  54.660  1.00  0.00     0.071 C 
BRANCH  27  29
HETATM   29  O1  UNL     1      29.275  -0.270  54.541  1.00  0.00    -0.362 OA
BRANCH  29  30
HETATM   30  C2  UNL     1      29.805  -1.053  53.545  1.00  0.00     0.166 C 
HETATM   31  C1  UNL     1      29.014  -2.279  53.205  1.00  0.00     0.033 C 
ENDBRANCH  29  30
ENDBRANCH  27  29
ENDBRANCH  26  27
ENDBRANCH  19  26
ENDBRANCH  10  12
ENDBRANCH   1  10
TORSDOF 6
ENDMDL
MODEL 5
REMARK VINA RESULT:      -8.3      1.472      2.571
REMARK  6 active torsions:
REMARK  status: ('A' for Active; 'I' for Inactive)
REMARK    1  A    between atoms: C2_2  and  O1_3 
REMARK    2  A    between atoms: O1_3  and  C3_4 
REMARK    3  A    between atoms: C3_4  and  O2_6 
REMARK    4  A    between atoms: O2_6  and  C5_7 
REMARK    5  A    between atoms: C9_13  and  N3_14 
REMARK    6  A    between atoms: N3_14  and  C10_15 
ROOT
HETATM    1  C10 UNL     1      25.197   0.490  52.700  1.00  0.00     0.031 C 
HETATM    2  C11 UNL     1      25.636   1.625  53.175  1.00  0.00     0.052 C 
HETATM    3  C12 UNL     1      24.700   2.736  53.211  1.00  0.00     0.098 C 
HETATM    4  N4  UNL     1      23.963   3.640  53.235  1.00  0.00    -0.192 NA
HETATM    5  C13 UNL     1      27.020   1.921  53.697  1.00  0.00     0.049 C 
HETATM    6  C14 UNL     1      27.851   2.322  52.496  1.00  0.00     0.020 C 
HETATM    7  C15 UNL     1      27.622   0.697  54.287  1.00  0.00    -0.021 C 
HETATM    8  C16 UNL     1      27.196  -0.446  53.768  1.00  0.00    -0.024 C 
HETATM    9  C17 UNL     1      26.213  -0.599  52.693  1.00  0.00     0.085 C 
ENDROOT
BRANCH   1  10
HETATM   10  N3  UNL     1      23.848   0.389  52.246  1.00  0.00    -0.342 N 
HETATM   11  H12 UNL     1      24.121   0.845  51.362  1.00  0.00     0.167 HD
BRANCH  10  12
HETATM   12  C9  UNL     1      22.859  -0.201  53.067  1.00  0.00     0.144 A 
HETATM   13  N2  UNL     1      23.344  -0.753  54.194  1.00  0.00    -0.223 NA
HETATM   14  C8  UNL     1      22.485  -1.355  55.069  1.00  0.00     0.236 A 
HETATM   15  N1  UNL     1      21.176  -1.386  54.791  1.00  0.00    -0.241 NA
HETATM   16  C7  UNL     1      20.653  -0.849  53.683  1.00  0.00     0.077 A 
HETATM   17  C6  UNL     1      19.306  -0.867  53.374  1.00  0.00     0.072 A 
HETATM   18  C18 UNL     1      21.519  -0.242  52.801  1.00  0.00     0.075 A 
HETATM   19  C5  UNL     1      18.781  -0.296  52.202  1.00  0.00     0.110 A 
HETATM   20  C20 UNL     1      19.715   0.285  51.384  1.00  0.00     0.136 A 
HETATM   21  C19 UNL     1      21.064   0.328  51.648  1.00  0.00     0.121 A 
HETATM   22  O3  UNL     1      19.204   0.844  50.235  1.00  0.00    -0.344 OA
HETATM   23  O4  UNL     1      21.913   0.945  50.743  1.00  0.00    -0.345 OA
HETATM   24  C22 UNL     1      21.444   1.131  49.422  1.00  0.00     0.202 C 
HETATM   25  C21 UNL     1      20.024   1.709  49.475  1.00  0.00     0.202 C 
BRANCH  19  26
HETATM   26  O2  UNL     1      17.446  -0.450  52.141  1.00  0.00    -0.318 OA
BRANCH  26  27
HETATM   27  C3  UNL     1      16.398   0.437  51.962  1.00  0.00     0.262 C 
HETATM   28  C4  UNL     1      15.756   0.293  50.588  1.00  0.00     0.071 C 
BRANCH  27  29
HETATM   29  O1  UNL     1      15.463   0.184  52.968  1.00  0.00    -0.362 OA
BRANCH  29  30
HETATM   30  C2  UNL     1      14.416   1.072  53.010  1.00  0.00     0.166 C 
HETATM   31  C1  UNL     1      13.248   0.648  53.848  1.00  0.00     0.033 C 
ENDBRANCH  29  30
ENDBRANCH  27  29
ENDBRANCH  26  27
ENDBRANCH  19  26
ENDBRANCH  10  12
ENDBRANCH   1  10
TORSDOF 6
ENDMDL
MODEL 6
REMARK VINA RESULT:      -8.2      2.055      3.624
REMARK  6 active torsions:
REMARK  status: ('A' for Active; 'I' for Inactive)
REMARK    1  A    between atoms: C2_2  and  O1_3 
REMARK    2  A    between atoms: O1_3  and  C3_4 
REMARK    3  A    between atoms: C3_4  and  O2_6 
REMARK    4  A    between atoms: O2_6  and  C5_7 
REMARK    5  A    between atoms: C9_13  and  N3_14 
REMARK    6  A    between atoms: N3_14  and  C10_15 
ROOT
HETATM    1  C10 UNL     1      26.704   1.013  52.763  1.00  0.00     0.031 C 
HETATM    2  C11 UNL     1      27.491   0.012  53.051  1.00  0.00     0.052 C 
HETATM    3  C12 UNL     1      27.130  -1.290  52.518  1.00  0.00     0.098 C 
HETATM    4  N4  UNL     1      26.846  -2.345  52.107  1.00  0.00    -0.192 NA
HETATM    5  C13 UNL     1      28.748   0.050  53.884  1.00  0.00     0.049 C 
HETATM    6  C14 UNL     1      28.311  -0.128  55.323  1.00  0.00     0.020 C 
HETATM    7  C15 UNL     1      29.408   1.377  53.764  1.00  0.00    -0.021 C 
HETATM    8  C16 UNL     1      28.591   2.390  53.510  1.00  0.00    -0.024 C 
HETATM    9  C17 UNL     1      27.138   2.315  53.346  1.00  0.00     0.085 C 
ENDROOT
BRANCH   1  10
HETATM   10  N3  UNL     1      25.548   0.794  51.956  1.00  0.00    -0.342 N 
HETATM   11  H12 UNL     1      25.712  -0.223  52.013  1.00  0.00     0.167 HD
BRANCH  10  12
HETATM   12  C9  UNL     1      24.782   1.888  51.490  1.00  0.00     0.144 A 
HETATM   13  N2  UNL     1      25.482   2.767  50.751  1.00  0.00    -0.223 NA
HETATM   14  C8  UNL     1      24.851   3.868  50.243  1.00  0.00     0.236 A 
HETATM   15  N1  UNL     1      23.548   4.053  50.491  1.00  0.00    -0.241 NA
HETATM   16  C7  UNL     1      22.817   3.203  51.220  1.00  0.00     0.077 A 
HETATM   17  C6  UNL     1      21.472   3.371  51.489  1.00  0.00     0.072 A 
HETATM   18  C18 UNL     1      23.453   2.094  51.731  1.00  0.00     0.075 A 
HETATM   19  C5  UNL     1      20.725   2.464  52.258  1.00  0.00     0.110 A 
HETATM   20  C20 UNL     1      21.439   1.391  52.726  1.00  0.00     0.136 A 
HETATM   21  C19 UNL     1      22.776   1.180  52.485  1.00  0.00     0.121 A 
HETATM   22  O3  UNL     1      20.710   0.500  53.481  1.00  0.00    -0.344 OA
HETATM   23  O4  UNL     1      23.391   0.055  53.011  1.00  0.00    -0.345 OA
HETATM   24  C22 UNL     1      22.755  -0.598  54.093  1.00  0.00     0.202 C 
HETATM   25  C21 UNL     1      21.266  -0.768  53.764  1.00  0.00     0.202 C 
BRANCH  19  26
HETATM   26  O2  UNL     1      19.443   2.858  52.369  1.00  0.00    -0.318 OA
BRANCH  26  27
HETATM   27  C3  UNL     1      18.289   2.536  51.675  1.00  0.00     0.262 C 
HETATM   28  C4  UNL     1      17.495   3.775  51.281  1.00  0.00     0.071 C 
BRANCH  27  29
HETATM   29  O1  UNL     1      18.674   1.820  50.540  1.00  0.00    -0.362 OA
BRANCH  29  30
HETATM   30  C2  UNL     1      18.184   0.538  50.481  1.00  0.00     0.166 C 
HETATM   31  C1  UNL     1      17.667  -0.010  51.776  1.00  0.00     0.033 C 
ENDBRANCH  29  30
ENDBRANCH  27  29
ENDBRANCH  26  27
ENDBRANCH  19  26
ENDBRANCH  10  12
ENDBRANCH   1  10
TORSDOF 6
ENDMDL
MODEL 7
REMARK VINA RESULT:      -8.2      4.265      8.513
REMARK  6 active torsions:
REMARK  status: ('A' for Active; 'I' for Inactive)
REMARK    1  A    between atoms: C2_2  and  O1_3 
REMARK    2  A    between atoms: O1_3  and  C3_4 
REMARK    3  A    between atoms: C3_4  and  O2_6 
REMARK    4  A    between atoms: O2_6  and  C5_7 
REMARK    5  A    between atoms: C9_13  and  N3_14 
REMARK    6  A    between atoms: N3_14  and  C10_15 
ROOT
HETATM    1  C10 UNL     1      22.558   4.639  48.206  1.00  0.00     0.031 C 
HETATM    2  C11 UNL     1      22.273   5.687  47.480  1.00  0.00     0.052 C 
HETATM    3  C12 UNL     1      22.644   6.985  48.015  1.00  0.00     0.098 C 
HETATM    4  N4  UNL     1      22.925   8.037  48.438  1.00  0.00    -0.192 NA
HETATM    5  C13 UNL     1      21.594   5.707  46.133  1.00  0.00     0.049 C 
HETATM    6  C14 UNL     1      20.106   5.730  46.406  1.00  0.00     0.020 C 
HETATM    7  C15 UNL     1      21.906   4.464  45.379  1.00  0.00    -0.021 C 
HETATM    8  C16 UNL     1      22.154   3.399  46.129  1.00  0.00    -0.024 C 
HETATM    9  C17 UNL     1      22.145   3.345  47.593  1.00  0.00     0.085 C 
ENDROOT
BRANCH   1  10
HETATM   10  N3  UNL     1      23.206   4.807  49.466  1.00  0.00    -0.342 N 
HETATM   11  H12 UNL     1      22.368   5.294  49.821  1.00  0.00     0.167 HD
BRANCH  10  12
HETATM   12  C9  UNL     1      24.515   4.314  49.668  1.00  0.00     0.144 A 
HETATM   13  N2  UNL     1      25.463   4.994  48.998  1.00  0.00    -0.223 NA
HETATM   14  C8  UNL     1      26.770   4.611  49.112  1.00  0.00     0.236 A 
HETATM   15  N1  UNL     1      27.086   3.568  49.890  1.00  0.00    -0.241 NA
HETATM   16  C7  UNL     1      26.174   2.866  50.574  1.00  0.00     0.077 A 
HETATM   17  C6  UNL     1      26.474   1.787  51.383  1.00  0.00     0.072 A 
HETATM   18  C18 UNL     1      24.857   3.253  50.458  1.00  0.00     0.075 A 
HETATM   19  C5  UNL     1      25.498   1.066  52.091  1.00  0.00     0.110 A 
HETATM   20  C20 UNL     1      24.216   1.520  51.916  1.00  0.00     0.136 A 
HETATM   21  C19 UNL     1      23.868   2.588  51.123  1.00  0.00     0.121 A 
HETATM   22  O3  UNL     1      23.257   0.814  52.608  1.00  0.00    -0.344 OA
HETATM   23  O4  UNL     1      22.536   2.954  51.024  1.00  0.00    -0.345 OA
HETATM   24  C22 UNL     1      21.561   1.996  51.389  1.00  0.00     0.202 C 
HETATM   25  C21 UNL     1      21.961   1.365  52.728  1.00  0.00     0.202 C 
BRANCH  19  26
HETATM   26  O2  UNL     1      26.051   0.066  52.802  1.00  0.00    -0.318 OA
BRANCH  26  27
HETATM   27  C3  UNL     1      26.366  -0.083  54.141  1.00  0.00     0.262 C 
HETATM   28  C4  UNL     1      25.268  -0.808  54.910  1.00  0.00     0.071 C 
BRANCH  27  29
HETATM   29  O1  UNL     1      27.564  -0.796  54.210  1.00  0.00    -0.362 OA
BRANCH  29  30
HETATM   30  C2  UNL     1      28.670  -0.028  54.483  1.00  0.00     0.166 C 
HETATM   31  C1  UNL     1      29.848  -0.260  53.586  1.00  0.00     0.033 C 
ENDBRANCH  29  30
ENDBRANCH  27  29
ENDBRANCH  26  27
ENDBRANCH  19  26
ENDBRANCH  10  12
ENDBRANCH   1  10
TORSDOF 6
ENDMDL
MODEL 8
REMARK VINA RESULT:      -7.8      3.476      8.438
REMARK  6 active torsions:
REMARK  status: ('A' for Active; 'I' for Inactive)
REMARK    1  A    between atoms: C2_2  and  O1_3 
REMARK    2  A    between atoms: O1_3  and  C3_4 
REMARK    3  A    between atoms: C3_4  and  O2_6 
REMARK    4  A    between atoms: O2_6  and  C5_7 
REMARK    5  A    between atoms: C9_13  and  N3_14 
REMARK    6  A    between atoms: N3_14  and  C10_15 
ROOT
HETATM    1  C10 UNL     1      19.206   3.106  50.468  1.00  0.00     0.031 C 
HETATM    2  C11 UNL     1      17.925   3.304  50.303  1.00  0.00     0.052 C 
HETATM    3  C12 UNL     1      17.179   3.805  51.444  1.00  0.00     0.098 C 
HETATM    4  N4  UNL     1      16.564   4.195  52.357  1.00  0.00    -0.192 NA
HETATM    5  C13 UNL     1      17.120   3.069  49.050  1.00  0.00     0.049 C 
HETATM    6  C14 UNL     1      16.697   1.616  49.081  1.00  0.00     0.020 C 
HETATM    7  C15 UNL     1      17.966   3.277  47.845  1.00  0.00    -0.021 C 
HETATM    8  C16 UNL     1      19.258   3.034  48.017  1.00  0.00    -0.024 C 
HETATM    9  C17 UNL     1      19.902   2.591  49.255  1.00  0.00     0.085 C 
ENDROOT
BRANCH   1  10
HETATM   10  N3  UNL     1      19.807   3.383  51.732  1.00  0.00    -0.342 N 
HETATM   11  H12 UNL     1      18.901   3.201  52.192  1.00  0.00     0.167 HD
BRANCH  10  12
HETATM   12  C9  UNL     1      21.174   3.734  51.812  1.00  0.00     0.144 A 
HETATM   13  N2  UNL     1      21.447   4.970  51.360  1.00  0.00    -0.223 NA
HETATM   14  C8  UNL     1      22.736   5.424  51.385  1.00  0.00     0.236 A 
HETATM   15  N1  UNL     1      23.705   4.632  51.861  1.00  0.00    -0.241 NA
HETATM   16  C7  UNL     1      23.475   3.396  52.321  1.00  0.00     0.077 A 
HETATM   17  C6  UNL     1      24.456   2.559  52.817  1.00  0.00     0.072 A 
HETATM   18  C18 UNL     1      22.176   2.940  52.295  1.00  0.00     0.075 A 
HETATM   19  C5  UNL     1      24.190   1.266  53.295  1.00  0.00     0.110 A 
HETATM   20  C20 UNL     1      22.872   0.895  53.231  1.00  0.00     0.136 A 
HETATM   21  C19 UNL     1      21.860   1.691  52.746  1.00  0.00     0.121 A 
HETATM   22  O3  UNL     1      22.608  -0.373  53.697  1.00  0.00    -0.344 OA
HETATM   23  O4  UNL     1      20.563   1.206  52.731  1.00  0.00    -0.345 OA
HETATM   24  C22 UNL     1      20.382  -0.195  52.815  1.00  0.00     0.202 C 
HETATM   25  C21 UNL     1      21.266  -0.743  53.943  1.00  0.00     0.202 C 
BRANCH  19  26
HETATM   26  O2  UNL     1      25.315   0.662  53.721  1.00  0.00    -0.318 OA
BRANCH  26  27
HETATM   27  C3  UNL     1      25.994  -0.472  53.311  1.00  0.00     0.262 C 
HETATM   28  C4  UNL     1      26.602  -0.305  51.923  1.00  0.00     0.071 C 
BRANCH  27  29
HETATM   29  O1  UNL     1      26.992  -0.723  54.254  1.00  0.00    -0.362 OA
BRANCH  29  30
HETATM   30  C2  UNL     1      28.259  -0.380  53.849  1.00  0.00     0.166 C 
HETATM   31  C1  UNL     1      28.918   0.700  54.653  1.00  0.00     0.033 C 
ENDBRANCH  29  30
ENDBRANCH  27  29
ENDBRANCH  26  27
ENDBRANCH  19  26
ENDBRANCH  10  12
ENDBRANCH   1  10
TORSDOF 6
ENDMDL
MODEL 9
REMARK VINA RESULT:      -7.8      4.240      5.938
REMARK  6 active torsions:
REMARK  status: ('A' for Active; 'I' for Inactive)
REMARK    1  A    between atoms: C2_2  and  O1_3 
REMARK    2  A    between atoms: O1_3  and  C3_4 
REMARK    3  A    between atoms: C3_4  and  O2_6 
REMARK    4  A    between atoms: O2_6  and  C5_7 
REMARK    5  A    between atoms: C9_13  and  N3_14 
REMARK    6  A    between atoms: N3_14  and  C10_15 
ROOT
HETATM    1  C10 UNL     1      26.149   5.491  49.553  1.00  0.00     0.031 C 
HETATM    2  C11 UNL     1      26.266   6.778  49.362  1.00  0.00     0.052 C 
HETATM    3  C12 UNL     1      25.379   7.645  50.117  1.00  0.00     0.098 C 
HETATM    4  N4  UNL     1      24.663   8.353  50.708  1.00  0.00    -0.192 NA
HETATM    5  C13 UNL     1      27.228   7.479  48.435  1.00  0.00     0.049 C 
HETATM    6  C14 UNL     1      26.554   7.533  47.081  1.00  0.00     0.020 C 
HETATM    7  C15 UNL     1      28.480   6.688  48.295  1.00  0.00    -0.021 C 
HETATM    8  C16 UNL     1      28.338   5.379  48.452  1.00  0.00    -0.024 C 
HETATM    9  C17 UNL     1      27.091   4.668  48.742  1.00  0.00     0.085 C 
ENDROOT
BRANCH   1  10
HETATM   10  N3  UNL     1      25.176   4.999  50.473  1.00  0.00    -0.342 N 
HETATM   11  H12 UNL     1      24.734   5.932  50.490  1.00  0.00     0.167 HD
BRANCH  10  12
HETATM   12  C9  UNL     1      25.218   3.654  50.907  1.00  0.00     0.144 A 
HETATM   13  N2  UNL     1      26.462   3.181  51.097  1.00  0.00    -0.223 NA
HETATM   14  C8  UNL     1      26.633   1.892  51.517  1.00  0.00     0.236 A 
HETATM   15  N1  UNL     1      25.559   1.121  51.731  1.00  0.00    -0.241 NA
HETATM   16  C7  UNL     1      24.305   1.553  51.554  1.00  0.00     0.077 A 
HETATM   17  C6  UNL     1      23.181   0.779  51.770  1.00  0.00     0.072 A 
HETATM   18  C18 UNL     1      24.134   2.853  51.132  1.00  0.00     0.075 A 
HETATM   19  C5  UNL     1      21.874   1.256  51.577  1.00  0.00     0.110 A 
HETATM   20  C20 UNL     1      21.799   2.558  51.155  1.00  0.00     0.136 A 
HETATM   21  C19 UNL     1      22.887   3.368  50.928  1.00  0.00     0.121 A 
HETATM   22  O3  UNL     1      20.519   3.028  50.964  1.00  0.00    -0.344 OA
HETATM   23  O4  UNL     1      22.686   4.671  50.503  1.00  0.00    -0.345 OA
HETATM   24  C22 UNL     1      21.433   4.990  49.928  1.00  0.00     0.202 C 
HETATM   25  C21 UNL     1      20.319   4.419  50.814  1.00  0.00     0.202 C 
BRANCH  19  26
HETATM   26  O2  UNL     1      20.962   0.305  51.855  1.00  0.00    -0.318 OA
BRANCH  26  27
HETATM   27  C3  UNL     1      20.157   0.058  52.953  1.00  0.00     0.262 C 
HETATM   28  C4  UNL     1      18.744  -0.342  52.548  1.00  0.00     0.071 C 
BRANCH  27  29
HETATM   29  O1  UNL     1      20.762  -0.963  53.690  1.00  0.00    -0.362 OA
BRANCH  29  30
HETATM   30  C2  UNL     1      21.442  -0.536  54.804  1.00  0.00     0.166 C 
HETATM   31  C1  UNL     1      22.738  -1.238  55.071  1.00  0.00     0.033 C 
ENDBRANCH  29  30
ENDBRANCH  27  29
ENDBRANCH  26  27
ENDBRANCH  19  26
ENDBRANCH  10  12
ENDBRANCH   1  10
TORSDOF 6
ENDMDL
