MODEL 1
REMARK VINA RESULT:      -7.7      0.000      0.000
REMARK  6 active torsions:
REMARK  status: ('A' for Active; 'I' for Inactive)
REMARK    1  A    between atoms: C2_2  and  N1_3 
REMARK    2  A    between atoms: C2_2  and  C3_4 
REMARK    3  A    between atoms: C3_4  and  N2_5 
REMARK    4  A    between atoms: N2_5  and  C4_6 
REMARK    5  A    between atoms: C4_6  and  C5_7 
REMARK    6  A    between atoms: N3_10  and  C8_11 
ROOT
HETATM    1  C5  UNL     1      25.359  -0.099  52.965  1.00  0.00    -0.030 C 
HETATM    2  C6  UNL     1      24.534  -0.810  53.765  1.00  0.00     0.004 C 
HETATM    3  C7  UNL     1      23.079  -0.712  54.028  1.00  0.00     0.179 C 
HETATM    4  N3  UNL     1      22.368   0.247  53.264  1.00  0.00    -0.266 N 
HETATM    5  N6  UNL     1      22.919   1.478  52.910  1.00  0.00    -0.170 NA
HETATM    6  C16 UNL     1      24.064   1.873  52.537  1.00  0.00     0.108 C 
HETATM    7  C17 UNL     1      24.967   1.004  52.101  1.00  0.00     0.044 C 
ENDROOT
BRANCH   4   8
HETATM    8  C8  UNL     1      21.040   0.073  52.778  1.00  0.00     0.054 A 
HETATM    9  C9  UNL     1      20.629   0.577  51.548  1.00  0.00     0.033 A 
HETATM   10  C10 UNL     1      19.367   0.424  51.049  1.00  0.00     0.034 A 
HETATM   11  C11 UNL     1      18.403  -0.249  51.740  1.00  0.00     0.064 A 
HETATM   12  C12 UNL     1      18.753  -0.771  52.966  1.00  0.00     0.014 A 
HETATM   13  N5  UNL     1      17.130  -0.526  51.470  1.00  0.00    -0.274 N 
HETATM   14  C13 UNL     1      17.608  -1.386  53.426  1.00  0.00     0.152 A 
HETATM   15  C15 UNL     1      20.034  -0.597  53.439  1.00  0.00     0.046 A 
HETATM   16  N4  UNL     1      16.647  -1.206  52.475  1.00  0.00    -0.184 NA
HETATM   17  C14 UNL     1      16.382  -0.150  50.275  1.00  0.00     0.180 C 
ENDBRANCH   4   8
BRANCH   1  18
HETATM   18  C4  UNL     1      26.761  -0.559  53.022  1.00  0.00     0.308 C 
BRANCH  18  19
HETATM   19  N2  UNL     1      27.293  -0.729  54.328  1.00  0.00     0.089 N 
HETATM   20  H9  UNL     1      27.813  -1.625  54.386  1.00  0.00     0.316 HD
BRANCH  19  21
HETATM   21  C3  UNL     1      28.129   0.342  54.753  1.00  0.00     0.304 C 
BRANCH  21  22
HETATM   22  C2  UNL     1      28.765   0.998  53.503  1.00  0.00     0.241 C 
HETATM   23  C1  UNL     1      28.785   2.489  53.684  1.00  0.00     0.044 C 
BRANCH  22  24
HETATM   24  N1  UNL     1      30.163   0.541  53.523  1.00  0.00     0.084 N 
HETATM   25  H5  UNL     1      30.355   0.228  52.531  1.00  0.00     0.313 HD
HETATM   26  H6  UNL     1      30.220  -0.326  54.107  1.00  0.00     0.313 HD
ENDBRANCH  22  24
ENDBRANCH  21  22
ENDBRANCH  19  21
ENDBRANCH  18  19
ENDBRANCH   1  18
TORSDOF 6
ENDMDL
MODEL 2
REMARK VINA RESULT:      -7.6      0.639      1.463
REMARK  6 active torsions:
REMARK  status: ('A' for Active; 'I' for Inactive)
REMARK    1  A    between atoms: C2_2  and  N1_3 
REMARK    2  A    between atoms: C2_2  and  C3_4 
REMARK    3  A    between atoms: C3_4  and  N2_5 
REMARK    4  A    between atoms: N2_5  and  C4_6 
REMARK    5  A    between atoms: C4_6  and  C5_7 
REMARK    6  A    between atoms: N3_10  and  C8_11 
ROOT
HETATM    1  C5  UNL     1      25.150   0.039  53.084  1.00  0.00    -0.030 C 
HETATM    2  C6  UNL     1      24.362  -0.715  53.882  1.00  0.00     0.004 C 
HETATM    3  C7  UNL     1      22.905  -0.687  54.150  1.00  0.00     0.179 C 
HETATM    4  N3  UNL     1      22.147   0.242  53.394  1.00  0.00    -0.266 N 
HETATM    5  N6  UNL     1      22.639   1.500  53.046  1.00  0.00    -0.170 NA
HETATM    6  C16 UNL     1      23.762   1.950  52.672  1.00  0.00     0.108 C 
HETATM    7  C17 UNL     1      24.703   1.127  52.228  1.00  0.00     0.044 C 
ENDROOT
BRANCH   4   8
HETATM    8  C8  UNL     1      20.827   0.008  52.911  1.00  0.00     0.054 A 
HETATM    9  C9  UNL     1      19.900  -0.747  53.622  1.00  0.00     0.033 A 
HETATM   10  C10 UNL     1      18.626  -0.986  53.191  1.00  0.00     0.034 A 
HETATM   11  C11 UNL     1      18.168  -0.488  52.007  1.00  0.00     0.064 A 
HETATM   12  C12 UNL     1      19.043   0.269  51.259  1.00  0.00     0.014 A 
HETATM   13  N5  UNL     1      16.994  -0.579  51.386  1.00  0.00    -0.274 N 
HETATM   14  C13 UNL     1      18.325   0.633  50.140  1.00  0.00     0.152 A 
HETATM   15  C15 UNL     1      20.320   0.489  51.723  1.00  0.00     0.046 A 
HETATM   16  N4  UNL     1      17.081   0.089  50.267  1.00  0.00    -0.184 NA
HETATM   17  C14 UNL     1      15.808  -1.292  51.848  1.00  0.00     0.180 C 
ENDBRANCH   4   8
BRANCH   1  18
HETATM   18  C4  UNL     1      26.572  -0.355  53.134  1.00  0.00     0.308 C 
BRANCH  18  19
HETATM   19  N2  UNL     1      27.094  -0.586  54.435  1.00  0.00     0.089 N 
HETATM   20  H9  UNL     1      27.409  -1.570  54.522  1.00  0.00     0.316 HD
BRANCH  19  21
HETATM   21  C3  UNL     1      28.156   0.294  54.792  1.00  0.00     0.304 C 
BRANCH  21  22
HETATM   22  C2  UNL     1      28.705   0.954  53.504  1.00  0.00     0.241 C 
HETATM   23  C1  UNL     1      28.687   2.447  53.669  1.00  0.00     0.044 C 
BRANCH  22  24
HETATM   24  N1  UNL     1      30.116   0.540  53.456  1.00  0.00     0.084 N 
HETATM   25  H5  UNL     1      30.593   1.137  54.187  1.00  0.00     0.313 HD
HETATM   26  H6  UNL     1      30.519   0.843  52.538  1.00  0.00     0.313 HD
ENDBRANCH  22  24
ENDBRANCH  21  22
ENDBRANCH  19  21
ENDBRANCH  18  19
ENDBRANCH   1  18
TORSDOF 6
ENDMDL
MODEL 3
REMARK VINA RESULT:      -7.3      5.261      8.479
REMARK  6 active torsions:
REMARK  status: ('A' for Active; 'I' for Inactive)
REMARK    1  A    between atoms: C2_2  and  N1_3 
REMARK    2  A    between atoms: C2_2  and  C3_4 
REMARK    3  A    between atoms: C3_4  and  N2_5 
REMARK    4  A    between atoms: N2_5  and  C4_6 
REMARK    5  A    between atoms: C4_6  and  C5_7 
REMARK    6  A    between atoms: N3_10  and  C8_11 
ROOT
HETATM    1  C5  UNL     1      25.427   2.064  52.622  1.00  0.00    -0.030 C 
HETATM    2  C6  UNL     1      26.277   1.801  51.606  1.00  0.00     0.004 C 
HETATM    3  C7  UNL     1      26.489   2.456  50.294  1.00  0.00     0.179 C 
HETATM    4  N3  UNL     1      25.729   3.626  50.048  1.00  0.00    -0.266 N 
HETATM    5  N6  UNL     1      24.418   3.774  50.501  1.00  0.00    -0.170 NA
HETATM    6  C16 UNL     1      23.795   3.463  51.560  1.00  0.00     0.108 C 
HETATM    7  C17 UNL     1      24.460   3.151  52.664  1.00  0.00     0.044 C 
ENDROOT
BRANCH   4   8
HETATM    8  C8  UNL     1      26.199   4.763  49.330  1.00  0.00     0.054 A 
HETATM    9  C9  UNL     1      25.361   5.814  48.973  1.00  0.00     0.033 A 
HETATM   10  C10 UNL     1      25.779   6.920  48.290  1.00  0.00     0.034 A 
HETATM   11  C11 UNL     1      27.078   7.072  47.904  1.00  0.00     0.064 A 
HETATM   12  C12 UNL     1      27.956   6.062  48.231  1.00  0.00     0.014 A 
HETATM   13  N5  UNL     1      27.715   8.037  47.246  1.00  0.00    -0.274 N 
HETATM   14  C13 UNL     1      29.172   6.475  47.729  1.00  0.00     0.152 A 
HETATM   15  C15 UNL     1      27.500   4.960  48.920  1.00  0.00     0.046 A 
HETATM   16  N4  UNL     1      28.968   7.687  47.136  1.00  0.00    -0.184 NA
HETATM   17  C14 UNL     1      27.141   9.274  46.727  1.00  0.00     0.180 C 
ENDBRANCH   4   8
BRANCH   1  18
HETATM   18  C4  UNL     1      25.571   1.130  53.756  1.00  0.00     0.308 C 
BRANCH  18  19
HETATM   19  N2  UNL     1      26.692   1.362  54.597  1.00  0.00     0.089 N 
HETATM   20  H9  UNL     1      26.377   1.719  55.519  1.00  0.00     0.316 HD
BRANCH  19  21
HETATM   21  C3  UNL     1      27.520   0.218  54.780  1.00  0.00     0.304 C 
BRANCH  21  22
HETATM   22  C2  UNL     1      29.001   0.658  54.677  1.00  0.00     0.241 C 
HETATM   23  C1  UNL     1      29.669  -0.112  53.574  1.00  0.00     0.044 C 
BRANCH  22  24
HETATM   24  N1  UNL     1      28.934   2.063  54.245  1.00  0.00     0.084 N 
HETATM   25  H5  UNL     1      28.173   2.080  53.511  1.00  0.00     0.313 HD
HETATM   26  H6  UNL     1      29.819   2.297  53.737  1.00  0.00     0.313 HD
ENDBRANCH  22  24
ENDBRANCH  21  22
ENDBRANCH  19  21
ENDBRANCH  18  19
ENDBRANCH   1  18
TORSDOF 6
ENDMDL
MODEL 4
REMARK VINA RESULT:      -7.3      3.400      8.035
REMARK  6 active torsions:
REMARK  status: ('A' for Active; 'I' for Inactive)
REMARK    1  A    between atoms: C2_2  and  N1_3 
REMARK    2  A    between atoms: C2_2  and  C3_4 
REMARK    3  A    between atoms: C3_4  and  N2_5 
REMARK    4  A    between atoms: N2_5  and  C4_6 
REMARK    5  A    between atoms: C4_6  and  C5_7 
REMARK    6  A    between atoms: N3_10  and  C8_11 
ROOT
HETATM    1  C5  UNL     1      22.352   3.776  51.538  1.00  0.00    -0.030 C 
HETATM    2  C6  UNL     1      23.279   4.174  52.438  1.00  0.00     0.004 C 
HETATM    3  C7  UNL     1      24.223   3.416  53.291  1.00  0.00     0.179 C 
HETATM    4  N3  UNL     1      24.242   2.011  53.110  1.00  0.00    -0.266 N 
HETATM    5  N6  UNL     1      23.089   1.279  52.828  1.00  0.00    -0.170 NA
HETATM    6  C16 UNL     1      22.063   1.465  52.107  1.00  0.00     0.108 C 
HETATM    7  C17 UNL     1      22.063   2.400  51.166  1.00  0.00     0.044 C 
ENDROOT
BRANCH   4   8
HETATM    8  C8  UNL     1      25.409   1.199  53.190  1.00  0.00     0.054 A 
HETATM    9  C9  UNL     1      26.615   1.681  53.688  1.00  0.00     0.033 A 
HETATM   10  C10 UNL     1      27.752   0.929  53.784  1.00  0.00     0.034 A 
HETATM   11  C11 UNL     1      27.780  -0.375  53.388  1.00  0.00     0.064 A 
HETATM   12  C12 UNL     1      26.613  -0.908  52.887  1.00  0.00     0.014 A 
HETATM   13  N5  UNL     1      28.742  -1.294  53.385  1.00  0.00    -0.274 N 
HETATM   14  C13 UNL     1      26.927  -2.214  52.576  1.00  0.00     0.152 A 
HETATM   15  C15 UNL     1      25.486  -0.122  52.803  1.00  0.00     0.046 A 
HETATM   16  N4  UNL     1      28.240  -2.398  52.899  1.00  0.00    -0.184 NA
HETATM   17  C14 UNL     1      30.120  -1.127  53.834  1.00  0.00     0.180 C 
ENDBRANCH   4   8
BRANCH   1  18
HETATM   18  C4  UNL     1      21.629   4.901  50.913  1.00  0.00     0.308 C 
BRANCH  18  19
HETATM   19  N2  UNL     1      21.771   6.154  51.567  1.00  0.00     0.089 N 
HETATM   20  H9  UNL     1      22.567   6.120  52.232  1.00  0.00     0.316 HD
BRANCH  19  21
HETATM   21  C3  UNL     1      21.934   7.253  50.676  1.00  0.00     0.304 C 
BRANCH  21  22
HETATM   22  C2  UNL     1      23.426   7.349  50.278  1.00  0.00     0.241 C 
HETATM   23  C1  UNL     1      23.622   8.538  49.381  1.00  0.00     0.044 C 
BRANCH  22  24
HETATM   24  N1  UNL     1      24.122   7.640  51.541  1.00  0.00     0.084 N 
HETATM   25  H5  UNL     1      24.388   6.691  51.923  1.00  0.00     0.313 HD
HETATM   26  H6  UNL     1      23.428   8.032  52.219  1.00  0.00     0.313 HD
ENDBRANCH  22  24
ENDBRANCH  21  22
ENDBRANCH  19  21
ENDBRANCH  18  19
ENDBRANCH   1  18
TORSDOF 6
ENDMDL
MODEL 5
REMARK VINA RESULT:      -7.1      4.937      8.281
REMARK  6 active torsions:
REMARK  status: ('A' for Active; 'I' for Inactive)
REMARK    1  A    between atoms: C2_2  and  N1_3 
REMARK    2  A    between atoms: C2_2  and  C3_4 
REMARK    3  A    between atoms: C3_4  and  N2_5 
REMARK    4  A    between atoms: N2_5  and  C4_6 
REMARK    5  A    between atoms: C4_6  and  C5_7 
REMARK    6  A    between atoms: N3_10  and  C8_11 
ROOT
HETATM    1  C5  UNL     1      23.717   1.989  52.265  1.00  0.00    -0.030 C 
HETATM    2  C6  UNL     1      23.629   1.905  50.918  1.00  0.00     0.004 C 
HETATM    3  C7  UNL     1      23.829   2.908  49.846  1.00  0.00     0.179 C 
HETATM    4  N3  UNL     1      24.266   4.190  50.262  1.00  0.00    -0.266 N 
HETATM    5  N6  UNL     1      23.836   4.776  51.453  1.00  0.00    -0.170 NA
HETATM    6  C16 UNL     1      23.607   4.356  52.626  1.00  0.00     0.108 C 
HETATM    7  C17 UNL     1      24.072   3.178  53.022  1.00  0.00     0.044 C 
ENDROOT
BRANCH   4   8
HETATM    8  C8  UNL     1      25.173   5.013  49.535  1.00  0.00     0.054 A 
HETATM    9  C9  UNL     1      24.782   6.215  48.955  1.00  0.00     0.033 A 
HETATM   10  C10 UNL     1      25.626   7.030  48.256  1.00  0.00     0.034 A 
HETATM   11  C11 UNL     1      26.940   6.711  48.076  1.00  0.00     0.064 A 
HETATM   12  C12 UNL     1      27.385   5.531  48.629  1.00  0.00     0.014 A 
HETATM   13  N5  UNL     1      27.938   7.329  47.450  1.00  0.00    -0.274 N 
HETATM   14  C13 UNL     1      28.722   5.469  48.298  1.00  0.00     0.152 A 
HETATM   15  C15 UNL     1      26.506   4.733  49.327  1.00  0.00     0.046 A 
HETATM   16  N4  UNL     1      29.008   6.591  47.577  1.00  0.00    -0.184 NA
HETATM   17  C14 UNL     1      27.878   8.601  46.739  1.00  0.00     0.180 C 
ENDBRANCH   4   8
BRANCH   1  18
HETATM   18  C4  UNL     1      23.428   0.711  52.945  1.00  0.00     0.308 C 
BRANCH  18  19
HETATM   19  N2  UNL     1      24.490  -0.233  52.945  1.00  0.00     0.089 N 
HETATM   20  H9  UNL     1      25.212   0.044  52.253  1.00  0.00     0.316 HD
BRANCH  19  21
HETATM   21  C3  UNL     1      25.092  -0.421  54.222  1.00  0.00     0.304 C 
BRANCH  21  22
HETATM   22  C2  UNL     1      26.612  -0.158  54.095  1.00  0.00     0.241 C 
HETATM   23  C1  UNL     1      27.008  -0.242  52.649  1.00  0.00     0.044 C 
BRANCH  22  24
HETATM   24  N1  UNL     1      26.775   1.244  54.508  1.00  0.00     0.084 N 
HETATM   25  H5  UNL     1      25.986   1.414  55.192  1.00  0.00     0.313 HD
HETATM   26  H6  UNL     1      26.572   1.859  53.686  1.00  0.00     0.313 HD
ENDBRANCH  22  24
ENDBRANCH  21  22
ENDBRANCH  19  21
ENDBRANCH  18  19
ENDBRANCH   1  18
TORSDOF 6
ENDMDL
MODEL 6
REMARK VINA RESULT:      -7.1      1.309      2.107
REMARK  6 active torsions:
REMARK  status: ('A' for Active; 'I' for Inactive)
REMARK    1  A    between atoms: C2_2  and  N1_3 
REMARK    2  A    between atoms: C2_2  and  C3_4 
REMARK    3  A    between atoms: C3_4  and  N2_5 
REMARK    4  A    between atoms: N2_5  and  C4_6 
REMARK    5  A    between atoms: C4_6  and  C5_7 
REMARK    6  A    between atoms: N3_10  and  C8_11 
ROOT
HETATM    1  C5  UNL     1      24.675   1.289  52.038  1.00  0.00    -0.030 C 
HETATM    2  C6  UNL     1      24.202   0.404  52.944  1.00  0.00     0.004 C 
HETATM    3  C7  UNL     1      22.834   0.132  53.445  1.00  0.00     0.179 C 
HETATM    4  N3  UNL     1      21.786   0.864  52.833  1.00  0.00    -0.266 N 
HETATM    5  N6  UNL     1      21.940   2.189  52.425  1.00  0.00    -0.170 NA
HETATM    6  C16 UNL     1      22.868   2.856  51.879  1.00  0.00     0.108 C 
HETATM    7  C17 UNL     1      23.877   2.239  51.279  1.00  0.00     0.044 C 
ENDROOT
BRANCH   4   8
HETATM    8  C8  UNL     1      20.485   0.348  52.566  1.00  0.00     0.054 A 
HETATM    9  C9  UNL     1      19.824  -0.492  53.456  1.00  0.00     0.033 A 
HETATM   10  C10 UNL     1      18.575  -1.000  53.236  1.00  0.00     0.034 A 
HETATM   11  C11 UNL     1      17.878  -0.710  52.101  1.00  0.00     0.064 A 
HETATM   12  C12 UNL     1      18.483   0.119  51.182  1.00  0.00     0.014 A 
HETATM   13  N5  UNL     1      16.673  -1.073  51.667  1.00  0.00    -0.274 N 
HETATM   14  C13 UNL     1      17.567   0.237  50.157  1.00  0.00     0.152 A 
HETATM   15  C15 UNL     1      19.743   0.612  51.436  1.00  0.00     0.046 A 
HETATM   16  N4  UNL     1      16.480  -0.511  50.504  1.00  0.00    -0.184 NA
HETATM   17  C14 UNL     1      15.719  -1.942  52.347  1.00  0.00     0.180 C 
ENDBRANCH   4   8
BRANCH   1  18
HETATM   18  C4  UNL     1      26.137   1.202  51.853  1.00  0.00     0.308 C 
BRANCH  18  19
HETATM   19  N2  UNL     1      26.887   2.267  52.420  1.00  0.00     0.089 N 
HETATM   20  H9  UNL     1      26.285   3.105  52.535  1.00  0.00     0.316 HD
BRANCH  19  21
HETATM   21  C3  UNL     1      27.500   1.940  53.663  1.00  0.00     0.304 C 
BRANCH  21  22
HETATM   22  C2  UNL     1      27.953   0.461  53.616  1.00  0.00     0.241 C 
HETATM   23  C1  UNL     1      29.454   0.404  53.607  1.00  0.00     0.044 C 
BRANCH  22  24
HETATM   24  N1  UNL     1      27.506  -0.098  54.901  1.00  0.00     0.084 N 
HETATM   25  H5  UNL     1      27.316   0.747  55.507  1.00  0.00     0.313 HD
HETATM   26  H6  UNL     1      28.314  -0.589  55.349  1.00  0.00     0.313 HD
ENDBRANCH  22  24
ENDBRANCH  21  22
ENDBRANCH  19  21
ENDBRANCH  18  19
ENDBRANCH   1  18
TORSDOF 6
ENDMDL
MODEL 7
REMARK VINA RESULT:      -6.9      4.980      7.338
REMARK  6 active torsions:
REMARK  status: ('A' for Active; 'I' for Inactive)
REMARK    1  A    between atoms: C2_2  and  N1_3 
REMARK    2  A    between atoms: C2_2  and  C3_4 
REMARK    3  A    between atoms: C3_4  and  N2_5 
REMARK    4  A    between atoms: N2_5  and  C4_6 
REMARK    5  A    between atoms: C4_6  and  C5_7 
REMARK    6  A    between atoms: N3_10  and  C8_11 
ROOT
HETATM    1  C5  UNL     1      25.017   5.607  48.958  1.00  0.00    -0.030 C 
HETATM    2  C6  UNL     1      23.905   4.839  48.929  1.00  0.00     0.004 C 
HETATM    3  C7  UNL     1      23.637   3.462  49.406  1.00  0.00     0.179 C 
HETATM    4  N3  UNL     1      24.698   2.819  50.092  1.00  0.00    -0.266 N 
HETATM    5  N6  UNL     1      26.035   2.999  49.737  1.00  0.00    -0.170 NA
HETATM    6  C16 UNL     1      26.736   3.984  49.355  1.00  0.00     0.108 C 
HETATM    7  C17 UNL     1      26.301   5.225  49.525  1.00  0.00     0.044 C 
ENDROOT
BRANCH   4   8
HETATM    8  C8  UNL     1      24.531   1.938  51.199  1.00  0.00     0.054 A 
HETATM    9  C9  UNL     1      23.276   1.583  51.682  1.00  0.00     0.033 A 
HETATM   10  C10 UNL     1      23.080   0.737  52.736  1.00  0.00     0.034 A 
HETATM   11  C11 UNL     1      24.127   0.171  53.401  1.00  0.00     0.064 A 
HETATM   12  C12 UNL     1      25.395   0.485  52.966  1.00  0.00     0.014 A 
HETATM   13  N5  UNL     1      24.190  -0.667  54.433  1.00  0.00    -0.274 N 
HETATM   14  C13 UNL     1      26.238  -0.216  53.802  1.00  0.00     0.152 A 
HETATM   15  C15 UNL     1      25.557   1.343  51.901  1.00  0.00     0.046 A 
HETATM   16  N4  UNL     1      25.451  -0.903  54.680  1.00  0.00    -0.184 NA
HETATM   17  C14 UNL     1      23.070  -1.235  55.175  1.00  0.00     0.180 C 
ENDBRANCH   4   8
BRANCH   1  18
HETATM   18  C4  UNL     1      24.817   6.939  48.356  1.00  0.00     0.308 C 
BRANCH  18  19
HETATM   19  N2  UNL     1      25.990   7.728  48.219  1.00  0.00     0.089 N 
HETATM   20  H9  UNL     1      26.060   8.096  47.251  1.00  0.00     0.316 HD
BRANCH  19  21
HETATM   21  C3  UNL     1      26.073   8.801  49.151  1.00  0.00     0.304 C 
BRANCH  21  22
HETATM   22  C2  UNL     1      27.560   9.021  49.520  1.00  0.00     0.241 C 
HETATM   23  C1  UNL     1      28.045  10.292  48.884  1.00  0.00     0.044 C 
BRANCH  22  24
HETATM   24  N1  UNL     1      27.546   9.243  50.974  1.00  0.00     0.084 N 
HETATM   25  H5  UNL     1      26.563   8.989  51.272  1.00  0.00     0.313 HD
HETATM   26  H6  UNL     1      27.638  10.269  51.155  1.00  0.00     0.313 HD
ENDBRANCH  22  24
ENDBRANCH  21  22
ENDBRANCH  19  21
ENDBRANCH  18  19
ENDBRANCH   1  18
TORSDOF 6
ENDMDL
MODEL 8
REMARK VINA RESULT:      -6.7      5.111      9.273
REMARK  6 active torsions:
REMARK  status: ('A' for Active; 'I' for Inactive)
REMARK    1  A    between atoms: C2_2  and  N1_3 
REMARK    2  A    between atoms: C2_2  and  C3_4 
REMARK    3  A    between atoms: C3_4  and  N2_5 
REMARK    4  A    between atoms: N2_5  and  C4_6 
REMARK    5  A    between atoms: C4_6  and  C5_7 
REMARK    6  A    between atoms: N3_10  and  C8_11 
ROOT
HETATM    1  C5  UNL     1      23.913   2.080  51.860  1.00  0.00    -0.030 C 
HETATM    2  C6  UNL     1      25.261   2.028  51.784  1.00  0.00     0.004 C 
HETATM    3  C7  UNL     1      26.222   2.584  50.802  1.00  0.00     0.179 C 
HETATM    4  N3  UNL     1      25.671   3.389  49.774  1.00  0.00    -0.266 N 
HETATM    5  N6  UNL     1      24.431   3.118  49.196  1.00  0.00    -0.170 NA
HETATM    6  C16 UNL     1      23.310   2.716  49.628  1.00  0.00     0.108 C 
HETATM    7  C17 UNL     1      23.033   2.763  50.925  1.00  0.00     0.044 C 
ENDROOT
BRANCH   4   8
HETATM    8  C8  UNL     1      26.300   4.542  49.223  1.00  0.00     0.054 A 
HETATM    9  C9  UNL     1      25.616   5.737  49.024  1.00  0.00     0.033 A 
HETATM   10  C10 UNL     1      26.188   6.862  48.503  1.00  0.00     0.034 A 
HETATM   11  C11 UNL     1      27.501   6.890  48.135  1.00  0.00     0.064 A 
HETATM   12  C12 UNL     1      28.230   5.735  48.310  1.00  0.00     0.014 A 
HETATM   13  N5  UNL     1      28.271   7.845  47.618  1.00  0.00    -0.274 N 
HETATM   14  C13 UNL     1      29.497   6.047  47.865  1.00  0.00     0.152 A 
HETATM   15  C15 UNL     1      27.621   4.618  48.837  1.00  0.00     0.046 A 
HETATM   16  N4  UNL     1      29.467   7.347  47.452  1.00  0.00    -0.184 NA
HETATM   17  C14 UNL     1      27.876   9.208  47.285  1.00  0.00     0.180 C 
ENDBRANCH   4   8
BRANCH   1  18
HETATM   18  C4  UNL     1      23.370   1.369  53.034  1.00  0.00     0.308 C 
BRANCH  18  19
HETATM   19  N2  UNL     1      22.845   0.075  52.774  1.00  0.00     0.089 N 
HETATM   20  H9  UNL     1      23.196  -0.600  53.480  1.00  0.00     0.316 HD
BRANCH  19  21
HETATM   21  C3  UNL     1      21.422   0.031  52.730  1.00  0.00     0.304 C 
BRANCH  21  22
HETATM   22  C2  UNL     1      20.917  -0.814  53.924  1.00  0.00     0.241 C 
HETATM   23  C1  UNL     1      22.054  -1.630  54.468  1.00  0.00     0.044 C 
BRANCH  22  24
HETATM   24  N1  UNL     1      20.566   0.179  54.950  1.00  0.00     0.084 N 
HETATM   25  H5  UNL     1      21.423   0.794  55.030  1.00  0.00     0.313 HD
HETATM   26  H6  UNL     1      20.484  -0.310  55.872  1.00  0.00     0.313 HD
ENDBRANCH  22  24
ENDBRANCH  21  22
ENDBRANCH  19  21
ENDBRANCH  18  19
ENDBRANCH   1  18
TORSDOF 6
ENDMDL
MODEL 9
REMARK VINA RESULT:      -6.7      4.543      6.401
REMARK  6 active torsions:
REMARK  status: ('A' for Active; 'I' for Inactive)
REMARK    1  A    between atoms: C2_2  and  N1_3 
REMARK    2  A    between atoms: C2_2  and  C3_4 
REMARK    3  A    between atoms: C3_4  and  N2_5 
REMARK    4  A    between atoms: N2_5  and  C4_6 
REMARK    5  A    between atoms: C4_6  and  C5_7 
REMARK    6  A    between atoms: N3_10  and  C8_11 
ROOT
HETATM    1  C5  UNL     1      24.963   6.305  50.085  1.00  0.00    -0.030 C 
HETATM    2  C6  UNL     1      24.219   6.396  51.210  1.00  0.00     0.004 C 
HETATM    3  C7  UNL     1      23.266   5.457  51.848  1.00  0.00     0.179 C 
HETATM    4  N3  UNL     1      23.135   4.186  51.237  1.00  0.00    -0.266 N 
HETATM    5  N6  UNL     1      23.193   4.012  49.854  1.00  0.00    -0.170 NA
HETATM    6  C16 UNL     1      23.886   4.509  48.917  1.00  0.00     0.108 C 
HETATM    7  C17 UNL     1      25.009   5.163  49.184  1.00  0.00     0.044 C 
ENDROOT
BRANCH   4   8
HETATM    8  C8  UNL     1      22.936   2.964  51.942  1.00  0.00     0.054 A 
HETATM    9  C9  UNL     1      21.666   2.471  52.226  1.00  0.00     0.033 A 
HETATM   10  C10 UNL     1      21.438   1.302  52.894  1.00  0.00     0.034 A 
HETATM   11  C11 UNL     1      22.465   0.522  53.339  1.00  0.00     0.064 A 
HETATM   12  C12 UNL     1      23.746   0.961  53.086  1.00  0.00     0.014 A 
HETATM   13  N5  UNL     1      22.498  -0.634  53.998  1.00  0.00    -0.274 N 
HETATM   14  C13 UNL     1      24.563  -0.004  53.636  1.00  0.00     0.152 A 
HETATM   15  C15 UNL     1      23.939   2.145  52.410  1.00  0.00     0.046 A 
HETATM   16  N4  UNL     1      23.750  -0.955  54.180  1.00  0.00    -0.184 NA
HETATM   17  C14 UNL     1      21.356  -1.421  54.449  1.00  0.00     0.180 C 
ENDBRANCH   4   8
BRANCH   1  18
HETATM   18  C4  UNL     1      25.784   7.506  49.834  1.00  0.00     0.308 C 
BRANCH  18  19
HETATM   19  N2  UNL     1      27.171   7.267  49.645  1.00  0.00     0.089 N 
HETATM   20  H9  UNL     1      27.374   6.254  49.742  1.00  0.00     0.316 HD
BRANCH  19  21
HETATM   21  C3  UNL     1      27.672   7.742  48.401  1.00  0.00     0.304 C 
BRANCH  21  22
HETATM   22  C2  UNL     1      28.718   6.732  47.870  1.00  0.00     0.241 C 
HETATM   23  C1  UNL     1      30.092   7.317  48.024  1.00  0.00     0.044 C 
BRANCH  22  24
HETATM   24  N1  UNL     1      28.625   5.592  48.796  1.00  0.00     0.084 N 
HETATM   25  H5  UNL     1      27.678   5.697  49.253  1.00  0.00     0.313 HD
HETATM   26  H6  UNL     1      29.324   5.730  49.562  1.00  0.00     0.313 HD
ENDBRANCH  22  24
ENDBRANCH  21  22
ENDBRANCH  19  21
ENDBRANCH  18  19
ENDBRANCH   1  18
TORSDOF 6
ENDMDL
