MODEL 1
REMARK VINA RESULT:      -6.7      0.000      0.000
REMARK  4 active torsions:
REMARK  status: ('A' for Active; 'I' for Inactive)
REMARK    1  A    between atoms: C2_2  and  C3_3 
REMARK    2  A    between atoms: C5_6  and  N2_7 
REMARK    3  A    between atoms: C8_10  and  O1_11 
REMARK    4  A    between atoms: C10_13  and  O2_14 
ROOT
HETATM    1  N2  UNL     1      24.379   2.911  52.769  1.00  0.00    -0.235 NA
HETATM    2  C6  UNL     1      23.285   2.223  52.735  1.00  0.00     0.043 A 
HETATM    3  C7  UNL     1      23.183   0.793  53.009  1.00  0.00     0.067 A 
HETATM    4  C8  UNL     1      22.003   0.182  52.945  1.00  0.00     0.103 A 
HETATM    5  C10 UNL     1      20.801   0.956  52.597  1.00  0.00     0.098 A 
HETATM    6  C12 UNL     1      20.858   2.242  52.346  1.00  0.00     0.019 A 
HETATM    7  C13 UNL     1      22.099   3.060  52.378  1.00  0.00     0.089 A 
ENDROOT
BRANCH   1   8
HETATM    8  C5  UNL     1      25.654   2.316  53.091  1.00  0.00     0.137 C 
HETATM    9  N1  UNL     1      25.856   1.820  54.433  1.00  0.00    -0.374 N 
HETATM   10  C4  UNL     1      26.611   0.598  54.636  1.00  0.00     0.126 C 
HETATM   11  H7  UNL     1      25.445   2.362  55.235  1.00  0.00     0.161 HD
HETATM   12  C3  UNL     1      27.834   0.542  53.789  1.00  0.00     0.013 C 
HETATM   13  C15 UNL     1      27.943   1.556  52.711  1.00  0.00     0.057 C 
HETATM   14  C14 UNL     1      26.697   2.174  52.258  1.00  0.00     0.035 C 
HETATM   15 BR1  UNL     1      26.436   2.830  50.481  1.00  0.00    -0.052 Br
BRANCH  12  16
HETATM   16  C2  UNL     1      28.040  -0.853  53.250  1.00  0.00    -0.004 C 
HETATM   17  C1  UNL     1      27.016  -1.512  52.717  1.00  0.00     0.006 C 
ENDBRANCH  12  16
ENDBRANCH   1   8
BRANCH   4  18
HETATM   18  O1  UNL     1      21.970  -1.179  53.215  1.00  0.00    -0.353 OA
HETATM   19  C9  UNL     1      21.842  -1.707  54.521  1.00  0.00     0.210 C 
ENDBRANCH   4  18
BRANCH   5  20
HETATM   20  O2  UNL     1      19.634   0.202  52.565  1.00  0.00    -0.353 OA
HETATM   21  C11 UNL     1      18.840   0.351  51.383  1.00  0.00     0.210 C 
ENDBRANCH   5  20
TORSDOF 4
ENDMDL
MODEL 2
REMARK VINA RESULT:      -6.6      2.429      5.913
REMARK  4 active torsions:
REMARK  status: ('A' for Active; 'I' for Inactive)
REMARK    1  A    between atoms: C2_2  and  C3_3 
REMARK    2  A    between atoms: C5_6  and  N2_7 
REMARK    3  A    between atoms: C8_10  and  O1_11 
REMARK    4  A    between atoms: C10_13  and  O2_14 
ROOT
HETATM    1  N2  UNL     1      24.680   2.033  51.383  1.00  0.00    -0.235 NA
HETATM    2  C6  UNL     1      25.512   1.405  52.147  1.00  0.00     0.043 A 
HETATM    3  C7  UNL     1      25.141   0.541  53.263  1.00  0.00     0.067 A 
HETATM    4  C8  UNL     1      26.082  -0.059  53.988  1.00  0.00     0.103 A 
HETATM    5  C10 UNL     1      27.500   0.153  53.657  1.00  0.00     0.098 A 
HETATM    6  C12 UNL     1      27.868   0.922  52.660  1.00  0.00     0.019 A 
HETATM    7  C13 UNL     1      26.936   1.656  51.764  1.00  0.00     0.089 A 
ENDROOT
BRANCH   1   8
HETATM    8  C5  UNL     1      23.251   1.943  51.561  1.00  0.00     0.137 C 
HETATM    9  N1  UNL     1      22.568   0.789  51.023  1.00  0.00    -0.374 N 
HETATM   10  C4  UNL     1      21.471   0.199  51.766  1.00  0.00     0.126 C 
HETATM   11  H7  UNL     1      22.889   0.401  50.099  1.00  0.00     0.161 HD
HETATM   12  C3  UNL     1      20.552   1.226  52.329  1.00  0.00     0.013 C 
HETATM   13  C15 UNL     1      21.026   2.632  52.294  1.00  0.00     0.057 C 
HETATM   14  C14 UNL     1      22.470   2.839  52.185  1.00  0.00     0.035 C 
HETATM   15 BR1  UNL     1      23.369   4.368  52.899  1.00  0.00    -0.052 Br
BRANCH  12  16
HETATM   16  C2  UNL     1      20.107   0.833  53.717  1.00  0.00    -0.004 C 
HETATM   17  C1  UNL     1      20.943   0.178  54.516  1.00  0.00     0.006 C 
ENDBRANCH  12  16
ENDBRANCH   1   8
BRANCH   4  18
HETATM   18  O1  UNL     1      25.666  -0.867  55.037  1.00  0.00    -0.353 OA
HETATM   19  C9  UNL     1      24.308  -1.177  55.285  1.00  0.00     0.210 C 
ENDBRANCH   4  18
BRANCH   5  20
HETATM   20  O2  UNL     1      28.380  -0.529  54.488  1.00  0.00    -0.353 OA
HETATM   21  C11 UNL     1      29.632  -0.888  53.892  1.00  0.00     0.210 C 
ENDBRANCH   5  20
TORSDOF 4
ENDMDL
MODEL 3
REMARK VINA RESULT:      -6.4      3.213      5.692
REMARK  4 active torsions:
REMARK  status: ('A' for Active; 'I' for Inactive)
REMARK    1  A    between atoms: C2_2  and  C3_3 
REMARK    2  A    between atoms: C5_6  and  N2_7 
REMARK    3  A    between atoms: C8_10  and  O1_11 
REMARK    4  A    between atoms: C10_13  and  O2_14 
ROOT
HETATM    1  N2  UNL     1      22.627   2.313  51.546  1.00  0.00    -0.235 NA
HETATM    2  C6  UNL     1      23.563   1.555  52.017  1.00  0.00     0.043 A 
HETATM    3  C7  UNL     1      24.994   1.799  51.874  1.00  0.00     0.067 A 
HETATM    4  C8  UNL     1      25.874   0.951  52.400  1.00  0.00     0.103 A 
HETATM    5  C10 UNL     1      25.395  -0.236  53.126  1.00  0.00     0.098 A 
HETATM    6  C12 UNL     1      24.116  -0.484  53.274  1.00  0.00     0.019 A 
HETATM    7  C13 UNL     1      23.018   0.368  52.745  1.00  0.00     0.089 A 
ENDROOT
BRANCH   1   8
HETATM    8  C5  UNL     1      22.912   3.518  50.805  1.00  0.00     0.137 C 
HETATM    9  N1  UNL     1      23.294   4.700  51.545  1.00  0.00    -0.374 N 
HETATM   10  C4  UNL     1      24.309   5.583  51.005  1.00  0.00     0.126 C 
HETATM   11  H7  UNL     1      22.821   4.889  52.466  1.00  0.00     0.161 HD
HETATM   12  C3  UNL     1      24.131   5.824  49.546  1.00  0.00     0.013 C 
HETATM   13  C15 UNL     1      23.165   4.947  48.841  1.00  0.00     0.057 C 
HETATM   14  C14 UNL     1      22.856   3.663  49.472  1.00  0.00     0.035 C 
HETATM   15 BR1  UNL     1      22.352   2.103  48.488  1.00  0.00    -0.052 Br
BRANCH  12  16
HETATM   16  C2  UNL     1      25.468   5.840  48.846  1.00  0.00    -0.004 C 
HETATM   17  C1  UNL     1      26.387   4.932  49.159  1.00  0.00     0.006 C 
ENDBRANCH  12  16
ENDBRANCH   1   8
BRANCH   4  18
HETATM   18  O1  UNL     1      27.222   1.237  52.230  1.00  0.00    -0.353 OA
HETATM   19  C9  UNL     1      27.944   2.101  53.086  1.00  0.00     0.210 C 
ENDBRANCH   4  18
BRANCH   5  20
HETATM   20  O2  UNL     1      26.412  -1.039  53.626  1.00  0.00    -0.353 OA
HETATM   21  C11 UNL     1      26.929  -2.014  52.713  1.00  0.00     0.210 C 
ENDBRANCH   5  20
TORSDOF 4
ENDMDL
MODEL 4
REMARK VINA RESULT:      -6.4      3.280      3.888
REMARK  4 active torsions:
REMARK  status: ('A' for Active; 'I' for Inactive)
REMARK    1  A    between atoms: C2_2  and  C3_3 
REMARK    2  A    between atoms: C5_6  and  N2_7 
REMARK    3  A    between atoms: C8_10  and  O1_11 
REMARK    4  A    between atoms: C10_13  and  O2_14 
ROOT
HETATM    1  N2  UNL     1      24.288   2.987  52.985  1.00  0.00    -0.235 NA
HETATM    2  C6  UNL     1      23.551   3.488  52.049  1.00  0.00     0.043 A 
HETATM    3  C7  UNL     1      23.673   3.181  50.628  1.00  0.00     0.067 A 
HETATM    4  C8  UNL     1      22.860   3.756  49.745  1.00  0.00     0.103 A 
HETATM    5  C10 UNL     1      21.837   4.706  50.211  1.00  0.00     0.098 A 
HETATM    6  C12 UNL     1      21.700   5.004  51.481  1.00  0.00     0.019 A 
HETATM    7  C13 UNL     1      22.531   4.444  52.580  1.00  0.00     0.089 A 
ENDROOT
BRANCH   1   8
HETATM    8  C5  UNL     1      25.342   2.040  52.712  1.00  0.00     0.137 C 
HETATM    9  N1  UNL     1      26.647   2.552  52.362  1.00  0.00    -0.374 N 
HETATM   10  C4  UNL     1      27.834   1.879  52.854  1.00  0.00     0.126 C 
HETATM   11  H7  UNL     1      26.703   3.410  51.755  1.00  0.00     0.161 HD
HETATM   12  C3  UNL     1      27.727   0.397  52.751  1.00  0.00     0.013 C 
HETATM   13  C15 UNL     1      26.384  -0.152  52.443  1.00  0.00     0.057 C 
HETATM   14  C14 UNL     1      25.236   0.702  52.747  1.00  0.00     0.035 C 
HETATM   15 BR1  UNL     1      23.511   0.018  53.209  1.00  0.00    -0.052 Br
BRANCH  12  16
HETATM   16  C2  UNL     1      28.322  -0.262  53.971  1.00  0.00    -0.004 C 
HETATM   17  C1  UNL     1      29.563  -0.736  53.926  1.00  0.00     0.006 C 
ENDBRANCH  12  16
ENDBRANCH   1   8
BRANCH   4  18
HETATM   18  O1  UNL     1      23.025   3.424  48.408  1.00  0.00    -0.353 OA
HETATM   19  C9  UNL     1      22.458   2.268  47.822  1.00  0.00     0.210 C 
ENDBRANCH   4  18
BRANCH   5  20
HETATM   20  O2  UNL     1      21.054   5.235  49.193  1.00  0.00    -0.353 OA
HETATM   21  C11 UNL     1      19.703   5.543  49.555  1.00  0.00     0.210 C 
ENDBRANCH   5  20
TORSDOF 4
ENDMDL
MODEL 5
REMARK VINA RESULT:      -6.3      2.347      5.909
REMARK  4 active torsions:
REMARK  status: ('A' for Active; 'I' for Inactive)
REMARK    1  A    between atoms: C2_2  and  C3_3 
REMARK    2  A    between atoms: C5_6  and  N2_7 
REMARK    3  A    between atoms: C8_10  and  O1_11 
REMARK    4  A    between atoms: C10_13  and  O2_14 
ROOT
HETATM    1  N2  UNL     1      24.418   2.451  50.848  1.00  0.00    -0.235 NA
HETATM    2  C6  UNL     1      25.063   1.737  51.712  1.00  0.00     0.043 A 
HETATM    3  C7  UNL     1      24.451   0.829  52.676  1.00  0.00     0.067 A 
HETATM    4  C8  UNL     1      25.211   0.140  53.524  1.00  0.00     0.103 A 
HETATM    5  C10 UNL     1      26.673   0.299  53.482  1.00  0.00     0.098 A 
HETATM    6  C12 UNL     1      27.256   1.105  52.628  1.00  0.00     0.019 A 
HETATM    7  C13 UNL     1      26.542   1.938  51.623  1.00  0.00     0.089 A 
ENDROOT
BRANCH   1   8
HETATM    8  C5  UNL     1      22.979   2.423  50.746  1.00  0.00     0.137 C 
HETATM    9  N1  UNL     1      22.374   1.403  49.920  1.00  0.00    -0.374 N 
HETATM   10  C4  UNL     1      21.137   0.780  50.350  1.00  0.00     0.126 C 
HETATM   11  H7  UNL     1      22.852   1.136  49.022  1.00  0.00     0.161 HD
HETATM   12  C3  UNL     1      20.162   1.768  50.888  1.00  0.00     0.013 C 
HETATM   13  C15 UNL     1      20.679   3.132  51.157  1.00  0.00     0.057 C 
HETATM   14  C14 UNL     1      22.124   3.265  51.347  1.00  0.00     0.035 C 
HETATM   15 BR1  UNL     1      22.920   4.616  52.440  1.00  0.00    -0.052 Br
BRANCH  12  16
HETATM   16  C2  UNL     1      19.449   1.206  52.093  1.00  0.00    -0.004 C 
HETATM   17  C1  UNL     1      19.865   0.064  52.632  1.00  0.00     0.006 C 
ENDBRANCH  12  16
ENDBRANCH   1   8
BRANCH   4  18
HETATM   18  O1  UNL     1      24.570  -0.707  54.418  1.00  0.00    -0.353 OA
HETATM   19  C9  UNL     1      23.169  -0.903  54.430  1.00  0.00     0.210 C 
ENDBRANCH   4  18
BRANCH   5  20
HETATM   20  O2  UNL     1      27.351  -0.475  54.416  1.00  0.00    -0.353 OA
HETATM   21  C11 UNL     1      28.694  -0.065  54.694  1.00  0.00     0.210 C 
ENDBRANCH   5  20
TORSDOF 4
ENDMDL
MODEL 6
REMARK VINA RESULT:      -6.2      3.989      6.069
REMARK  4 active torsions:
REMARK  status: ('A' for Active; 'I' for Inactive)
REMARK    1  A    between atoms: C2_2  and  C3_3 
REMARK    2  A    between atoms: C5_6  and  N2_7 
REMARK    3  A    between atoms: C8_10  and  O1_11 
REMARK    4  A    between atoms: C10_13  and  O2_14 
ROOT
HETATM    1  N2  UNL     1      24.425   3.007  50.826  1.00  0.00    -0.235 NA
HETATM    2  C6  UNL     1      24.826   2.228  51.777  1.00  0.00     0.043 A 
HETATM    3  C7  UNL     1      26.006   2.453  52.607  1.00  0.00     0.067 A 
HETATM    4  C8  UNL     1      26.329   1.584  53.561  1.00  0.00     0.103 A 
HETATM    5  C10 UNL     1      25.490   0.394  53.775  1.00  0.00     0.098 A 
HETATM    6  C12 UNL     1      24.424   0.162  53.048  1.00  0.00     0.019 A 
HETATM    7  C13 UNL     1      23.937   1.039  51.950  1.00  0.00     0.089 A 
ENDROOT
BRANCH   1   8
HETATM    8  C5  UNL     1      25.126   4.219  50.476  1.00  0.00     0.137 C 
HETATM    9  N1  UNL     1      26.459   4.103  49.931  1.00  0.00    -0.374 N 
HETATM   10  C4  UNL     1      26.878   5.002  48.873  1.00  0.00     0.126 C 
HETATM   11  H7  UNL     1      27.097   3.362  50.319  1.00  0.00     0.161 HD
HETATM   12  C3  UNL     1      26.457   6.408  49.125  1.00  0.00     0.013 C 
HETATM   13  C15 UNL     1      25.476   6.622  50.218  1.00  0.00     0.057 C 
HETATM   14  C14 UNL     1      24.660   5.471  50.607  1.00  0.00     0.035 C 
HETATM   15 BR1  UNL     1      22.896   5.630  51.327  1.00  0.00    -0.052 Br
BRANCH  12  16
HETATM   16  C2  UNL     1      25.998   7.060  47.844  1.00  0.00    -0.004 C 
HETATM   17  C1  UNL     1      26.410   8.288  47.544  1.00  0.00     0.006 C 
ENDBRANCH  12  16
ENDBRANCH   1   8
BRANCH   4  18
HETATM   18  O1  UNL     1      27.463   1.852  54.316  1.00  0.00    -0.353 OA
HETATM   19  C9  UNL     1      28.665   2.347  53.759  1.00  0.00     0.210 C 
ENDBRANCH   4  18
BRANCH   5  20
HETATM   20  O2  UNL     1      25.935  -0.432  54.799  1.00  0.00    -0.353 OA
HETATM   21  C11 UNL     1      24.908  -1.116  55.526  1.00  0.00     0.210 C 
ENDBRANCH   5  20
TORSDOF 4
ENDMDL
MODEL 7
REMARK VINA RESULT:      -6.1      4.901      7.101
REMARK  4 active torsions:
REMARK  status: ('A' for Active; 'I' for Inactive)
REMARK    1  A    between atoms: C2_2  and  C3_3 
REMARK    2  A    between atoms: C5_6  and  N2_7 
REMARK    3  A    between atoms: C8_10  and  O1_11 
REMARK    4  A    between atoms: C10_13  and  O2_14 
ROOT
HETATM    1  N2  UNL     1      25.843   3.055  50.050  1.00  0.00    -0.235 NA
HETATM    2  C6  UNL     1      26.084   4.294  49.768  1.00  0.00     0.043 A 
HETATM    3  C7  UNL     1      25.340   5.435  50.291  1.00  0.00     0.067 A 
HETATM    4  C8  UNL     1      25.672   6.672  49.934  1.00  0.00     0.103 A 
HETATM    5  C10 UNL     1      26.795   6.884  49.007  1.00  0.00     0.098 A 
HETATM    6  C12 UNL     1      27.485   5.881  48.518  1.00  0.00     0.019 A 
HETATM    7  C13 UNL     1      27.233   4.448  48.824  1.00  0.00     0.089 A 
ENDROOT
BRANCH   1   8
HETATM    8  C5  UNL     1      24.779   2.660  50.941  1.00  0.00     0.137 C 
HETATM    9  N1  UNL     1      23.419   2.743  50.459  1.00  0.00    -0.374 N 
HETATM   10  C4  UNL     1      22.465   1.717  50.834  1.00  0.00     0.126 C 
HETATM   11  H7  UNL     1      23.154   3.554  49.842  1.00  0.00     0.161 HD
HETATM   12  C3  UNL     1      22.567   1.348  52.273  1.00  0.00     0.013 C 
HETATM   13  C15 UNL     1      23.756   1.851  53.005  1.00  0.00     0.057 C 
HETATM   14  C14 UNL     1      24.922   2.216  52.200  1.00  0.00     0.035 C 
HETATM   15 BR1  UNL     1      26.719   2.103  52.842  1.00  0.00    -0.052 Br
BRANCH  12  16
HETATM   16  C2  UNL     1      22.405  -0.142  52.450  1.00  0.00    -0.004 C 
HETATM   17  C1  UNL     1      22.840  -0.725  53.562  1.00  0.00     0.006 C 
ENDBRANCH  12  16
ENDBRANCH   1   8
BRANCH   4  18
HETATM   18  O1  UNL     1      24.927   7.716  50.465  1.00  0.00    -0.353 OA
HETATM   19  C9  UNL     1      23.604   8.009  50.056  1.00  0.00     0.210 C 
ENDBRANCH   4  18
BRANCH   5  20
HETATM   20  O2  UNL     1      27.040   8.220  48.714  1.00  0.00    -0.353 OA
HETATM   21  C11 UNL     1      28.373   8.671  48.974  1.00  0.00     0.210 C 
ENDBRANCH   5  20
TORSDOF 4
ENDMDL
MODEL 8
REMARK VINA RESULT:      -6.0      4.016      6.694
REMARK  4 active torsions:
REMARK  status: ('A' for Active; 'I' for Inactive)
REMARK    1  A    between atoms: C2_2  and  C3_3 
REMARK    2  A    between atoms: C5_6  and  N2_7 
REMARK    3  A    between atoms: C8_10  and  O1_11 
REMARK    4  A    between atoms: C10_13  and  O2_14 
ROOT
HETATM    1  N2  UNL     1      22.694   4.120  52.338  1.00  0.00    -0.235 NA
HETATM    2  C6  UNL     1      23.634   3.254  52.138  1.00  0.00     0.043 A 
HETATM    3  C7  UNL     1      24.822   3.477  51.320  1.00  0.00     0.067 A 
HETATM    4  C8  UNL     1      25.730   2.515  51.180  1.00  0.00     0.103 A 
HETATM    5  C10 UNL     1      25.528   1.223  51.855  1.00  0.00     0.098 A 
HETATM    6  C12 UNL     1      24.472   0.989  52.597  1.00  0.00     0.019 A 
HETATM    7  C13 UNL     1      23.377   1.963  52.847  1.00  0.00     0.089 A 
ENDROOT
BRANCH   1   8
HETATM    8  C5  UNL     1      22.725   5.439  51.755  1.00  0.00     0.137 C 
HETATM    9  N1  UNL     1      23.819   6.316  52.106  1.00  0.00    -0.374 N 
HETATM   10  C4  UNL     1      24.390   7.185  51.095  1.00  0.00     0.126 C 
HETATM   11  H7  UNL     1      24.177   6.299  53.095  1.00  0.00     0.161 HD
HETATM   12  C3  UNL     1      23.347   7.839  50.256  1.00  0.00     0.013 C 
HETATM   13  C15 UNL     1      21.966   7.312  50.384  1.00  0.00     0.057 C 
HETATM   14  C14 UNL     1      21.823   5.952  50.903  1.00  0.00     0.035 C 
HETATM   15 BR1  UNL     1      20.373   4.796  50.435  1.00  0.00    -0.052 Br
BRANCH  12  16
HETATM   16  C2  UNL     1      23.783   7.886  48.812  1.00  0.00    -0.004 C 
HETATM   17  C1  UNL     1      24.292   6.799  48.241  1.00  0.00     0.006 C 
ENDBRANCH  12  16
ENDBRANCH   1   8
BRANCH   4  18
HETATM   18  O1  UNL     1      26.837   2.787  50.389  1.00  0.00    -0.353 OA
HETATM   19  C9  UNL     1      26.879   3.848  49.454  1.00  0.00     0.210 C 
ENDBRANCH   4  18
BRANCH   5  20
HETATM   20  O2  UNL     1      26.546   0.304  51.629  1.00  0.00    -0.353 OA
HETATM   21  C11 UNL     1      27.331  -0.036  52.777  1.00  0.00     0.210 C 
ENDBRANCH   5  20
TORSDOF 4
ENDMDL
MODEL 9
REMARK VINA RESULT:      -5.7      3.640      6.397
REMARK  4 active torsions:
REMARK  status: ('A' for Active; 'I' for Inactive)
REMARK    1  A    between atoms: C2_2  and  C3_3 
REMARK    2  A    between atoms: C5_6  and  N2_7 
REMARK    3  A    between atoms: C8_10  and  O1_11 
REMARK    4  A    between atoms: C10_13  and  O2_14 
ROOT
HETATM    1  N2  UNL     1      25.372   4.346  50.397  1.00  0.00    -0.235 NA
HETATM    2  C6  UNL     1      25.346   3.234  51.057  1.00  0.00     0.043 A 
HETATM    3  C7  UNL     1      24.270   2.809  51.946  1.00  0.00     0.067 A 
HETATM    4  C8  UNL     1      24.346   1.640  52.578  1.00  0.00     0.103 A 
HETATM    5  C10 UNL     1      25.522   0.779  52.376  1.00  0.00     0.098 A 
HETATM    6  C12 UNL     1      26.506   1.131  51.583  1.00  0.00     0.019 A 
HETATM    7  C13 UNL     1      26.563   2.401  50.812  1.00  0.00     0.089 A 
ENDROOT
BRANCH   1   8
HETATM    8  C5  UNL     1      24.304   5.313  50.475  1.00  0.00     0.137 C 
HETATM    9  N1  UNL     1      24.431   6.395  51.424  1.00  0.00    -0.374 N 
HETATM   10  C4  UNL     1      23.961   7.719  51.064  1.00  0.00     0.126 C 
HETATM   11  H7  UNL     1      24.867   6.193  52.361  1.00  0.00     0.161 HD
HETATM   12  C3  UNL     1      22.642   7.683  50.374  1.00  0.00     0.013 C 
HETATM   13  C15 UNL     1      22.164   6.352  49.925  1.00  0.00     0.057 C 
HETATM   14  C14 UNL     1      23.177   5.312  49.745  1.00  0.00     0.035 C 
HETATM   15 BR1  UNL     1      23.004   3.882  48.487  1.00  0.00    -0.052 Br
BRANCH  12  16
HETATM   16  C2  UNL     1      22.608   8.686  49.246  1.00  0.00    -0.004 C 
HETATM   17  C1  UNL     1      23.708   8.919  48.538  1.00  0.00     0.006 C 
ENDBRANCH  12  16
ENDBRANCH   1   8
BRANCH   4  18
HETATM   18  O1  UNL     1      23.291   1.292  53.411  1.00  0.00    -0.353 OA
HETATM   19  C9  UNL     1      22.053   0.806  52.931  1.00  0.00     0.210 C 
ENDBRANCH   4  18
BRANCH   5  20
HETATM   20  O2  UNL     1      25.479  -0.411  53.091  1.00  0.00    -0.353 OA
HETATM   21  C11 UNL     1      26.535  -1.335  52.808  1.00  0.00     0.210 C 
ENDBRANCH   5  20
TORSDOF 4
ENDMDL
