MODEL 1
REMARK VINA RESULT:      -8.6      0.000      0.000
REMARK  7 active torsions:
REMARK  status: ('A' for Active; 'I' for Inactive)
REMARK    1  A    between atoms: C4_5  and  N1_6 
REMARK    2  A    between atoms: N1_6  and  C5_7 
REMARK    3  A    between atoms: C5_7  and  C6_8 
REMARK    4  A    between atoms: C9_13  and  C10_14 
REMARK    5  A    between atoms: C10_14  and  O1_15 
REMARK    6  A    between atoms: O1_15  and  C11_16 
REMARK    7  A    between atoms: C11_16  and  C12_17 
ROOT
HETATM    1  C6  UNL     1      22.648   3.717  49.880  1.00  0.00     0.082 A 
HETATM    2  N2  UNL     1      22.360   4.248  48.714  1.00  0.00    -0.242 NA
HETATM    3  C7  UNL     1      22.000   3.229  47.804  1.00  0.00     0.234 A 
HETATM    4  N3  UNL     1      22.039   2.055  48.319  1.00  0.00    -0.240 NA
HETATM    5  C8  UNL     1      22.448   2.256  49.663  1.00  0.00     0.087 A 
HETATM    6  C9  UNL     1      22.656   1.431  50.627  1.00  0.00     0.073 C 
ENDROOT
BRANCH   1   7
HETATM    7  C5  UNL     1      23.068   4.555  51.050  1.00  0.00     0.181 C 
BRANCH   7   8
HETATM    8  N1  UNL     1      24.498   4.383  51.215  1.00  0.00    -0.384 N 
HETATM    9  H3  UNL     1      24.871   3.874  52.066  1.00  0.00     0.160 HD
BRANCH   8  10
HETATM   10  C4  UNL     1      25.456   4.857  50.296  1.00  0.00     0.030 A 
HETATM   11  C3  UNL     1      26.429   4.057  49.742  1.00  0.00     0.032 A 
HETATM   12  C2  UNL     1      27.393   4.514  48.833  1.00  0.00     0.046 A 
HETATM   13  C1  UNL     1      27.377   5.843  48.463  1.00  0.00     0.138 A 
HETATM   14  F1  UNL     1      28.303   6.301  47.591  1.00  0.00    -0.204 F 
HETATM   15  C22 UNL     1      26.399   6.653  49.016  1.00  0.00     0.074 A 
HETATM   16  C21 UNL     1      25.474   6.180  49.899  1.00  0.00     0.056 A 
HETATM   17 CL1  UNL     1      26.370   8.347  48.554  1.00  0.00    -0.081 Cl
ENDBRANCH   8  10
ENDBRANCH   7   8
ENDBRANCH   1   7
BRANCH   6  18
HETATM   18  C10 UNL     1      23.028   1.141  51.976  1.00  0.00     0.102 C 
HETATM   19  C17 UNL     1      22.220   0.618  52.853  1.00  0.00     0.103 C 
HETATM   20  C18 UNL     1      20.833   0.297  52.455  1.00  0.00     0.235 C 
HETATM   21  O4  UNL     1      22.358   0.268  54.157  1.00  0.00    -0.348 OA
HETATM   22  O3  UNL     1      20.057  -0.246  53.470  1.00  0.00    -0.383 OA
HETATM   23  C19 UNL     1      20.650  -1.353  54.061  1.00  0.00     0.194 C 
HETATM   24  C20 UNL     1      21.933  -0.937  54.720  1.00  0.00     0.201 C 
BRANCH  18  25
HETATM   25  O1  UNL     1      24.321   1.403  52.478  1.00  0.00    -0.348 OA
BRANCH  25  26
HETATM   26  C11 UNL     1      25.505   1.065  51.834  1.00  0.00     0.180 C 
BRANCH  26  27
HETATM   27  C12 UNL     1      26.423   0.150  52.641  1.00  0.00     0.014 C 
HETATM   28  C13 UNL     1      27.622   1.042  52.993  1.00  0.00     0.033 C 
HETATM   29  C14 UNL     1      28.624   0.300  53.812  1.00  0.00     0.168 C 
HETATM   30  O2  UNL     1      28.033  -0.347  54.872  1.00  0.00    -0.391 OA
HETATM   31  C15 UNL     1      26.741   0.089  55.099  1.00  0.00     0.168 C 
HETATM   32  C16 UNL     1      25.787  -0.202  53.967  1.00  0.00     0.033 C 
ENDBRANCH  26  27
ENDBRANCH  25  26
ENDBRANCH  18  25
ENDBRANCH   6  18
TORSDOF 7
ENDMDL
MODEL 2
REMARK VINA RESULT:      -8.3      3.644      6.283
REMARK  7 active torsions:
REMARK  status: ('A' for Active; 'I' for Inactive)
REMARK    1  A    between atoms: C4_5  and  N1_6 
REMARK    2  A    between atoms: N1_6  and  C5_7 
REMARK    3  A    between atoms: C5_7  and  C6_8 
REMARK    4  A    between atoms: C9_13  and  C10_14 
REMARK    5  A    between atoms: C10_14  and  O1_15 
REMARK    6  A    between atoms: O1_15  and  C11_16 
REMARK    7  A    between atoms: C11_16  and  C12_17 
ROOT
HETATM    1  C6  UNL     1      26.721   4.361  49.311  1.00  0.00     0.082 A 
HETATM    2  N2  UNL     1      27.900   4.646  48.808  1.00  0.00    -0.242 NA
HETATM    3  C7  UNL     1      27.908   5.981  48.344  1.00  0.00     0.234 A 
HETATM    4  N3  UNL     1      26.790   6.583  48.520  1.00  0.00    -0.240 NA
HETATM    5  C8  UNL     1      25.947   5.623  49.140  1.00  0.00     0.087 A 
HETATM    6  C9  UNL     1      24.725   5.683  49.533  1.00  0.00     0.073 C 
ENDROOT
BRANCH   1   7
HETATM    7  C5  UNL     1      26.410   3.010  49.883  1.00  0.00     0.181 C 
BRANCH   7   8
HETATM    8  N1  UNL     1      26.535   3.111  51.323  1.00  0.00    -0.384 N 
HETATM    9  H3  UNL     1      26.159   3.965  51.825  1.00  0.00     0.160 HD
BRANCH   8  10
HETATM   10  C4  UNL     1      27.138   2.125  52.130  1.00  0.00     0.030 A 
HETATM   11  C3  UNL     1      28.104   2.404  53.069  1.00  0.00     0.032 A 
HETATM   12  C2  UNL     1      28.717   1.434  53.873  1.00  0.00     0.046 A 
HETATM   13  C1  UNL     1      28.338   0.116  53.726  1.00  0.00     0.138 A 
HETATM   14  F1  UNL     1      28.924  -0.833  54.491  1.00  0.00    -0.204 F 
HETATM   15  C22 UNL     1      27.364  -0.172  52.785  1.00  0.00     0.074 A 
HETATM   16  C21 UNL     1      26.785   0.793  52.016  1.00  0.00     0.056 A 
HETATM   17 CL1  UNL     1      26.874  -1.847  52.588  1.00  0.00    -0.081 Cl
ENDBRANCH   8  10
ENDBRANCH   7   8
ENDBRANCH   1   7
BRANCH   6  18
HETATM   18  C10 UNL     1      23.564   5.097  50.125  1.00  0.00     0.102 C 
HETATM   19  C17 UNL     1      22.431   5.721  50.268  1.00  0.00     0.103 C 
HETATM   20  C18 UNL     1      22.313   7.118  49.799  1.00  0.00     0.235 C 
HETATM   21  O4  UNL     1      21.230   5.366  50.790  1.00  0.00    -0.348 OA
HETATM   22  O3  UNL     1      21.065   7.690  50.011  1.00  0.00    -0.383 OA
HETATM   23  C19 UNL     1      20.032   6.925  49.488  1.00  0.00     0.194 C 
HETATM   24  C20 UNL     1      19.988   5.601  50.194  1.00  0.00     0.201 C 
BRANCH  18  25
HETATM   25  O1  UNL     1      23.550   3.772  50.613  1.00  0.00    -0.348 OA
BRANCH  25  26
HETATM   26  C11 UNL     1      22.886   2.711  50.009  1.00  0.00     0.180 C 
BRANCH  26  27
HETATM   27  C12 UNL     1      22.922   1.409  50.806  1.00  0.00     0.014 C 
HETATM   28  C13 UNL     1      23.161   1.865  52.253  1.00  0.00     0.033 C 
HETATM   29  C14 UNL     1      23.204   0.701  53.184  1.00  0.00     0.168 C 
HETATM   30  O2  UNL     1      22.133  -0.140  52.996  1.00  0.00    -0.391 OA
HETATM   31  C15 UNL     1      21.139   0.441  52.230  1.00  0.00     0.168 C 
HETATM   32  C16 UNL     1      21.558   0.756  50.816  1.00  0.00     0.033 C 
ENDBRANCH  26  27
ENDBRANCH  25  26
ENDBRANCH  18  25
ENDBRANCH   6  18
TORSDOF 7
ENDMDL
MODEL 3
REMARK VINA RESULT:      -8.2      3.545      5.625
REMARK  7 active torsions:
REMARK  status: ('A' for Active; 'I' for Inactive)
REMARK    1  A    between atoms: C4_5  and  N1_6 
REMARK    2  A    between atoms: N1_6  and  C5_7 
REMARK    3  A    between atoms: C5_7  and  C6_8 
REMARK    4  A    between atoms: C9_13  and  C10_14 
REMARK    5  A    between atoms: C10_14  and  O1_15 
REMARK    6  A    between atoms: O1_15  and  C11_16 
REMARK    7  A    between atoms: C11_16  and  C12_17 
ROOT
HETATM    1  C6  UNL     1      25.156   3.557  50.756  1.00  0.00     0.082 A 
HETATM    2  N2  UNL     1      26.224   4.066  50.185  1.00  0.00    -0.242 NA
HETATM    3  C7  UNL     1      25.836   4.914  49.124  1.00  0.00     0.234 A 
HETATM    4  N3  UNL     1      24.564   4.984  48.972  1.00  0.00    -0.240 NA
HETATM    5  C8  UNL     1      24.026   4.141  49.979  1.00  0.00     0.087 A 
HETATM    6  C9  UNL     1      22.815   3.835  50.284  1.00  0.00     0.073 C 
ENDROOT
BRANCH   1   7
HETATM    7  C5  UNL     1      25.253   2.614  51.918  1.00  0.00     0.181 C 
BRANCH   7   8
HETATM    8  N1  UNL     1      26.614   2.678  52.413  1.00  0.00    -0.384 N 
HETATM    9  H3  UNL     1      27.089   3.618  52.526  1.00  0.00     0.160 HD
BRANCH   8  10
HETATM   10  C4  UNL     1      27.374   1.545  52.768  1.00  0.00     0.030 A 
HETATM   11  C3  UNL     1      28.596   1.622  53.396  1.00  0.00     0.032 A 
HETATM   12  C2  UNL     1      29.367   0.506  53.748  1.00  0.00     0.046 A 
HETATM   13  C1  UNL     1      28.883  -0.752  53.455  1.00  0.00     0.138 A 
HETATM   14  F1  UNL     1      29.616  -1.839  53.784  1.00  0.00    -0.204 F 
HETATM   15  C22 UNL     1      27.653  -0.838  52.825  1.00  0.00     0.074 A 
HETATM   16  C21 UNL     1      26.925   0.267  52.493  1.00  0.00     0.056 A 
HETATM   17 CL1  UNL     1      27.027  -2.434  52.444  1.00  0.00    -0.081 Cl
ENDBRANCH   8  10
ENDBRANCH   7   8
ENDBRANCH   1   7
BRANCH   6  18
HETATM   18  C10 UNL     1      21.856   3.137  51.081  1.00  0.00     0.102 C 
HETATM   19  C17 UNL     1      20.603   3.479  51.171  1.00  0.00     0.103 C 
HETATM   20  C18 UNL     1      20.120   4.654  50.416  1.00  0.00     0.235 C 
HETATM   21  O4  UNL     1      19.545   2.972  51.852  1.00  0.00    -0.348 OA
HETATM   22  O3  UNL     1      18.772   4.934  50.594  1.00  0.00    -0.383 OA
HETATM   23  C19 UNL     1      17.960   3.838  50.337  1.00  0.00     0.194 C 
HETATM   24  C20 UNL     1      18.273   2.747  51.319  1.00  0.00     0.201 C 
BRANCH  18  25
HETATM   25  O1  UNL     1      22.194   2.002  51.849  1.00  0.00    -0.348 OA
BRANCH  25  26
HETATM   26  C11 UNL     1      22.124   0.689  51.398  1.00  0.00     0.180 C 
BRANCH  26  27
HETATM   27  C12 UNL     1      21.930  -0.348  52.501  1.00  0.00     0.014 C 
HETATM   28  C13 UNL     1      23.116  -0.109  53.449  1.00  0.00     0.033 C 
HETATM   29  C14 UNL     1      23.070  -1.040  54.614  1.00  0.00     0.168 C 
HETATM   30  O2  UNL     1      21.829  -1.051  55.206  1.00  0.00    -0.391 OA
HETATM   31  C15 UNL     1      21.039   0.004  54.788  1.00  0.00     0.168 C 
HETATM   32  C16 UNL     1      20.699  -0.028  53.318  1.00  0.00     0.033 C 
ENDBRANCH  26  27
ENDBRANCH  25  26
ENDBRANCH  18  25
ENDBRANCH   6  18
TORSDOF 7
ENDMDL
MODEL 4
REMARK VINA RESULT:      -8.0      3.810      6.732
REMARK  7 active torsions:
REMARK  status: ('A' for Active; 'I' for Inactive)
REMARK    1  A    between atoms: C4_5  and  N1_6 
REMARK    2  A    between atoms: N1_6  and  C5_7 
REMARK    3  A    between atoms: C5_7  and  C6_8 
REMARK    4  A    between atoms: C9_13  and  C10_14 
REMARK    5  A    between atoms: C10_14  and  O1_15 
REMARK    6  A    between atoms: O1_15  and  C11_16 
REMARK    7  A    between atoms: C11_16  and  C12_17 
ROOT
HETATM    1  C6  UNL     1      22.140   4.030  49.949  1.00  0.00     0.082 A 
HETATM    2  N2  UNL     1      20.929   4.400  50.300  1.00  0.00    -0.242 NA
HETATM    3  C7  UNL     1      21.008   5.495  51.190  1.00  0.00     0.234 A 
HETATM    4  N3  UNL     1      22.212   5.859  51.438  1.00  0.00    -0.240 NA
HETATM    5  C8  UNL     1      23.027   4.975  50.684  1.00  0.00     0.087 A 
HETATM    6  C9  UNL     1      24.304   4.880  50.562  1.00  0.00     0.073 C 
ENDROOT
BRANCH   1   7
HETATM    7  C5  UNL     1      22.375   2.887  49.008  1.00  0.00     0.181 C 
BRANCH   7   8
HETATM    8  N1  UNL     1      22.836   1.763  49.799  1.00  0.00    -0.384 N 
HETATM    9  H3  UNL     1      23.767   1.309  49.575  1.00  0.00     0.160 HD
BRANCH   8  10
HETATM   10  C4  UNL     1      22.116   1.216  50.880  1.00  0.00     0.030 A 
HETATM   11  C3  UNL     1      22.641   1.079  52.145  1.00  0.00     0.032 A 
HETATM   12  C2  UNL     1      21.940   0.531  53.228  1.00  0.00     0.046 A 
HETATM   13  C1  UNL     1      20.645   0.100  53.028  1.00  0.00     0.138 A 
HETATM   14  F1  UNL     1      19.957  -0.436  54.061  1.00  0.00    -0.204 F 
HETATM   15  C22 UNL     1      20.109   0.237  51.758  1.00  0.00     0.074 A 
HETATM   16  C21 UNL     1      20.816   0.774  50.723  1.00  0.00     0.056 A 
HETATM   17 CL1  UNL     1      18.462  -0.310  51.492  1.00  0.00    -0.081 Cl
ENDBRANCH   8  10
ENDBRANCH   7   8
ENDBRANCH   1   7
BRANCH   6  18
HETATM   18  C10 UNL     1      25.473   4.262  50.021  1.00  0.00     0.102 C 
HETATM   19  C17 UNL     1      26.291   4.856  49.200  1.00  0.00     0.103 C 
HETATM   20  C18 UNL     1      26.015   6.249  48.788  1.00  0.00     0.235 C 
HETATM   21  O4  UNL     1      27.432   4.468  48.578  1.00  0.00    -0.348 OA
HETATM   22  O3  UNL     1      26.944   6.779  47.904  1.00  0.00    -0.383 OA
HETATM   23  C19 UNL     1      28.247   6.671  48.369  1.00  0.00     0.194 C 
HETATM   24  C20 UNL     1      28.608   5.219  48.503  1.00  0.00     0.201 C 
BRANCH  18  25
HETATM   25  O1  UNL     1      25.843   2.937  50.335  1.00  0.00    -0.348 OA
BRANCH  25  26
HETATM   26  C11 UNL     1      26.659   2.573  51.400  1.00  0.00     0.180 C 
BRANCH  26  27
HETATM   27  C12 UNL     1      26.058   1.514  52.321  1.00  0.00     0.014 C 
HETATM   28  C13 UNL     1      26.806   0.226  51.947  1.00  0.00     0.033 C 
HETATM   29  C14 UNL     1      26.349  -0.924  52.780  1.00  0.00     0.168 C 
HETATM   30  O2  UNL     1      26.340  -0.609  54.118  1.00  0.00    -0.391 OA
HETATM   31  C15 UNL     1      27.035   0.555  54.388  1.00  0.00     0.168 C 
HETATM   32  C16 UNL     1      26.435   1.788  53.760  1.00  0.00     0.033 C 
ENDBRANCH  26  27
ENDBRANCH  25  26
ENDBRANCH  18  25
ENDBRANCH   6  18
TORSDOF 7
ENDMDL
MODEL 5
REMARK VINA RESULT:      -7.8      2.026      4.884
REMARK  7 active torsions:
REMARK  status: ('A' for Active; 'I' for Inactive)
REMARK    1  A    between atoms: C4_5  and  N1_6 
REMARK    2  A    between atoms: N1_6  and  C5_7 
REMARK    3  A    between atoms: C5_7  and  C6_8 
REMARK    4  A    between atoms: C9_13  and  C10_14 
REMARK    5  A    between atoms: C10_14  and  O1_15 
REMARK    6  A    between atoms: O1_15  and  C11_16 
REMARK    7  A    between atoms: C11_16  and  C12_17 
ROOT
HETATM    1  C6  UNL     1      26.830   2.250  52.037  1.00  0.00     0.082 A 
HETATM    2  N2  UNL     1      28.079   2.483  52.372  1.00  0.00    -0.242 NA
HETATM    3  C7  UNL     1      28.268   2.177  53.739  1.00  0.00     0.234 A 
HETATM    4  N3  UNL     1      27.202   1.754  54.315  1.00  0.00    -0.240 NA
HETATM    5  C8  UNL     1      26.208   1.763  53.301  1.00  0.00     0.087 A 
HETATM    6  C9  UNL     1      24.962   1.445  53.319  1.00  0.00     0.073 C 
ENDROOT
BRANCH   1   7
HETATM    7  C5  UNL     1      26.329   2.484  50.643  1.00  0.00     0.181 C 
BRANCH   7   8
HETATM    8  N1  UNL     1      25.757   3.815  50.607  1.00  0.00    -0.384 N 
HETATM    9  H3  UNL     1      24.907   4.038  51.199  1.00  0.00     0.160 HD
BRANCH   8  10
HETATM   10  C4  UNL     1      26.267   4.867  49.819  1.00  0.00     0.030 A 
HETATM   11  C3  UNL     1      27.337   4.721  48.967  1.00  0.00     0.032 A 
HETATM   12  C2  UNL     1      27.859   5.759  48.183  1.00  0.00     0.046 A 
HETATM   13  C1  UNL     1      27.275   7.006  48.260  1.00  0.00     0.138 A 
HETATM   14  F1  UNL     1      27.770   8.019  47.513  1.00  0.00    -0.204 F 
HETATM   15  C22 UNL     1      26.195   7.159  49.114  1.00  0.00     0.074 A 
HETATM   16  C21 UNL     1      25.709   6.131  49.865  1.00  0.00     0.056 A 
HETATM   17 CL1  UNL     1      25.443   8.742  49.221  1.00  0.00    -0.081 Cl
ENDBRANCH   8  10
ENDBRANCH   7   8
ENDBRANCH   1   7
BRANCH   6  18
HETATM   18  C10 UNL     1      23.693   1.293  52.681  1.00  0.00     0.102 C 
HETATM   19  C17 UNL     1      22.857   0.333  52.951  1.00  0.00     0.103 C 
HETATM   20  C18 UNL     1      23.219  -0.672  53.973  1.00  0.00     0.235 C 
HETATM   21  O4  UNL     1      21.629   0.005  52.477  1.00  0.00    -0.348 OA
HETATM   22  O3  UNL     1      22.260  -1.655  54.174  1.00  0.00    -0.383 OA
HETATM   23  C19 UNL     1      21.004  -1.130  54.447  1.00  0.00     0.194 C 
HETATM   24  C20 UNL     1      20.526  -0.344  53.261  1.00  0.00     0.201 C 
BRANCH  18  25
HETATM   25  O1  UNL     1      23.235   2.186  51.688  1.00  0.00    -0.348 OA
BRANCH  25  26
HETATM   26  C11 UNL     1      22.877   1.819  50.396  1.00  0.00     0.180 C 
BRANCH  26  27
HETATM   27  C12 UNL     1      22.062   2.870  49.645  1.00  0.00     0.014 C 
HETATM   28  C13 UNL     1      22.218   4.140  50.496  1.00  0.00     0.033 C 
HETATM   29  C14 UNL     1      21.489   5.289  49.887  1.00  0.00     0.168 C 
HETATM   30  O2  UNL     1      21.787   5.428  48.552  1.00  0.00    -0.391 OA
HETATM   31  C15 UNL     1      22.895   4.689  48.181  1.00  0.00     0.168 C 
HETATM   32  C16 UNL     1      22.712   3.198  48.321  1.00  0.00     0.033 C 
ENDBRANCH  26  27
ENDBRANCH  25  26
ENDBRANCH  18  25
ENDBRANCH   6  18
TORSDOF 7
ENDMDL
MODEL 6
REMARK VINA RESULT:      -7.8      2.241      4.761
REMARK  7 active torsions:
REMARK  status: ('A' for Active; 'I' for Inactive)
REMARK    1  A    between atoms: C4_5  and  N1_6 
REMARK    2  A    between atoms: N1_6  and  C5_7 
REMARK    3  A    between atoms: C5_7  and  C6_8 
REMARK    4  A    between atoms: C9_13  and  C10_14 
REMARK    5  A    between atoms: C10_14  and  O1_15 
REMARK    6  A    between atoms: O1_15  and  C11_16 
REMARK    7  A    between atoms: C11_16  and  C12_17 
ROOT
HETATM    1  C6  UNL     1      26.619   2.351  51.793  1.00  0.00     0.082 A 
HETATM    2  N2  UNL     1      27.824   2.365  52.317  1.00  0.00    -0.242 NA
HETATM    3  C7  UNL     1      27.732   2.232  53.721  1.00  0.00     0.234 A 
HETATM    4  N3  UNL     1      26.524   2.132  54.141  1.00  0.00    -0.240 NA
HETATM    5  C8  UNL     1      25.721   2.198  52.972  1.00  0.00     0.087 A 
HETATM    6  C9  UNL     1      24.447   2.153  52.805  1.00  0.00     0.073 C 
ENDROOT
BRANCH   1   7
HETATM    7  C5  UNL     1      26.398   2.475  50.315  1.00  0.00     0.181 C 
BRANCH   7   8
HETATM    8  N1  UNL     1      25.787   3.767  50.076  1.00  0.00    -0.384 N 
HETATM    9  H3  UNL     1      24.823   3.973  50.464  1.00  0.00     0.160 HD
BRANCH   8  10
HETATM   10  C4  UNL     1      26.403   4.803  49.345  1.00  0.00     0.030 A 
HETATM   11  C3  UNL     1      27.691   4.727  48.867  1.00  0.00     0.032 A 
HETATM   12  C2  UNL     1      28.320   5.750  48.145  1.00  0.00     0.046 A 
HETATM   13  C1  UNL     1      27.617   6.910  47.891  1.00  0.00     0.138 A 
HETATM   14  F1  UNL     1      28.211   7.909  47.200  1.00  0.00    -0.204 F 
HETATM   15  C22 UNL     1      26.319   6.993  48.368  1.00  0.00     0.074 A 
HETATM   16  C21 UNL     1      25.734   5.980  49.068  1.00  0.00     0.056 A 
HETATM   17 CL1  UNL     1      25.414   8.464  48.052  1.00  0.00    -0.081 Cl
ENDBRANCH   8  10
ENDBRANCH   7   8
ENDBRANCH   1   7
BRANCH   6  18
HETATM   18  C10 UNL     1      23.286   2.177  51.971  1.00  0.00     0.102 C 
HETATM   19  C17 UNL     1      22.598   3.253  51.720  1.00  0.00     0.103 C 
HETATM   20  C18 UNL     1      23.021   4.536  52.320  1.00  0.00     0.235 C 
HETATM   21  O4  UNL     1      21.490   3.499  50.976  1.00  0.00    -0.348 OA
HETATM   22  O3  UNL     1      22.210   5.615  51.994  1.00  0.00    -0.383 OA
HETATM   23  C19 UNL     1      22.043   5.764  50.624  1.00  0.00     0.194 C 
HETATM   24  C20 UNL     1      21.339   4.557  50.076  1.00  0.00     0.201 C 
BRANCH  18  25
HETATM   25  O1  UNL     1      22.782   1.018  51.343  1.00  0.00    -0.348 OA
BRANCH  25  26
HETATM   26  C11 UNL     1      21.439   0.663  51.293  1.00  0.00     0.180 C 
BRANCH  26  27
HETATM   27  C12 UNL     1      20.986  -0.253  52.428  1.00  0.00     0.014 C 
HETATM   28  C13 UNL     1      22.283  -0.926  52.902  1.00  0.00     0.033 C 
HETATM   29  C14 UNL     1      22.022  -1.855  54.040  1.00  0.00     0.168 C 
HETATM   30  O2  UNL     1      21.269  -1.255  55.022  1.00  0.00    -0.391 OA
HETATM   31  C15 UNL     1      21.205   0.117  54.869  1.00  0.00     0.168 C 
HETATM   32  C16 UNL     1      20.507   0.562  53.607  1.00  0.00     0.033 C 
ENDBRANCH  26  27
ENDBRANCH  25  26
ENDBRANCH  18  25
ENDBRANCH   6  18
TORSDOF 7
ENDMDL
MODEL 7
REMARK VINA RESULT:      -7.6      2.140      5.118
REMARK  7 active torsions:
REMARK  status: ('A' for Active; 'I' for Inactive)
REMARK    1  A    between atoms: C4_5  and  N1_6 
REMARK    2  A    between atoms: N1_6  and  C5_7 
REMARK    3  A    between atoms: C5_7  and  C6_8 
REMARK    4  A    between atoms: C9_13  and  C10_14 
REMARK    5  A    between atoms: C10_14  and  O1_15 
REMARK    6  A    between atoms: O1_15  and  C11_16 
REMARK    7  A    between atoms: C11_16  and  C12_17 
ROOT
HETATM    1  C6  UNL     1      25.308   4.528  50.364  1.00  0.00     0.082 A 
HETATM    2  N2  UNL     1      25.665   5.523  49.585  1.00  0.00    -0.242 NA
HETATM    3  C7  UNL     1      26.843   5.178  48.883  1.00  0.00     0.234 A 
HETATM    4  N3  UNL     1      27.273   4.003  49.166  1.00  0.00    -0.240 NA
HETATM    5  C8  UNL     1      26.352   3.493  50.118  1.00  0.00     0.087 A 
HETATM    6  C9  UNL     1      26.299   2.370  50.743  1.00  0.00     0.073 C 
ENDROOT
BRANCH   1   7
HETATM    7  C5  UNL     1      24.091   4.604  51.236  1.00  0.00     0.181 C 
BRANCH   7   8
HETATM    8  N1  UNL     1      23.117   3.673  50.700  1.00  0.00    -0.384 N 
HETATM    9  H3  UNL     1      22.633   2.988  51.347  1.00  0.00     0.160 HD
BRANCH   8  10
HETATM   10  C4  UNL     1      22.755   3.613  49.339  1.00  0.00     0.030 A 
HETATM   11  C3  UNL     1      22.777   2.451  48.603  1.00  0.00     0.032 A 
HETATM   12  C2  UNL     1      22.427   2.376  47.248  1.00  0.00     0.046 A 
HETATM   13  C1  UNL     1      22.035   3.529  46.601  1.00  0.00     0.138 A 
HETATM   14  F1  UNL     1      21.699   3.475  45.292  1.00  0.00    -0.204 F 
HETATM   15  C22 UNL     1      22.008   4.703  47.336  1.00  0.00     0.074 A 
HETATM   16  C21 UNL     1      22.355   4.745  48.654  1.00  0.00     0.056 A 
HETATM   17 CL1  UNL     1      21.513   6.178  46.523  1.00  0.00    -0.081 Cl
ENDBRANCH   8  10
ENDBRANCH   7   8
ENDBRANCH   1   7
BRANCH   6  18
HETATM   18  C10 UNL     1      25.685   1.475  51.672  1.00  0.00     0.102 C 
HETATM   19  C17 UNL     1      26.343   0.796  52.567  1.00  0.00     0.103 C 
HETATM   20  C18 UNL     1      27.812   0.942  52.645  1.00  0.00     0.235 C 
HETATM   21  O4  UNL     1      25.972  -0.088  53.526  1.00  0.00    -0.348 OA
HETATM   22  O3  UNL     1      28.413   0.165  53.627  1.00  0.00    -0.383 OA
HETATM   23  C19 UNL     1      27.849   0.358  54.880  1.00  0.00     0.194 C 
HETATM   24  C20 UNL     1      26.413  -0.077  54.852  1.00  0.00     0.201 C 
BRANCH  18  25
HETATM   25  O1  UNL     1      24.292   1.250  51.697  1.00  0.00    -0.348 OA
BRANCH  25  26
HETATM   26  C11 UNL     1      23.528   1.126  52.852  1.00  0.00     0.180 C 
BRANCH  26  27
HETATM   27  C12 UNL     1      22.537  -0.035  52.831  1.00  0.00     0.014 C 
HETATM   28  C13 UNL     1      22.471  -0.495  54.295  1.00  0.00     0.033 C 
HETATM   29  C14 UNL     1      21.517  -1.630  54.460  1.00  0.00     0.168 C 
HETATM   30  O2  UNL     1      20.306  -1.365  53.866  1.00  0.00    -0.391 OA
HETATM   31  C15 UNL     1      20.162  -0.029  53.542  1.00  0.00     0.168 C 
HETATM   32  C16 UNL     1      21.146   0.461  52.508  1.00  0.00     0.033 C 
ENDBRANCH  26  27
ENDBRANCH  25  26
ENDBRANCH  18  25
ENDBRANCH   6  18
TORSDOF 7
ENDMDL
MODEL 8
REMARK VINA RESULT:      -7.6      3.903      6.667
REMARK  7 active torsions:
REMARK  status: ('A' for Active; 'I' for Inactive)
REMARK    1  A    between atoms: C4_5  and  N1_6 
REMARK    2  A    between atoms: N1_6  and  C5_7 
REMARK    3  A    between atoms: C5_7  and  C6_8 
REMARK    4  A    between atoms: C9_13  and  C10_14 
REMARK    5  A    between atoms: C10_14  and  O1_15 
REMARK    6  A    between atoms: O1_15  and  C11_16 
REMARK    7  A    between atoms: C11_16  and  C12_17 
ROOT
HETATM    1  C6  UNL     1      21.939   2.791  49.911  1.00  0.00     0.082 A 
HETATM    2  N2  UNL     1      20.966   2.066  49.407  1.00  0.00    -0.242 NA
HETATM    3  C7  UNL     1      21.312   1.651  48.102  1.00  0.00     0.234 A 
HETATM    4  N3  UNL     1      22.464   2.069  47.726  1.00  0.00    -0.240 NA
HETATM    5  C8  UNL     1      22.959   2.820  48.825  1.00  0.00     0.087 A 
HETATM    6  C9  UNL     1      24.058   3.465  48.996  1.00  0.00     0.073 C 
ENDROOT
BRANCH   1   7
HETATM    7  C5  UNL     1      21.858   3.375  51.290  1.00  0.00     0.181 C 
BRANCH   7   8
HETATM    8  N1  UNL     1      22.681   2.554  52.156  1.00  0.00    -0.384 N 
HETATM    9  H3  UNL     1      23.697   2.810  52.313  1.00  0.00     0.160 HD
BRANCH   8  10
HETATM   10  C4  UNL     1      22.213   1.406  52.827  1.00  0.00     0.030 A 
HETATM   11  C3  UNL     1      20.907   0.977  52.767  1.00  0.00     0.032 A 
HETATM   12  C2  UNL     1      20.425  -0.157  53.433  1.00  0.00     0.046 A 
HETATM   13  C1  UNL     1      21.301  -0.899  54.198  1.00  0.00     0.138 A 
HETATM   14  F1  UNL     1      20.850  -1.994  54.851  1.00  0.00    -0.204 F 
HETATM   15  C22 UNL     1      22.618  -0.475  54.261  1.00  0.00     0.074 A 
HETATM   16  C21 UNL     1      23.058   0.635  53.602  1.00  0.00     0.056 A 
HETATM   17 CL1  UNL     1      23.743  -1.409  55.233  1.00  0.00    -0.081 Cl
ENDBRANCH   8  10
ENDBRANCH   7   8
ENDBRANCH   1   7
BRANCH   6  18
HETATM   18  C10 UNL     1      24.931   4.276  49.785  1.00  0.00     0.102 C 
HETATM   19  C17 UNL     1      25.216   5.515  49.506  1.00  0.00     0.103 C 
HETATM   20  C18 UNL     1      24.616   6.141  48.308  1.00  0.00     0.235 C 
HETATM   21  O4  UNL     1      26.000   6.449  50.101  1.00  0.00    -0.348 OA
HETATM   22  O3  UNL     1      24.997   7.460  48.101  1.00  0.00    -0.383 OA
HETATM   23  C19 UNL     1      24.780   8.261  49.214  1.00  0.00     0.194 C 
HETATM   24  C20 UNL     1      25.633   7.774  50.349  1.00  0.00     0.201 C 
BRANCH  18  25
HETATM   25  O1  UNL     1      25.565   3.794  50.950  1.00  0.00    -0.348 OA
BRANCH  25  26
HETATM   26  C11 UNL     1      26.457   2.728  50.984  1.00  0.00     0.180 C 
BRANCH  26  27
HETATM   27  C12 UNL     1      26.482   1.969  52.308  1.00  0.00     0.014 C 
HETATM   28  C13 UNL     1      26.525   0.492  51.889  1.00  0.00     0.033 C 
HETATM   29  C14 UNL     1      26.574  -0.405  53.081  1.00  0.00     0.168 C 
HETATM   30  O2  UNL     1      27.544  -0.011  53.972  1.00  0.00    -0.391 OA
HETATM   31  C15 UNL     1      28.424   0.901  53.420  1.00  0.00     0.168 C 
HETATM   32  C16 UNL     1      27.785   2.213  53.035  1.00  0.00     0.033 C 
ENDBRANCH  26  27
ENDBRANCH  25  26
ENDBRANCH  18  25
ENDBRANCH   6  18
TORSDOF 7
ENDMDL
MODEL 9
REMARK VINA RESULT:      -7.6      3.806      6.663
REMARK  7 active torsions:
REMARK  status: ('A' for Active; 'I' for Inactive)
REMARK    1  A    between atoms: C4_5  and  N1_6 
REMARK    2  A    between atoms: N1_6  and  C5_7 
REMARK    3  A    between atoms: C5_7  and  C6_8 
REMARK    4  A    between atoms: C9_13  and  C10_14 
REMARK    5  A    between atoms: C10_14  and  O1_15 
REMARK    6  A    between atoms: O1_15  and  C11_16 
REMARK    7  A    between atoms: C11_16  and  C12_17 
ROOT
HETATM    1  C6  UNL     1      23.325   3.391  51.241  1.00  0.00     0.082 A 
HETATM    2  N2  UNL     1      22.655   4.516  51.142  1.00  0.00    -0.242 NA
HETATM    3  C7  UNL     1      22.956   5.346  52.246  1.00  0.00     0.234 A 
HETATM    4  N3  UNL     1      23.792   4.817  53.063  1.00  0.00    -0.240 NA
HETATM    5  C8  UNL     1      24.096   3.547  52.507  1.00  0.00     0.087 A 
HETATM    6  C9  UNL     1      24.867   2.599  52.908  1.00  0.00     0.073 C 
ENDROOT
BRANCH   1   7
HETATM    7  C5  UNL     1      23.207   2.307  50.211  1.00  0.00     0.181 C 
BRANCH   7   8
HETATM    8  N1  UNL     1      21.937   2.488  49.537  1.00  0.00    -0.384 N 
HETATM    9  H3  UNL     1      21.910   2.938  48.578  1.00  0.00     0.160 HD
BRANCH   8  10
HETATM   10  C4  UNL     1      20.697   2.093  50.081  1.00  0.00     0.030 A 
HETATM   11  C3  UNL     1      20.312   0.778  50.205  1.00  0.00     0.032 A 
HETATM   12  C2  UNL     1      19.081   0.371  50.737  1.00  0.00     0.046 A 
HETATM   13  C1  UNL     1      18.193   1.335  51.164  1.00  0.00     0.138 A 
HETATM   14  F1  UNL     1      16.998   0.959  51.675  1.00  0.00    -0.204 F 
HETATM   15  C22 UNL     1      18.574   2.661  51.044  1.00  0.00     0.074 A 
HETATM   16  C21 UNL     1      19.779   3.028  50.522  1.00  0.00     0.056 A 
HETATM   17 CL1  UNL     1      17.451   3.898  51.583  1.00  0.00    -0.081 Cl
ENDBRANCH   8  10
ENDBRANCH   7   8
ENDBRANCH   1   7
BRANCH   6  18
HETATM   18  C10 UNL     1      25.449   1.303  52.757  1.00  0.00     0.102 C 
HETATM   19  C17 UNL     1      26.729   1.073  52.816  1.00  0.00     0.103 C 
HETATM   20  C18 UNL     1      27.654   2.202  53.051  1.00  0.00     0.235 C 
HETATM   21  O4  UNL     1      27.481  -0.050  52.703  1.00  0.00    -0.348 OA
HETATM   22  O3  UNL     1      28.996   1.845  53.084  1.00  0.00    -0.383 OA
HETATM   23  C19 UNL     1      29.254   0.824  53.987  1.00  0.00     0.194 C 
HETATM   24  C20 UNL     1      28.524  -0.415  53.559  1.00  0.00     0.201 C 
BRANCH  18  25
HETATM   25  O1  UNL     1      24.672   0.147  52.528  1.00  0.00    -0.348 OA
BRANCH  25  26
HETATM   26  C11 UNL     1      23.909  -0.501  53.492  1.00  0.00     0.180 C 
BRANCH  26  27
HETATM   27  C12 UNL     1      22.421  -0.592  53.161  1.00  0.00     0.014 C 
HETATM   28  C13 UNL     1      21.855  -1.522  54.245  1.00  0.00     0.033 C 
HETATM   29  C14 UNL     1      20.384  -1.707  54.081  1.00  0.00     0.168 C 
HETATM   30  O2  UNL     1      19.735  -0.504  53.931  1.00  0.00    -0.391 OA
HETATM   31  C15 UNL     1      20.535   0.570  54.273  1.00  0.00     0.168 C 
HETATM   32  C16 UNL     1      21.744   0.740  53.388  1.00  0.00     0.033 C 
ENDBRANCH  26  27
ENDBRANCH  25  26
ENDBRANCH  18  25
ENDBRANCH   6  18
TORSDOF 7
ENDMDL
