MODEL 1
REMARK VINA RESULT:      -6.6      0.000      0.000
REMARK  8 active torsions:
REMARK  status: ('A' for Active; 'I' for Inactive)
REMARK    1  A    between atoms: N3_14  and  C11_15 
REMARK    2  A    between atoms: C11_15  and  C12_16 
REMARK    3  A    between atoms: C12_16  and  N4_17 
REMARK    4  A    between atoms: N4_17  and  C13_18 
REMARK    5  A    between atoms: C13_18  and  C14_19 
REMARK    6  A    between atoms: C14_19  and  O2_20 
REMARK    7  A    between atoms: O2_20  and  C15_21 
REMARK    8  A    between atoms: C15_21  and  C16_22 
ROOT
HETATM    1  C1  UNL     1      21.354   0.284  51.614  1.00  0.00     0.065 C 
HETATM    2  C2  UNL     1      22.063  -0.147  52.642  1.00  0.00     0.038 C 
HETATM    3  C3  UNL     1      23.448   0.356  52.634  1.00  0.00     0.055 C 
HETATM    4  C4  UNL     1      24.613   0.088  53.224  1.00  0.00     0.048 C 
HETATM    5  C5  UNL     1      25.097  -0.875  54.207  1.00  0.00     0.212 C 
HETATM    6  C6  UNL     1      24.071  -1.174  55.234  1.00  0.00     0.129 C 
HETATM    7  N1  UNL     1      22.828  -1.417  55.470  1.00  0.00    -0.255 NA
HETATM    8  C7  UNL     1      21.625  -1.531  54.682  1.00  0.00     0.232 C 
HETATM    9  N2  UNL     1      21.365  -0.993  53.538  1.00  0.00    -0.246 NA
HETATM   10  O1  UNL     1      26.279  -0.521  54.829  1.00  0.00    -0.369 OA
HETATM   11  C8  UNL     1      26.542   0.837  54.795  1.00  0.00     0.225 C 
HETATM   12  C9  UNL     1      26.665   1.279  53.359  1.00  0.00     0.026 C 
HETATM   13  C10 UNL     1      27.747   1.765  52.784  1.00  0.00     0.040 C 
HETATM   14  N3  UNL     1      25.439   1.109  52.599  1.00  0.00    -0.348 N 
ENDROOT
BRANCH  14  15
HETATM   15  C11 UNL     1      25.173   1.882  51.439  1.00  0.00     0.159 C 
BRANCH  15  16
HETATM   16  C12 UNL     1      24.835   3.314  51.589  1.00  0.00     0.289 C 
BRANCH  16  17
HETATM   17  N4  UNL     1      25.715   4.269  50.954  1.00  0.00     0.087 N 
HETATM   18  H15 UNL     1      25.197   5.140  50.669  1.00  0.00     0.316 HD
BRANCH  17  19
HETATM   19  C13 UNL     1      26.184   3.742  49.655  1.00  0.00     0.295 C 
BRANCH  19  20
HETATM   20  C14 UNL     1      26.877   4.857  48.938  1.00  0.00     0.197 C 
BRANCH  20  21
HETATM   21  O2  UNL     1      28.221   4.591  48.739  1.00  0.00    -0.389 OA
BRANCH  21  22
HETATM   22  C15 UNL     1      28.904   5.629  48.126  1.00  0.00     0.178 C 
BRANCH  22  23
HETATM   23  C16 UNL     1      28.071   6.893  48.004  1.00  0.00     0.111 C 
HETATM   24 BR1  UNL     1      29.166   8.363  47.370  1.00  0.00    -0.094 Br
ENDBRANCH  22  23
ENDBRANCH  21  22
ENDBRANCH  20  21
ENDBRANCH  19  20
ENDBRANCH  17  19
ENDBRANCH  16  17
ENDBRANCH  15  16
ENDBRANCH  14  15
TORSDOF 8
ENDMDL
MODEL 2
REMARK VINA RESULT:      -6.6      3.749      4.793
REMARK  8 active torsions:
REMARK  status: ('A' for Active; 'I' for Inactive)
REMARK    1  A    between atoms: N3_14  and  C11_15 
REMARK    2  A    between atoms: C11_15  and  C12_16 
REMARK    3  A    between atoms: C12_16  and  N4_17 
REMARK    4  A    between atoms: N4_17  and  C13_18 
REMARK    5  A    between atoms: C13_18  and  C14_19 
REMARK    6  A    between atoms: C14_19  and  O2_20 
REMARK    7  A    between atoms: O2_20  and  C15_21 
REMARK    8  A    between atoms: C15_21  and  C16_22 
ROOT
HETATM    1  C1  UNL     1      20.636   1.381  50.189  1.00  0.00     0.065 C 
HETATM    2  C2  UNL     1      20.393   0.583  51.214  1.00  0.00     0.038 C 
HETATM    3  C3  UNL     1      21.598   0.293  52.012  1.00  0.00     0.055 C 
HETATM    4  C4  UNL     1      21.997  -0.576  52.941  1.00  0.00     0.048 C 
HETATM    5  C5  UNL     1      21.405  -1.708  53.646  1.00  0.00     0.212 C 
HETATM    6  C6  UNL     1      19.966  -1.491  53.920  1.00  0.00     0.129 C 
HETATM    7  N1  UNL     1      18.838  -1.067  53.463  1.00  0.00    -0.255 NA
HETATM    8  C7  UNL     1      18.370  -0.492  52.225  1.00  0.00     0.232 C 
HETATM    9  N2  UNL     1      19.045   0.171  51.346  1.00  0.00    -0.246 NA
HETATM   10  O1  UNL     1      22.047  -2.057  54.819  1.00  0.00    -0.369 OA
HETATM   11  C8  UNL     1      22.799  -1.033  55.369  1.00  0.00     0.225 C 
HETATM   12  C9  UNL     1      23.877  -0.634  54.393  1.00  0.00     0.026 C 
HETATM   13  C10 UNL     1      25.177  -0.748  54.580  1.00  0.00     0.040 C 
HETATM   14  N3  UNL     1      23.355  -0.097  53.149  1.00  0.00    -0.348 N 
ENDROOT
BRANCH  14  15
HETATM   15  C11 UNL     1      24.128   0.770  52.334  1.00  0.00     0.159 C 
BRANCH  15  16
HETATM   16  C12 UNL     1      24.215   2.204  52.686  1.00  0.00     0.289 C 
BRANCH  16  17
HETATM   17  N4  UNL     1      25.447   2.888  52.367  1.00  0.00     0.087 N 
HETATM   18  H15 UNL     1      25.487   3.158  51.351  1.00  0.00     0.316 HD
BRANCH  17  19
HETATM   19  C13 UNL     1      26.591   1.957  52.489  1.00  0.00     0.295 C 
BRANCH  19  20
HETATM   20  C14 UNL     1      27.084   2.029  53.900  1.00  0.00     0.197 C 
BRANCH  20  21
HETATM   21  O2  UNL     1      28.322   2.645  53.986  1.00  0.00    -0.389 OA
BRANCH  21  22
HETATM   22  C15 UNL     1      29.337   1.789  54.381  1.00  0.00     0.178 C 
BRANCH  22  23
HETATM   23  C16 UNL     1      28.831   0.406  54.753  1.00  0.00     0.111 C 
HETATM   24 BR1  UNL     1      29.597  -0.931  53.574  1.00  0.00    -0.094 Br
ENDBRANCH  22  23
ENDBRANCH  21  22
ENDBRANCH  20  21
ENDBRANCH  19  20
ENDBRANCH  17  19
ENDBRANCH  16  17
ENDBRANCH  15  16
ENDBRANCH  14  15
TORSDOF 8
ENDMDL
MODEL 3
REMARK VINA RESULT:      -6.4      3.222      3.754
REMARK  8 active torsions:
REMARK  status: ('A' for Active; 'I' for Inactive)
REMARK    1  A    between atoms: N3_14  and  C11_15 
REMARK    2  A    between atoms: C11_15  and  C12_16 
REMARK    3  A    between atoms: C12_16  and  N4_17 
REMARK    4  A    between atoms: N4_17  and  C13_18 
REMARK    5  A    between atoms: C13_18  and  C14_19 
REMARK    6  A    between atoms: C14_19  and  O2_20 
REMARK    7  A    between atoms: O2_20  and  C15_21 
REMARK    8  A    between atoms: C15_21  and  C16_22 
ROOT
HETATM    1  C1  UNL     1      21.063   0.419  51.656  1.00  0.00     0.065 C 
HETATM    2  C2  UNL     1      21.802  -0.050  52.647  1.00  0.00     0.038 C 
HETATM    3  C3  UNL     1      23.194   0.429  52.599  1.00  0.00     0.055 C 
HETATM    4  C4  UNL     1      24.375   0.126  53.140  1.00  0.00     0.048 C 
HETATM    5  C5  UNL     1      24.877  -0.870  54.080  1.00  0.00     0.212 C 
HETATM    6  C6  UNL     1      23.884  -1.177  55.136  1.00  0.00     0.129 C 
HETATM    7  N1  UNL     1      22.647  -1.404  55.412  1.00  0.00    -0.255 NA
HETATM    8  C7  UNL     1      21.414  -1.478  54.667  1.00  0.00     0.232 C 
HETATM    9  N2  UNL     1      21.122  -0.907  53.547  1.00  0.00    -0.246 NA
HETATM   10  O1  UNL     1      26.087  -0.552  54.666  1.00  0.00    -0.369 OA
HETATM   11  C8  UNL     1      26.373   0.802  54.656  1.00  0.00     0.225 C 
HETATM   12  C9  UNL     1      26.452   1.278  53.227  1.00  0.00     0.026 C 
HETATM   13  C10 UNL     1      27.521   1.760  52.625  1.00  0.00     0.040 C 
HETATM   14  N3  UNL     1      25.196   1.148  52.509  1.00  0.00    -0.348 N 
ENDROOT
BRANCH  14  15
HETATM   15  C11 UNL     1      24.902   1.954  51.379  1.00  0.00     0.159 C 
BRANCH  15  16
HETATM   16  C12 UNL     1      24.717   3.410  51.561  1.00  0.00     0.289 C 
BRANCH  16  17
HETATM   17  N4  UNL     1      24.075   3.847  52.781  1.00  0.00     0.087 N 
HETATM   18  H15 UNL     1      23.523   3.069  53.226  1.00  0.00     0.316 HD
BRANCH  17  19
HETATM   19  C13 UNL     1      23.025   4.842  52.474  1.00  0.00     0.295 C 
BRANCH  19  20
HETATM   20  C14 UNL     1      21.760   4.095  52.196  1.00  0.00     0.197 C 
BRANCH  20  21
HETATM   21  O2  UNL     1      21.063   4.634  51.128  1.00  0.00    -0.389 OA
BRANCH  21  22
HETATM   22  C15 UNL     1      20.899   3.751  50.073  1.00  0.00     0.178 C 
BRANCH  22  23
HETATM   23  C16 UNL     1      21.941   3.934  48.984  1.00  0.00     0.111 C 
HETATM   24 BR1  UNL     1      22.344   2.232  48.144  1.00  0.00    -0.094 Br
ENDBRANCH  22  23
ENDBRANCH  21  22
ENDBRANCH  20  21
ENDBRANCH  19  20
ENDBRANCH  17  19
ENDBRANCH  16  17
ENDBRANCH  15  16
ENDBRANCH  14  15
TORSDOF 8
ENDMDL
MODEL 4
REMARK VINA RESULT:      -6.4      4.794      7.928
REMARK  8 active torsions:
REMARK  status: ('A' for Active; 'I' for Inactive)
REMARK    1  A    between atoms: N3_14  and  C11_15 
REMARK    2  A    between atoms: C11_15  and  C12_16 
REMARK    3  A    between atoms: C12_16  and  N4_17 
REMARK    4  A    between atoms: N4_17  and  C13_18 
REMARK    5  A    between atoms: C13_18  and  C14_19 
REMARK    6  A    between atoms: C14_19  and  O2_20 
REMARK    7  A    between atoms: O2_20  and  C15_21 
REMARK    8  A    between atoms: C15_21  and  C16_22 
ROOT
HETATM    1  C1  UNL     1      24.677  -1.020  54.988  1.00  0.00     0.065 C 
HETATM    2  C2  UNL     1      25.584  -0.264  54.395  1.00  0.00     0.038 C 
HETATM    3  C3  UNL     1      25.041   0.493  53.253  1.00  0.00     0.055 C 
HETATM    4  C4  UNL     1      25.493   1.173  52.199  1.00  0.00     0.048 C 
HETATM    5  C5  UNL     1      26.800   1.512  51.646  1.00  0.00     0.212 C 
HETATM    6  C6  UNL     1      27.801   1.751  52.712  1.00  0.00     0.129 C 
HETATM    7  N1  UNL     1      28.277   1.362  53.844  1.00  0.00    -0.255 NA
HETATM    8  C7  UNL     1      27.993   0.301  54.780  1.00  0.00     0.232 C 
HETATM    9  N2  UNL     1      26.880  -0.326  54.964  1.00  0.00    -0.246 NA
HETATM   10  O1  UNL     1      26.798   2.581  50.771  1.00  0.00    -0.369 OA
HETATM   11  C8  UNL     1      25.716   3.429  50.930  1.00  0.00     0.225 C 
HETATM   12  C9  UNL     1      24.445   2.660  50.670  1.00  0.00     0.026 C 
HETATM   13  C10 UNL     1      23.586   2.884  49.696  1.00  0.00     0.040 C 
HETATM   14  N3  UNL     1      24.224   1.581  51.615  1.00  0.00    -0.348 N 
ENDROOT
BRANCH  14  15
HETATM   15  C11 UNL     1      22.924   1.075  51.873  1.00  0.00     0.159 C 
BRANCH  15  16
HETATM   16  C12 UNL     1      21.918   1.960  52.501  1.00  0.00     0.289 C 
BRANCH  16  17
HETATM   17  N4  UNL     1      20.800   1.324  53.161  1.00  0.00     0.087 N 
HETATM   18  H15 UNL     1      21.054   1.009  54.133  1.00  0.00     0.316 HD
BRANCH  17  19
HETATM   19  C13 UNL     1      20.476   0.045  52.492  1.00  0.00     0.295 C 
BRANCH  19  20
HETATM   20  C14 UNL     1      19.315  -0.562  53.214  1.00  0.00     0.197 C 
BRANCH  20  21
HETATM   21  O2  UNL     1      18.200  -0.676  52.400  1.00  0.00    -0.389 OA
BRANCH  21  22
HETATM   22  C15 UNL     1      17.253  -1.565  52.884  1.00  0.00     0.178 C 
BRANCH  22  23
HETATM   23  C16 UNL     1      17.861  -2.679  53.717  1.00  0.00     0.111 C 
HETATM   24 BR1  UNL     1      16.797  -4.294  53.564  1.00  0.00    -0.094 Br
ENDBRANCH  22  23
ENDBRANCH  21  22
ENDBRANCH  20  21
ENDBRANCH  19  20
ENDBRANCH  17  19
ENDBRANCH  16  17
ENDBRANCH  15  16
ENDBRANCH  14  15
TORSDOF 8
ENDMDL
MODEL 5
REMARK VINA RESULT:      -6.3      3.064      3.653
REMARK  8 active torsions:
REMARK  status: ('A' for Active; 'I' for Inactive)
REMARK    1  A    between atoms: N3_14  and  C11_15 
REMARK    2  A    between atoms: C11_15  and  C12_16 
REMARK    3  A    between atoms: C12_16  and  N4_17 
REMARK    4  A    between atoms: N4_17  and  C13_18 
REMARK    5  A    between atoms: C13_18  and  C14_19 
REMARK    6  A    between atoms: C14_19  and  O2_20 
REMARK    7  A    between atoms: O2_20  and  C15_21 
REMARK    8  A    between atoms: C15_21  and  C16_22 
ROOT
HETATM    1  C1  UNL     1      21.525   0.406  51.585  1.00  0.00     0.065 C 
HETATM    2  C2  UNL     1      22.168  -0.064  52.639  1.00  0.00     0.038 C 
HETATM    3  C3  UNL     1      23.580   0.357  52.684  1.00  0.00     0.055 C 
HETATM    4  C4  UNL     1      24.703   0.022  53.318  1.00  0.00     0.048 C 
HETATM    5  C5  UNL     1      25.093  -0.966  54.318  1.00  0.00     0.212 C 
HETATM    6  C6  UNL     1      24.013  -1.203  55.304  1.00  0.00     0.129 C 
HETATM    7  N1  UNL     1      22.750  -1.372  55.494  1.00  0.00    -0.255 NA
HETATM    8  C7  UNL     1      21.573  -1.417  54.660  1.00  0.00     0.232 C 
HETATM    9  N2  UNL     1      21.389  -0.867  53.508  1.00  0.00    -0.246 NA
HETATM   10  O1  UNL     1      26.269  -0.681  54.985  1.00  0.00    -0.369 OA
HETATM   11  C8  UNL     1      26.612   0.660  54.961  1.00  0.00     0.225 C 
HETATM   12  C9  UNL     1      26.815   1.091  53.531  1.00  0.00     0.026 C 
HETATM   13  C10 UNL     1      27.946   1.512  52.998  1.00  0.00     0.040 C 
HETATM   14  N3  UNL     1      25.612   0.992  52.725  1.00  0.00    -0.348 N 
ENDROOT
BRANCH  14  15
HETATM   15  C11 UNL     1      25.435   1.777  51.556  1.00  0.00     0.159 C 
BRANCH  15  16
HETATM   16  C12 UNL     1      25.099   3.211  51.695  1.00  0.00     0.289 C 
BRANCH  16  17
HETATM   17  N4  UNL     1      25.768   4.134  50.807  1.00  0.00     0.087 N 
HETATM   18  H15 UNL     1      26.547   4.645  51.296  1.00  0.00     0.316 HD
BRANCH  17  19
HETATM   19  C13 UNL     1      24.853   5.236  50.437  1.00  0.00     0.295 C 
BRANCH  19  20
HETATM   20  C14 UNL     1      23.532   4.629  50.085  1.00  0.00     0.197 C 
BRANCH  20  21
HETATM   21  O2  UNL     1      22.493   5.536  50.216  1.00  0.00    -0.389 OA
BRANCH  21  22
HETATM   22  C15 UNL     1      21.930   5.550  51.482  1.00  0.00     0.178 C 
BRANCH  22  23
HETATM   23  C16 UNL     1      21.522   4.169  51.962  1.00  0.00     0.111 C 
HETATM   24 BR1  UNL     1      19.695   3.784  51.437  1.00  0.00    -0.094 Br
ENDBRANCH  22  23
ENDBRANCH  21  22
ENDBRANCH  20  21
ENDBRANCH  19  20
ENDBRANCH  17  19
ENDBRANCH  16  17
ENDBRANCH  15  16
ENDBRANCH  14  15
TORSDOF 8
ENDMDL
MODEL 6
REMARK VINA RESULT:      -6.2      3.621      5.675
REMARK  8 active torsions:
REMARK  status: ('A' for Active; 'I' for Inactive)
REMARK    1  A    between atoms: N3_14  and  C11_15 
REMARK    2  A    between atoms: C11_15  and  C12_16 
REMARK    3  A    between atoms: C12_16  and  N4_17 
REMARK    4  A    between atoms: N4_17  and  C13_18 
REMARK    5  A    between atoms: C13_18  and  C14_19 
REMARK    6  A    between atoms: C14_19  and  O2_20 
REMARK    7  A    between atoms: O2_20  and  C15_21 
REMARK    8  A    between atoms: C15_21  and  C16_22 
ROOT
HETATM    1  C1  UNL     1      23.460  -0.207  53.502  1.00  0.00     0.065 C 
HETATM    2  C2  UNL     1      22.360   0.384  53.069  1.00  0.00     0.038 C 
HETATM    3  C3  UNL     1      22.601   1.753  52.579  1.00  0.00     0.055 C 
HETATM    4  C4  UNL     1      21.898   2.844  52.277  1.00  0.00     0.048 C 
HETATM    5  C5  UNL     1      20.489   3.226  52.287  1.00  0.00     0.212 C 
HETATM    6  C6  UNL     1      19.612   2.092  51.913  1.00  0.00     0.129 C 
HETATM    7  N1  UNL     1      19.369   0.834  52.045  1.00  0.00    -0.255 NA
HETATM    8  C7  UNL     1      19.962  -0.268  52.765  1.00  0.00     0.232 C 
HETATM    9  N2  UNL     1      21.184  -0.401  53.156  1.00  0.00    -0.246 NA
HETATM   10  O1  UNL     1      20.182   4.321  51.504  1.00  0.00    -0.369 OA
HETATM   11  C8  UNL     1      21.104   4.566  50.501  1.00  0.00     0.225 C 
HETATM   12  C9  UNL     1      22.447   4.849  51.125  1.00  0.00     0.026 C 
HETATM   13  C10 UNL     1      23.115   5.984  51.053  1.00  0.00     0.040 C 
HETATM   14  N3  UNL     1      22.984   3.723  51.868  1.00  0.00    -0.348 N 
ENDROOT
BRANCH  14  15
HETATM   15  C11 UNL     1      24.376   3.582  52.098  1.00  0.00     0.159 C 
BRANCH  15  16
HETATM   16  C12 UNL     1      25.273   3.317  50.952  1.00  0.00     0.289 C 
BRANCH  16  17
HETATM   17  N4  UNL     1      26.665   3.066  51.247  1.00  0.00     0.087 N 
HETATM   18  H15 UNL     1      27.133   2.526  50.474  1.00  0.00     0.316 HD
BRANCH  17  19
HETATM   19  C13 UNL     1      26.782   2.138  52.393  1.00  0.00     0.295 C 
BRANCH  19  20
HETATM   20  C14 UNL     1      26.740   0.744  51.853  1.00  0.00     0.197 C 
BRANCH  20  21
HETATM   21  O2  UNL     1      27.157  -0.188  52.789  1.00  0.00    -0.389 OA
BRANCH  21  22
HETATM   22  C15 UNL     1      27.219   0.316  54.078  1.00  0.00     0.178 C 
BRANCH  22  23
HETATM   23  C16 UNL     1      28.567   0.083  54.738  1.00  0.00     0.111 C 
HETATM   24 BR1  UNL     1      29.708  -0.980  53.583  1.00  0.00    -0.094 Br
ENDBRANCH  22  23
ENDBRANCH  21  22
ENDBRANCH  20  21
ENDBRANCH  19  20
ENDBRANCH  17  19
ENDBRANCH  16  17
ENDBRANCH  15  16
ENDBRANCH  14  15
TORSDOF 8
ENDMDL
MODEL 7
REMARK VINA RESULT:      -6.2      2.041      2.589
REMARK  8 active torsions:
REMARK  status: ('A' for Active; 'I' for Inactive)
REMARK    1  A    between atoms: N3_14  and  C11_15 
REMARK    2  A    between atoms: C11_15  and  C12_16 
REMARK    3  A    between atoms: C12_16  and  N4_17 
REMARK    4  A    between atoms: N4_17  and  C13_18 
REMARK    5  A    between atoms: C13_18  and  C14_19 
REMARK    6  A    between atoms: C14_19  and  O2_20 
REMARK    7  A    between atoms: O2_20  and  C15_21 
REMARK    8  A    between atoms: C15_21  and  C16_22 
ROOT
HETATM    1  C1  UNL     1      21.613  -0.182  53.594  1.00  0.00     0.065 C 
HETATM    2  C2  UNL     1      22.911  -0.233  53.835  1.00  0.00     0.038 C 
HETATM    3  C3  UNL     1      23.700   0.583  52.896  1.00  0.00     0.055 C 
HETATM    4  C4  UNL     1      24.970   0.719  52.512  1.00  0.00     0.048 C 
HETATM    5  C5  UNL     1      26.245   0.097  52.854  1.00  0.00     0.212 C 
HETATM    6  C6  UNL     1      26.316  -0.253  54.291  1.00  0.00     0.129 C 
HETATM    7  N1  UNL     1      25.697  -0.746  55.308  1.00  0.00    -0.255 NA
HETATM    8  C7  UNL     1      24.385  -1.291  55.560  1.00  0.00     0.232 C 
HETATM    9  N2  UNL     1      23.285  -1.049  54.931  1.00  0.00    -0.246 NA
HETATM   10  O1  UNL     1      27.359   0.836  52.506  1.00  0.00    -0.369 OA
HETATM   11  C8  UNL     1      27.107   2.188  52.353  1.00  0.00     0.225 C 
HETATM   12  C9  UNL     1      26.103   2.380  51.245  1.00  0.00     0.026 C 
HETATM   13  C10 UNL     1      26.314   3.004  50.103  1.00  0.00     0.040 C 
HETATM   14  N3  UNL     1      24.811   1.781  51.531  1.00  0.00    -0.348 N 
ENDROOT
BRANCH  14  15
HETATM   15  C11 UNL     1      23.625   2.243  50.903  1.00  0.00     0.159 C 
BRANCH  15  16
HETATM   16  C12 UNL     1      23.035   3.528  51.336  1.00  0.00     0.289 C 
BRANCH  16  17
HETATM   17  N4  UNL     1      23.283   4.682  50.501  1.00  0.00     0.087 N 
HETATM   18  H15 UNL     1      24.009   4.478  49.767  1.00  0.00     0.316 HD
BRANCH  17  19
HETATM   19  C13 UNL     1      23.928   5.752  51.293  1.00  0.00     0.295 C 
BRANCH  19  20
HETATM   20  C14 UNL     1      24.895   6.458  50.396  1.00  0.00     0.197 C 
BRANCH  20  21
HETATM   21  O2  UNL     1      24.364   6.685  49.137  1.00  0.00    -0.389 OA
BRANCH  21  22
HETATM   22  C15 UNL     1      25.315   7.036  48.193  1.00  0.00     0.178 C 
BRANCH  22  23
HETATM   23  C16 UNL     1      26.656   7.391  48.810  1.00  0.00     0.111 C 
HETATM   24 BR1  UNL     1      27.992   6.069  48.326  1.00  0.00    -0.094 Br
ENDBRANCH  22  23
ENDBRANCH  21  22
ENDBRANCH  20  21
ENDBRANCH  19  20
ENDBRANCH  17  19
ENDBRANCH  16  17
ENDBRANCH  15  16
ENDBRANCH  14  15
TORSDOF 8
ENDMDL
MODEL 8
REMARK VINA RESULT:      -6.2      2.798      4.474
REMARK  8 active torsions:
REMARK  status: ('A' for Active; 'I' for Inactive)
REMARK    1  A    between atoms: N3_14  and  C11_15 
REMARK    2  A    between atoms: C11_15  and  C12_16 
REMARK    3  A    between atoms: C12_16  and  N4_17 
REMARK    4  A    between atoms: N4_17  and  C13_18 
REMARK    5  A    between atoms: C13_18  and  C14_19 
REMARK    6  A    between atoms: C14_19  and  O2_20 
REMARK    7  A    between atoms: O2_20  and  C15_21 
REMARK    8  A    between atoms: C15_21  and  C16_22 
ROOT
HETATM    1  C1  UNL     1      23.725  -0.781  54.488  1.00  0.00     0.065 C 
HETATM    2  C2  UNL     1      24.811  -0.168  54.052  1.00  0.00     0.038 C 
HETATM    3  C3  UNL     1      24.557   0.680  52.874  1.00  0.00     0.055 C 
HETATM    4  C4  UNL     1      25.251   1.296  51.918  1.00  0.00     0.048 C 
HETATM    5  C5  UNL     1      26.659   1.434  51.561  1.00  0.00     0.212 C 
HETATM    6  C6  UNL     1      27.524   1.499  52.762  1.00  0.00     0.129 C 
HETATM    7  N1  UNL     1      27.771   1.025  53.934  1.00  0.00    -0.255 NA
HETATM    8  C7  UNL     1      27.200   0.008  54.784  1.00  0.00     0.232 C 
HETATM    9  N2  UNL     1      25.989  -0.440  54.791  1.00  0.00    -0.246 NA
HETATM   10  O1  UNL     1      26.943   2.503  50.733  1.00  0.00    -0.369 OA
HETATM   11  C8  UNL     1      25.992   3.508  50.772  1.00  0.00     0.225 C 
HETATM   12  C9  UNL     1      24.668   2.950  50.314  1.00  0.00     0.026 C 
HETATM   13  C10 UNL     1      23.999   3.320  49.239  1.00  0.00     0.040 C 
HETATM   14  N3  UNL     1      24.154   1.905  51.181  1.00  0.00    -0.348 N 
ENDROOT
BRANCH  14  15
HETATM   15  C11 UNL     1      22.768   1.606  51.239  1.00  0.00     0.159 C 
BRANCH  15  16
HETATM   16  C12 UNL     1      21.900   2.386  52.148  1.00  0.00     0.289 C 
BRANCH  16  17
HETATM   17  N4  UNL     1      21.301   3.589  51.616  1.00  0.00     0.087 N 
HETATM   18  H15 UNL     1      21.403   3.641  50.570  1.00  0.00     0.316 HD
BRANCH  17  19
HETATM   19  C13 UNL     1      22.059   4.776  52.066  1.00  0.00     0.295 C 
BRANCH  19  20
HETATM   20  C14 UNL     1      21.694   5.914  51.166  1.00  0.00     0.197 C 
BRANCH  20  21
HETATM   21  O2  UNL     1      22.786   6.388  50.460  1.00  0.00    -0.389 OA
BRANCH  21  22
HETATM   22  C15 UNL     1      23.900   6.613  51.253  1.00  0.00     0.178 C 
BRANCH  22  23
HETATM   23  C16 UNL     1      25.130   6.996  50.448  1.00  0.00     0.111 C 
HETATM   24 BR1  UNL     1      24.722   6.994  48.551  1.00  0.00    -0.094 Br
ENDBRANCH  22  23
ENDBRANCH  21  22
ENDBRANCH  20  21
ENDBRANCH  19  20
ENDBRANCH  17  19
ENDBRANCH  16  17
ENDBRANCH  15  16
ENDBRANCH  14  15
TORSDOF 8
ENDMDL
MODEL 9
REMARK VINA RESULT:      -6.0      3.974      5.516
REMARK  8 active torsions:
REMARK  status: ('A' for Active; 'I' for Inactive)
REMARK    1  A    between atoms: N3_14  and  C11_15 
REMARK    2  A    between atoms: C11_15  and  C12_16 
REMARK    3  A    between atoms: C12_16  and  N4_17 
REMARK    4  A    between atoms: N4_17  and  C13_18 
REMARK    5  A    between atoms: C13_18  and  C14_19 
REMARK    6  A    between atoms: C14_19  and  O2_20 
REMARK    7  A    between atoms: O2_20  and  C15_21 
REMARK    8  A    between atoms: C15_21  and  C16_22 
ROOT
HETATM    1  C1  UNL     1      21.586   0.034  53.602  1.00  0.00     0.065 C 
HETATM    2  C2  UNL     1      22.885  -0.101  53.803  1.00  0.00     0.038 C 
HETATM    3  C3  UNL     1      23.695   0.705  52.873  1.00  0.00     0.055 C 
HETATM    4  C4  UNL     1      24.959   0.783  52.458  1.00  0.00     0.048 C 
HETATM    5  C5  UNL     1      26.205   0.077  52.741  1.00  0.00     0.212 C 
HETATM    6  C6  UNL     1      26.294  -0.331  54.162  1.00  0.00     0.129 C 
HETATM    7  N1  UNL     1      25.674  -0.826  55.178  1.00  0.00    -0.255 NA
HETATM    8  C7  UNL     1      24.340  -1.305  55.447  1.00  0.00     0.232 C 
HETATM    9  N2  UNL     1      23.239  -0.976  54.858  1.00  0.00    -0.246 NA
HETATM   10  O1  UNL     1      27.351   0.763  52.388  1.00  0.00    -0.369 OA
HETATM   11  C8  UNL     1      27.173   2.133  52.292  1.00  0.00     0.225 C 
HETATM   12  C9  UNL     1      26.153   2.423  51.220  1.00  0.00     0.026 C 
HETATM   13  C10 UNL     1      26.370   3.077  50.096  1.00  0.00     0.040 C 
HETATM   14  N3  UNL     1      24.836   1.888  51.521  1.00  0.00    -0.348 N 
ENDROOT
BRANCH  14  15
HETATM   15  C11 UNL     1      23.663   2.440  50.945  1.00  0.00     0.159 C 
BRANCH  15  16
HETATM   16  C12 UNL     1      23.259   3.815  51.310  1.00  0.00     0.289 C 
BRANCH  16  17
HETATM   17  N4  UNL     1      22.021   3.966  52.042  1.00  0.00     0.087 N 
HETATM   18  H15 UNL     1      21.480   3.063  52.076  1.00  0.00     0.316 HD
BRANCH  17  19
HETATM   19  C13 UNL     1      21.100   4.856  51.303  1.00  0.00     0.295 C 
BRANCH  19  20
HETATM   20  C14 UNL     1      19.801   4.131  51.143  1.00  0.00     0.197 C 
BRANCH  20  21
HETATM   21  O2  UNL     1      19.543   3.286  52.209  1.00  0.00    -0.389 OA
BRANCH  21  22
HETATM   22  C15 UNL     1      19.087   2.036  51.824  1.00  0.00     0.178 C 
BRANCH  22  23
HETATM   23  C16 UNL     1      19.080   1.849  50.318  1.00  0.00     0.111 C 
HETATM   24 BR1  UNL     1      17.275   1.519  49.688  1.00  0.00    -0.094 Br
ENDBRANCH  22  23
ENDBRANCH  21  22
ENDBRANCH  20  21
ENDBRANCH  19  20
ENDBRANCH  17  19
ENDBRANCH  16  17
ENDBRANCH  15  16
ENDBRANCH  14  15
TORSDOF 8
ENDMDL
