MODEL 1
REMARK VINA RESULT:      -7.1      0.000      0.000
REMARK  4 active torsions:
REMARK  status: ('A' for Active; 'I' for Inactive)
REMARK    1  A    between atoms: C2_2  and  C3_3 
REMARK    2  A    between atoms: C3_3  and  N1_4 
REMARK    3  A    between atoms: N1_4  and  C4_6 
REMARK    4  A    between atoms: C14_20  and  O2_21 
ROOT
HETATM    1  C4  UNL     1      24.305   2.917  52.216  1.00  0.00     0.171 C 
HETATM    2  C5  UNL     1      23.991   1.821  51.466  1.00  0.00     0.018 C 
HETATM    3  C6  UNL     1      24.227   0.777  52.459  1.00  0.00     0.049 C 
HETATM    4  C7  UNL     1      23.330  -0.050  52.971  1.00  0.00     0.075 C 
HETATM    5  C8  UNL     1      21.896  -0.058  52.612  1.00  0.00     0.336 C 
HETATM    6  N2  UNL     1      21.111   0.080  53.822  1.00  0.00     0.096 N 
HETATM    7  C9  UNL     1      19.681   0.161  53.527  1.00  0.00     0.275 C 
HETATM    8  C10 UNL     1      19.451   0.937  52.254  1.00  0.00     0.057 C 
HETATM    9  C11 UNL     1      19.943   2.352  52.352  1.00  0.00     0.179 C 
HETATM   10  O1  UNL     1      20.038   2.778  50.967  1.00  0.00    -0.332 OA
HETATM   11  C12 UNL     1      21.362   3.190  50.567  1.00  0.00     0.199 C 
HETATM   12  N3  UNL     1      21.454   4.260  51.328  1.00  0.00    -0.215 NA
HETATM   13  C13 UNL     1      22.635   4.792  52.007  1.00  0.00     0.238 C 
HETATM   14  N4  UNL     1      23.829   4.294  52.340  1.00  0.00    -0.221 NA
HETATM   15  C14 UNL     1      22.388   2.637  49.601  1.00  0.00     0.122 C 
HETATM   16  C16 UNL     1      23.537   2.030  50.050  1.00  0.00     0.056 C 
HETATM   17  C17 UNL     1      21.304  -1.160  54.550  1.00  0.00     0.299 C 
HETATM   18  C18 UNL     1      22.725  -1.424  54.922  1.00  0.00     0.205 C 
HETATM   19  O3  UNL     1      23.615  -1.017  53.910  1.00  0.00    -0.352 OA
ENDROOT
BRANCH   1  20
HETATM   20  N1  UNL     1      25.393   2.614  53.123  1.00  0.00    -0.165 N 
HETATM   21  F1  UNL     1      25.398   2.459  54.486  1.00  0.00    -0.092 F 
BRANCH  20  22
HETATM   22  C3  UNL     1      26.616   2.483  52.408  1.00  0.00     0.181 C 
BRANCH  22  23
HETATM   23  C2  UNL     1      27.798   2.244  52.963  1.00  0.00    -0.135 C 
HETATM   24  C1  UNL     1      28.873   2.390  53.725  1.00  0.00     0.098 C 
ENDBRANCH  22  23
ENDBRANCH  20  22
ENDBRANCH   1  20
BRANCH  15  25
HETATM   25  O2  UNL     1      22.454   2.593  48.225  1.00  0.00    -0.352 OA
HETATM   26  C15 UNL     1      21.265   2.909  47.484  1.00  0.00     0.210 C 
ENDBRANCH  15  25
TORSDOF 4
ENDMDL
MODEL 2
REMARK VINA RESULT:      -6.9      2.096      5.238
REMARK  4 active torsions:
REMARK  status: ('A' for Active; 'I' for Inactive)
REMARK    1  A    between atoms: C2_2  and  C3_3 
REMARK    2  A    between atoms: C3_3  and  N1_4 
REMARK    3  A    between atoms: N1_4  and  C4_6 
REMARK    4  A    between atoms: C14_20  and  O2_21 
ROOT
HETATM    1  C4  UNL     1      21.721   0.744  51.813  1.00  0.00     0.171 C 
HETATM    2  C5  UNL     1      22.054   1.927  52.405  1.00  0.00     0.018 C 
HETATM    3  C6  UNL     1      23.204   1.485  53.188  1.00  0.00     0.049 C 
HETATM    4  C7  UNL     1      24.459   1.882  53.049  1.00  0.00     0.075 C 
HETATM    5  C8  UNL     1      24.920   2.868  52.049  1.00  0.00     0.336 C 
HETATM    6  N2  UNL     1      25.985   2.275  51.264  1.00  0.00     0.096 N 
HETATM    7  C9  UNL     1      26.431   3.173  50.201  1.00  0.00     0.275 C 
HETATM    8  C10 UNL     1      25.260   3.937  49.632  1.00  0.00     0.057 C 
HETATM    9  C11 UNL     1      24.234   3.031  49.017  1.00  0.00     0.179 C 
HETATM   10  O1  UNL     1      23.047   3.864  48.934  1.00  0.00    -0.332 OA
HETATM   11  C12 UNL     1      21.910   3.344  49.655  1.00  0.00     0.199 C 
HETATM   12  N3  UNL     1      21.706   2.273  48.918  1.00  0.00    -0.215 NA
HETATM   13  C13 UNL     1      21.253   0.950  49.345  1.00  0.00     0.238 C 
HETATM   14  N4  UNL     1      21.195   0.313  50.517  1.00  0.00    -0.221 NA
HETATM   15  C14 UNL     1      21.137   3.804  50.873  1.00  0.00     0.122 C 
HETATM   16  C16 UNL     1      21.241   3.146  52.075  1.00  0.00     0.056 C 
HETATM   17  C17 UNL     1      27.105   2.138  52.175  1.00  0.00     0.299 C 
HETATM   18  C18 UNL     1      26.823   1.261  53.349  1.00  0.00     0.205 C 
HETATM   19  O3  UNL     1      25.505   1.425  53.820  1.00  0.00    -0.352 OA
ENDROOT
BRANCH   1  20
HETATM   20  N1  UNL     1      21.962  -0.361  52.718  1.00  0.00    -0.165 N 
HETATM   21  F1  UNL     1      22.979  -1.281  52.748  1.00  0.00    -0.092 F 
BRANCH  20  22
HETATM   22  C3  UNL     1      20.928  -0.440  53.694  1.00  0.00     0.181 C 
BRANCH  22  23
HETATM   23  C2  UNL     1      19.692  -0.863  53.458  1.00  0.00    -0.135 C 
HETATM   24  C1  UNL     1      18.437  -0.878  53.032  1.00  0.00     0.098 C 
ENDBRANCH  22  23
ENDBRANCH  20  22
ENDBRANCH   1  20
BRANCH  15  25
HETATM   25  O2  UNL     1      20.255   4.841  51.088  1.00  0.00    -0.352 OA
HETATM   26  C15 UNL     1      19.643   5.453  49.942  1.00  0.00     0.210 C 
ENDBRANCH  15  25
TORSDOF 4
ENDMDL
MODEL 3
REMARK VINA RESULT:      -6.9      2.533      5.337
REMARK  4 active torsions:
REMARK  status: ('A' for Active; 'I' for Inactive)
REMARK    1  A    between atoms: C2_2  and  C3_3 
REMARK    2  A    between atoms: C3_3  and  N1_4 
REMARK    3  A    between atoms: N1_4  and  C4_6 
REMARK    4  A    between atoms: C14_20  and  O2_21 
ROOT
HETATM    1  C4  UNL     1      22.051   1.954  50.730  1.00  0.00     0.171 C 
HETATM    2  C5  UNL     1      22.428   2.543  51.901  1.00  0.00     0.018 C 
HETATM    3  C6  UNL     1      22.543   1.353  52.740  1.00  0.00     0.049 C 
HETATM    4  C7  UNL     1      23.642   0.885  53.308  1.00  0.00     0.075 C 
HETATM    5  C8  UNL     1      24.978   1.507  53.189  1.00  0.00     0.336 C 
HETATM    6  N2  UNL     1      25.912   0.516  52.694  1.00  0.00     0.096 N 
HETATM    7  C9  UNL     1      27.238   1.090  52.475  1.00  0.00     0.275 C 
HETATM    8  C10 UNL     1      27.119   2.502  51.955  1.00  0.00     0.057 C 
HETATM    9  C11 UNL     1      26.408   2.564  50.633  1.00  0.00     0.179 C 
HETATM   10  O1  UNL     1      26.017   3.958  50.521  1.00  0.00    -0.332 OA
HETATM   11  C12 UNL     1      24.593   4.162  50.392  1.00  0.00     0.199 C 
HETATM   12  N3  UNL     1      24.439   3.601  49.211  1.00  0.00    -0.215 NA
HETATM   13  C13 UNL     1      23.309   2.813  48.722  1.00  0.00     0.238 C 
HETATM   14  N4  UNL     1      22.291   2.172  49.303  1.00  0.00    -0.221 NA
HETATM   15  C14 UNL     1      23.538   4.798  51.272  1.00  0.00     0.122 C 
HETATM   16  C16 UNL     1      22.603   4.034  51.929  1.00  0.00     0.056 C 
HETATM   17  C17 UNL     1      26.060  -0.445  53.770  1.00  0.00     0.299 C 
HETATM   18  C18 UNL     1      24.787  -1.126  54.149  1.00  0.00     0.205 C 
HETATM   19  O3  UNL     1      23.687  -0.249  54.090  1.00  0.00    -0.352 OA
ENDROOT
BRANCH   1  20
HETATM   20  N1  UNL     1      21.195   0.815  50.988  1.00  0.00    -0.165 N 
HETATM   21  F1  UNL     1      21.507  -0.506  51.187  1.00  0.00    -0.092 F 
BRANCH  20  22
HETATM   22  C3  UNL     1      19.829   1.214  51.013  1.00  0.00     0.181 C 
BRANCH  22  23
HETATM   23  C2  UNL     1      18.832   0.479  51.490  1.00  0.00    -0.135 C 
HETATM   24  C1  UNL     1      18.186  -0.504  52.104  1.00  0.00     0.098 C 
ENDBRANCH  22  23
ENDBRANCH  20  22
ENDBRANCH   1  20
BRANCH  15  25
HETATM   25  O2  UNL     1      23.260   6.105  51.609  1.00  0.00    -0.352 OA
HETATM   26  C15 UNL     1      24.000   7.142  50.949  1.00  0.00     0.210 C 
ENDBRANCH  15  25
TORSDOF 4
ENDMDL
MODEL 4
REMARK VINA RESULT:      -6.8      2.826      5.347
REMARK  4 active torsions:
REMARK  status: ('A' for Active; 'I' for Inactive)
REMARK    1  A    between atoms: C2_2  and  C3_3 
REMARK    2  A    between atoms: C3_3  and  N1_4 
REMARK    3  A    between atoms: N1_4  and  C4_6 
REMARK    4  A    between atoms: C14_20  and  O2_21 
ROOT
HETATM    1  C4  UNL     1      23.056   2.582  52.013  1.00  0.00     0.171 C 
HETATM    2  C5  UNL     1      22.405   3.776  52.122  1.00  0.00     0.018 C 
HETATM    3  C6  UNL     1      23.543   4.681  51.980  1.00  0.00     0.049 C 
HETATM    4  C7  UNL     1      23.745   5.554  51.007  1.00  0.00     0.075 C 
HETATM    5  C8  UNL     1      22.827   5.769  49.868  1.00  0.00     0.336 C 
HETATM    6  N2  UNL     1      23.568   5.606  48.633  1.00  0.00     0.096 N 
HETATM    7  C9  UNL     1      22.698   5.726  47.465  1.00  0.00     0.275 C 
HETATM    8  C10 UNL     1      21.349   5.113  47.751  1.00  0.00     0.057 C 
HETATM    9  C11 UNL     1      21.443   3.646  48.059  1.00  0.00     0.179 C 
HETATM   10  O1  UNL     1      20.179   3.351  48.709  1.00  0.00    -0.332 OA
HETATM   11  C12 UNL     1      20.312   2.826  50.047  1.00  0.00     0.199 C 
HETATM   12  N3  UNL     1      20.884   1.683  49.733  1.00  0.00    -0.215 NA
HETATM   13  C13 UNL     1      21.910   0.949  50.473  1.00  0.00     0.238 C 
HETATM   14  N4  UNL     1      22.776   1.265  51.439  1.00  0.00    -0.221 NA
HETATM   15  C14 UNL     1      19.948   3.345  51.421  1.00  0.00     0.122 C 
HETATM   16  C16 UNL     1      20.914   3.764  52.305  1.00  0.00     0.056 C 
HETATM   17  C17 UNL     1      24.477   6.735  48.578  1.00  0.00     0.299 C 
HETATM   18  C18 UNL     1      25.440   6.790  49.717  1.00  0.00     0.205 C 
HETATM   19  O3  UNL     1      24.843   6.382  50.926  1.00  0.00    -0.352 OA
ENDROOT
BRANCH   1  20
HETATM   20  N1  UNL     1      24.366   2.660  52.625  1.00  0.00    -0.165 N 
HETATM   21  F1  UNL     1      24.767   3.256  53.794  1.00  0.00    -0.092 F 
BRANCH  20  22
HETATM   22  C3  UNL     1      25.334   1.999  51.818  1.00  0.00     0.181 C 
BRANCH  22  23
HETATM   23  C2  UNL     1      26.115   2.597  50.927  1.00  0.00    -0.135 C 
HETATM   24  C1  UNL     1      26.499   3.234  49.829  1.00  0.00     0.098 C 
ENDBRANCH  22  23
ENDBRANCH  20  22
ENDBRANCH   1  20
BRANCH  15  25
HETATM   25  O2  UNL     1      18.745   3.518  52.072  1.00  0.00    -0.352 OA
HETATM   26  C15 UNL     1      17.613   3.934  51.293  1.00  0.00     0.210 C 
ENDBRANCH  15  25
TORSDOF 4
ENDMDL
MODEL 5
REMARK VINA RESULT:      -6.7      9.373     12.305
REMARK  4 active torsions:
REMARK  status: ('A' for Active; 'I' for Inactive)
REMARK    1  A    between atoms: C2_2  and  C3_3 
REMARK    2  A    between atoms: C3_3  and  N1_4 
REMARK    3  A    between atoms: N1_4  and  C4_6 
REMARK    4  A    between atoms: C14_20  and  O2_21 
ROOT
HETATM    1  C4  UNL     1      29.496   7.673  47.614  1.00  0.00     0.171 C 
HETATM    2  C5  UNL     1      30.168   8.210  48.673  1.00  0.00     0.018 C 
HETATM    3  C6  UNL     1      31.014   7.071  49.020  1.00  0.00     0.049 C 
HETATM    4  C7  UNL     1      32.335   7.018  48.968  1.00  0.00     0.075 C 
HETATM    5  C8  UNL     1      33.202   8.136  48.540  1.00  0.00     0.336 C 
HETATM    6  N2  UNL     1      34.057   7.678  47.464  1.00  0.00     0.096 N 
HETATM    7  C9  UNL     1      34.886   8.762  46.938  1.00  0.00     0.275 C 
HETATM    8  C10 UNL     1      34.115  10.059  46.938  1.00  0.00     0.057 C 
HETATM    9  C11 UNL     1      32.896   9.997  46.063  1.00  0.00     0.179 C 
HETATM   10  O1  UNL     1      32.090  11.116  46.518  1.00  0.00    -0.332 OA
HETATM   11  C12 UNL     1      30.782  10.743  47.001  1.00  0.00     0.199 C 
HETATM   12  N3  UNL     1      30.283  10.323  45.858  1.00  0.00    -0.215 NA
HETATM   13  C13 UNL     1      29.358   9.215  45.625  1.00  0.00     0.238 C 
HETATM   14  N4  UNL     1      28.974   8.150  46.333  1.00  0.00    -0.221 NA
HETATM   15  C14 UNL     1      30.112  10.781  48.358  1.00  0.00     0.122 C 
HETATM   16  C16 UNL     1      29.869   9.628  49.066  1.00  0.00     0.056 C 
HETATM   17  C17 UNL     1      34.970   6.731  48.073  1.00  0.00     0.299 C 
HETATM   18  C18 UNL     1      34.292   5.552  48.688  1.00  0.00     0.205 C 
HETATM   19  O3  UNL     1      33.079   5.910  49.308  1.00  0.00    -0.352 OA
ENDROOT
BRANCH   1  20
HETATM   20  N1  UNL     1      29.250   6.263  47.831  1.00  0.00    -0.165 N 
HETATM   21  F1  UNL     1      30.054   5.174  47.606  1.00  0.00    -0.092 F 
BRANCH  20  22
HETATM   22  C3  UNL     1      27.942   6.060  48.354  1.00  0.00     0.181 C 
BRANCH  22  23
HETATM   23  C2  UNL     1      27.433   4.881  48.689  1.00  0.00    -0.135 C 
HETATM   24  C1  UNL     1      26.783   3.948  49.372  1.00  0.00     0.098 C 
ENDBRANCH  22  23
ENDBRANCH  20  22
ENDBRANCH   1  20
BRANCH  15  25
HETATM   25  O2  UNL     1      29.634  11.810  49.141  1.00  0.00    -0.352 OA
HETATM   26  C15 UNL     1      28.488  12.536  48.672  1.00  0.00     0.210 C 
ENDBRANCH  15  25
TORSDOF 4
ENDMDL
MODEL 6
REMARK VINA RESULT:      -6.6      7.781      9.669
REMARK  4 active torsions:
REMARK  status: ('A' for Active; 'I' for Inactive)
REMARK    1  A    between atoms: C2_2  and  C3_3 
REMARK    2  A    between atoms: C3_3  and  N1_4 
REMARK    3  A    between atoms: N1_4  and  C4_6 
REMARK    4  A    between atoms: C14_20  and  O2_21 
ROOT
HETATM    1  C4  UNL     1      31.090   7.344  48.774  1.00  0.00     0.171 C 
HETATM    2  C5  UNL     1      30.329   7.090  47.670  1.00  0.00     0.018 C 
HETATM    3  C6  UNL     1      29.733   5.821  48.079  1.00  0.00     0.049 C 
HETATM    4  C7  UNL     1      28.450   5.578  48.291  1.00  0.00     0.075 C 
HETATM    5  C8  UNL     1      27.372   6.578  48.143  1.00  0.00     0.336 C 
HETATM    6  N2  UNL     1      26.621   6.642  49.382  1.00  0.00     0.096 N 
HETATM    7  C9  UNL     1      25.588   7.674  49.330  1.00  0.00     0.275 C 
HETATM    8  C10 UNL     1      26.080   8.872  48.554  1.00  0.00     0.057 C 
HETATM    9  C11 UNL     1      27.281   9.509  49.191  1.00  0.00     0.179 C 
HETATM   10  O1  UNL     1      27.845  10.317  48.124  1.00  0.00    -0.332 OA
HETATM   11  C12 UNL     1      29.204   9.973  47.781  1.00  0.00     0.199 C 
HETATM   12  N3  UNL     1      29.772  10.339  48.911  1.00  0.00    -0.215 NA
HETATM   13  C13 UNL     1      30.901   9.718  49.600  1.00  0.00     0.238 C 
HETATM   14  N4  UNL     1      31.498   8.524  49.536  1.00  0.00    -0.221 NA
HETATM   15  C14 UNL     1      29.860   9.380  46.552  1.00  0.00     0.122 C 
HETATM   16  C16 UNL     1      30.336   8.090  46.550  1.00  0.00     0.056 C 
HETATM   17  C17 UNL     1      25.923   5.375  49.475  1.00  0.00     0.299 C 
HETATM   18  C18 UNL     1      26.829   4.190  49.519  1.00  0.00     0.205 C 
HETATM   19  O3  UNL     1      27.948   4.355  48.679  1.00  0.00    -0.352 OA
ENDROOT
BRANCH   1  20
HETATM   20  N1  UNL     1      31.618   6.111  49.320  1.00  0.00    -0.165 N 
HETATM   21  F1  UNL     1      31.334   5.467  50.497  1.00  0.00    -0.092 F 
BRANCH  20  22
HETATM   22  C3  UNL     1      32.584   5.549  48.438  1.00  0.00     0.181 C 
BRANCH  22  23
HETATM   23  C2  UNL     1      33.883   5.819  48.464  1.00  0.00    -0.135 C 
HETATM   24  C1  UNL     1      35.015   6.503  48.554  1.00  0.00     0.098 C 
ENDBRANCH  22  23
ENDBRANCH  20  22
ENDBRANCH   1  20
BRANCH  15  25
HETATM   25  O2  UNL     1      30.123   9.879  45.294  1.00  0.00    -0.352 OA
HETATM   26  C15 UNL     1      30.976   9.112  44.431  1.00  0.00     0.210 C 
ENDBRANCH  15  25
TORSDOF 4
ENDMDL
MODEL 7
REMARK VINA RESULT:      -6.3      3.037      5.882
REMARK  4 active torsions:
REMARK  status: ('A' for Active; 'I' for Inactive)
REMARK    1  A    between atoms: C2_2  and  C3_3 
REMARK    2  A    between atoms: C3_3  and  N1_4 
REMARK    3  A    between atoms: N1_4  and  C4_6 
REMARK    4  A    between atoms: C14_20  and  O2_21 
ROOT
HETATM    1  C4  UNL     1      23.313   3.365  51.079  1.00  0.00     0.171 C 
HETATM    2  C5  UNL     1      23.807   3.022  49.855  1.00  0.00     0.018 C 
HETATM    3  C6  UNL     1      22.588   2.499  49.244  1.00  0.00     0.049 C 
HETATM    4  C7  UNL     1      21.953   2.991  48.193  1.00  0.00     0.075 C 
HETATM    5  C8  UNL     1      22.384   4.185  47.436  1.00  0.00     0.336 C 
HETATM    6  N2  UNL     1      21.286   5.131  47.391  1.00  0.00     0.096 N 
HETATM    7  C9  UNL     1      21.674   6.372  46.724  1.00  0.00     0.275 C 
HETATM    8  C10 UNL     1      23.103   6.723  47.059  1.00  0.00     0.057 C 
HETATM    9  C11 UNL     1      23.305   6.951  48.529  1.00  0.00     0.179 C 
HETATM   10  O1  UNL     1      24.743   6.839  48.698  1.00  0.00    -0.332 OA
HETATM   11  C12 UNL     1      25.150   5.802  49.616  1.00  0.00     0.199 C 
HETATM   12  N3  UNL     1      24.652   6.331  50.714  1.00  0.00    -0.215 NA
HETATM   13  C13 UNL     1      24.046   5.648  51.856  1.00  0.00     0.238 C 
HETATM   14  N4  UNL     1      23.538   4.429  52.058  1.00  0.00    -0.221 NA
HETATM   15  C14 UNL     1      25.901   4.497  49.463  1.00  0.00     0.122 C 
HETATM   16  C16 UNL     1      25.258   3.287  49.568  1.00  0.00     0.056 C 
HETATM   17  C17 UNL     1      20.282   4.515  46.545  1.00  0.00     0.299 C 
HETATM   18  C18 UNL     1      19.776   3.209  47.063  1.00  0.00     0.205 C 
HETATM   19  O3  UNL     1      20.801   2.452  47.662  1.00  0.00    -0.352 OA
ENDROOT
BRANCH   1  20
HETATM   20  N1  UNL     1      22.299   2.420  51.499  1.00  0.00    -0.165 N 
HETATM   21  F1  UNL     1      20.937   2.560  51.592  1.00  0.00    -0.092 F 
BRANCH  20  22
HETATM   22  C3  UNL     1      22.894   1.180  51.865  1.00  0.00     0.181 C 
BRANCH  22  23
HETATM   23  C2  UNL     1      23.827   1.032  52.798  1.00  0.00    -0.135 C 
HETATM   24  C1  UNL     1      25.017   0.879  53.362  1.00  0.00     0.098 C 
ENDBRANCH  22  23
ENDBRANCH  20  22
ENDBRANCH   1  20
BRANCH  15  25
HETATM   25  O2  UNL     1      27.224   4.198  49.214  1.00  0.00    -0.352 OA
HETATM   26  C15 UNL     1      28.008   5.164  48.498  1.00  0.00     0.210 C 
ENDBRANCH  15  25
TORSDOF 4
ENDMDL
MODEL 8
REMARK VINA RESULT:      -6.3      2.630      4.099
REMARK  4 active torsions:
REMARK  status: ('A' for Active; 'I' for Inactive)
REMARK    1  A    between atoms: C2_2  and  C3_3 
REMARK    2  A    between atoms: C3_3  and  N1_4 
REMARK    3  A    between atoms: N1_4  and  C4_6 
REMARK    4  A    between atoms: C14_20  and  O2_21 
ROOT
HETATM    1  C4  UNL     1      21.316   1.362  52.220  1.00  0.00     0.171 C 
HETATM    2  C5  UNL     1      20.819   0.676  51.150  1.00  0.00     0.018 C 
HETATM    3  C6  UNL     1      19.829  -0.150  51.837  1.00  0.00     0.049 C 
HETATM    4  C7  UNL     1      18.516  -0.116  51.673  1.00  0.00     0.075 C 
HETATM    5  C8  UNL     1      17.811   0.787  50.740  1.00  0.00     0.336 C 
HETATM    6  N2  UNL     1      16.816   1.539  51.479  1.00  0.00     0.096 N 
HETATM    7  C9  UNL     1      16.136   2.512  50.627  1.00  0.00     0.275 C 
HETATM    8  C10 UNL     1      17.103   3.105  49.632  1.00  0.00     0.057 C 
HETATM    9  C11 UNL     1      18.229   3.841  50.300  1.00  0.00     0.179 C 
HETATM   10  O1  UNL     1      19.235   3.946  49.258  1.00  0.00    -0.332 OA
HETATM   11  C12 UNL     1      20.498   3.334  49.594  1.00  0.00     0.199 C 
HETATM   12  N3  UNL     1      20.837   4.149  50.570  1.00  0.00    -0.215 NA
HETATM   13  C13 UNL     1      21.553   3.836  51.806  1.00  0.00     0.238 C 
HETATM   14  N4  UNL     1      21.813   2.713  52.480  1.00  0.00    -0.221 NA
HETATM   15  C14 UNL     1      21.263   2.142  49.061  1.00  0.00     0.122 C 
HETATM   16  C16 UNL     1      21.370   0.979  49.786  1.00  0.00     0.056 C 
HETATM   17  C17 UNL     1      15.810   0.568  51.867  1.00  0.00     0.299 C 
HETATM   18  C18 UNL     1      16.334  -0.527  52.735  1.00  0.00     0.205 C 
HETATM   19  O3  UNL     1      17.631  -0.922  52.354  1.00  0.00    -0.352 OA
ENDROOT
BRANCH   1  20
HETATM   20  N1  UNL     1      21.348   0.515  53.394  1.00  0.00    -0.165 N 
HETATM   21  F1  UNL     1      20.562   0.524  54.519  1.00  0.00    -0.092 F 
BRANCH  20  22
HETATM   22  C3  UNL     1      22.394  -0.445  53.289  1.00  0.00     0.181 C 
BRANCH  22  23
HETATM   23  C2  UNL     1      23.687  -0.153  53.229  1.00  0.00    -0.135 C 
HETATM   24  C1  UNL     1      24.828   0.507  53.375  1.00  0.00     0.098 C 
ENDBRANCH  22  23
ENDBRANCH  20  22
ENDBRANCH   1  20
BRANCH  15  25
HETATM   25  O2  UNL     1      21.957   1.918  47.890  1.00  0.00    -0.352 OA
HETATM   26  C15 UNL     1      22.031   2.989  46.937  1.00  0.00     0.210 C 
ENDBRANCH  15  25
TORSDOF 4
ENDMDL
MODEL 9
REMARK VINA RESULT:      -6.3      2.938      5.532
REMARK  4 active torsions:
REMARK  status: ('A' for Active; 'I' for Inactive)
REMARK    1  A    between atoms: C2_2  and  C3_3 
REMARK    2  A    between atoms: C3_3  and  N1_4 
REMARK    3  A    between atoms: N1_4  and  C4_6 
REMARK    4  A    between atoms: C14_20  and  O2_21 
ROOT
HETATM    1  C4  UNL     1      21.797   1.593  51.527  1.00  0.00     0.171 C 
HETATM    2  C5  UNL     1      21.600   2.888  51.909  1.00  0.00     0.018 C 
HETATM    3  C6  UNL     1      22.980   3.363  51.863  1.00  0.00     0.049 C 
HETATM    4  C7  UNL     1      23.473   4.295  51.064  1.00  0.00     0.075 C 
HETATM    5  C8  UNL     1      22.686   5.036  50.055  1.00  0.00     0.336 C 
HETATM    6  N2  UNL     1      23.326   4.887  48.763  1.00  0.00     0.096 N 
HETATM    7  C9  UNL     1      22.552   5.530  47.703  1.00  0.00     0.275 C 
HETATM    8  C10 UNL     1      21.074   5.366  47.960  1.00  0.00     0.057 C 
HETATM    9  C11 UNL     1      20.655   3.924  47.974  1.00  0.00     0.179 C 
HETATM   10  O1  UNL     1      19.365   3.949  48.642  1.00  0.00    -0.332 OA
HETATM   11  C12 UNL     1      19.308   3.148  49.842  1.00  0.00     0.199 C 
HETATM   12  N3  UNL     1      19.449   1.969  49.276  1.00  0.00    -0.215 NA
HETATM   13  C13 UNL     1      20.158   0.796  49.787  1.00  0.00     0.238 C 
HETATM   14  N4  UNL     1      21.079   0.596  50.733  1.00  0.00    -0.221 NA
HETATM   15  C14 UNL     1      19.146   3.468  51.313  1.00  0.00     0.122 C 
HETATM   16  C16 UNL     1      20.197   3.346  52.190  1.00  0.00     0.056 C 
HETATM   17  C17 UNL     1      24.569   5.628  48.861  1.00  0.00     0.299 C 
HETATM   18  C18 UNL     1      25.491   5.119  49.920  1.00  0.00     0.205 C 
HETATM   19  O3  UNL     1      24.790   4.700  51.067  1.00  0.00    -0.352 OA
ENDROOT
BRANCH   1  20
HETATM   20  N1  UNL     1      23.053   1.097  52.050  1.00  0.00    -0.165 N 
HETATM   21  F1  UNL     1      24.282   0.982  51.453  1.00  0.00    -0.092 F 
BRANCH  20  22
HETATM   22  C3  UNL     1      22.898   0.673  53.400  1.00  0.00     0.181 C 
BRANCH  22  23
HETATM   23  C2  UNL     1      22.335  -0.468  53.778  1.00  0.00    -0.135 C 
HETATM   24  C1  UNL     1      21.925  -1.463  54.552  1.00  0.00     0.098 C 
ENDBRANCH  22  23
ENDBRANCH  20  22
ENDBRANCH   1  20
BRANCH  15  25
HETATM   25  O2  UNL     1      18.076   3.902  52.067  1.00  0.00    -0.352 OA
HETATM   26  C15 UNL     1      16.783   3.933  51.445  1.00  0.00     0.210 C 
ENDBRANCH  15  25
TORSDOF 4
ENDMDL
