MODEL 1
REMARK VINA RESULT:      -8.3      0.000      0.000
REMARK  8 active torsions:
REMARK  status: ('A' for Active; 'I' for Inactive)
REMARK    1  A    between atoms: N1_1  and  C1_2 
REMARK    2  A    between atoms: C1_2  and  C2_3 
REMARK    3  A    between atoms: C2_3  and  O1_4 
REMARK    4  A    between atoms: O1_4  and  C3_5 
REMARK    5  A    between atoms: C3_5  and  C4_6 
REMARK    6  A    between atoms: C8_12  and  C9_13 
REMARK    7  A    between atoms: C9_13  and  C10_14 
REMARK    8  A    between atoms: C13_18  and  C14_19 
ROOT
HETATM    1  C4  UNL     1      26.584   0.128  53.558  1.00  0.00     0.084 C 
HETATM    2  N2  UNL     1      27.209  -0.068  54.694  1.00  0.00    -0.181 NA
HETATM    3  N3  UNL     1      28.320   0.570  55.249  1.00  0.00    -0.313 N 
HETATM    4  C5  UNL     1      29.335   1.219  54.460  1.00  0.00     0.145 C 
HETATM    5  C6  UNL     1      28.808   2.456  53.767  1.00  0.00     0.049 C 
HETATM    6  C7  UNL     1      27.873   2.083  52.674  1.00  0.00    -0.016 C 
HETATM    7  C8  UNL     1      26.957   1.134  52.569  1.00  0.00    -0.029 C 
HETATM    8  H9  UNL     1      28.291   0.500  56.306  1.00  0.00     0.182 HD
ENDROOT
BRANCH   7   9
HETATM    9  C9  UNL     1      26.210   1.077  51.304  1.00  0.00     0.080 C 
BRANCH   9  10
HETATM   10  C10 UNL     1      25.790   2.445  50.855  1.00  0.00    -0.035 A 
HETATM   11  C11 UNL     1      24.519   2.847  51.283  1.00  0.00     0.123 A 
HETATM   12  N4  UNL     1      24.032   4.055  50.944  1.00  0.00    -0.272 NA
HETATM   13  C12 UNL     1      24.713   4.931  50.195  1.00  0.00     0.128 A 
HETATM   14  C13 UNL     1      25.981   4.541  49.763  1.00  0.00    -0.008 A 
HETATM   15  C20 UNL     1      26.532   3.317  50.078  1.00  0.00     0.022 A 
BRANCH  14  16
HETATM   16  C14 UNL     1      26.790   5.435  48.943  1.00  0.00    -0.025 A 
HETATM   17  C15 UNL     1      26.142   6.573  48.509  1.00  0.00     0.012 A 
HETATM   18  C16 UNL     1      26.803   7.510  47.717  1.00  0.00     0.001 A 
HETATM   19  C17 UNL     1      28.131   7.266  47.380  1.00  0.00     0.000 A 
HETATM   20  C18 UNL     1      28.749   6.115  47.834  1.00  0.00     0.001 A 
HETATM   21  C19 UNL     1      28.108   5.178  48.617  1.00  0.00     0.012 A 
ENDBRANCH  14  16
ENDBRANCH   9  10
ENDBRANCH   7   9
BRANCH   1  22
HETATM   22  C3  UNL     1      25.398  -0.751  53.260  1.00  0.00     0.229 C 
BRANCH  22  23
HETATM   23  O1  UNL     1      24.466  -0.759  54.267  1.00  0.00    -0.383 OA
BRANCH  23  24
HETATM   24  C2  UNL     1      23.173  -0.444  53.867  1.00  0.00     0.197 C 
BRANCH  24  25
HETATM   25  C1  UNL     1      22.095  -1.058  54.704  1.00  0.00     0.292 C 
BRANCH  25  26
HETATM   26  N1  UNL     1      20.968  -0.138  54.906  1.00  0.00     0.080 N 
HETATM   27  H1  UNL     1      20.304  -0.362  54.113  1.00  0.00     0.312 HD
HETATM   28  H2  UNL     1      20.439  -0.371  55.778  1.00  0.00     0.312 HD
ENDBRANCH  25  26
ENDBRANCH  24  25
ENDBRANCH  23  24
ENDBRANCH  22  23
ENDBRANCH   1  22
TORSDOF 8
ENDMDL
MODEL 2
REMARK VINA RESULT:      -8.2      3.267      7.250
REMARK  8 active torsions:
REMARK  status: ('A' for Active; 'I' for Inactive)
REMARK    1  A    between atoms: N1_1  and  C1_2 
REMARK    2  A    between atoms: C1_2  and  C2_3 
REMARK    3  A    between atoms: C2_3  and  O1_4 
REMARK    4  A    between atoms: O1_4  and  C3_5 
REMARK    5  A    between atoms: C3_5  and  C4_6 
REMARK    6  A    between atoms: C8_12  and  C9_13 
REMARK    7  A    between atoms: C9_13  and  C10_14 
REMARK    8  A    between atoms: C13_18  and  C14_19 
ROOT
HETATM    1  C4  UNL     1      26.087   1.179  52.067  1.00  0.00     0.084 C 
HETATM    2  N2  UNL     1      26.443   2.204  51.331  1.00  0.00    -0.181 NA
HETATM    3  N3  UNL     1      25.845   3.453  51.151  1.00  0.00    -0.313 N 
HETATM    4  C5  UNL     1      24.433   3.684  51.319  1.00  0.00     0.145 C 
HETATM    5  C6  UNL     1      24.007   3.543  52.764  1.00  0.00     0.049 C 
HETATM    6  C7  UNL     1      24.055   2.119  53.185  1.00  0.00    -0.016 C 
HETATM    7  C8  UNL     1      24.898   1.137  52.910  1.00  0.00    -0.029 C 
HETATM    8  H9  UNL     1      26.574   4.173  50.880  1.00  0.00     0.182 HD
ENDROOT
BRANCH   7   9
HETATM    9  C9  UNL     1      24.614  -0.166  53.530  1.00  0.00     0.080 C 
BRANCH   9  10
HETATM   10  C10 UNL     1      23.138  -0.422  53.611  1.00  0.00    -0.035 A 
HETATM   11  C11 UNL     1      22.715  -1.099  54.761  1.00  0.00     0.123 A 
HETATM   12  N4  UNL     1      21.414  -1.386  54.948  1.00  0.00    -0.272 NA
HETATM   13  C12 UNL     1      20.461  -1.052  54.069  1.00  0.00     0.128 A 
HETATM   14  C13 UNL     1      20.872  -0.376  52.918  1.00  0.00    -0.008 A 
HETATM   15  C20 UNL     1      22.190  -0.056  52.674  1.00  0.00     0.022 A 
BRANCH  14  16
HETATM   16  C14 UNL     1      19.898   0.025  51.909  1.00  0.00    -0.025 A 
HETATM   17  C15 UNL     1      18.608  -0.406  52.141  1.00  0.00     0.012 A 
HETATM   18  C16 UNL     1      17.583  -0.091  51.252  1.00  0.00     0.001 A 
HETATM   19  C17 UNL     1      17.896   0.671  50.130  1.00  0.00     0.000 A 
HETATM   20  C18 UNL     1      19.199   1.086  49.931  1.00  0.00     0.001 A 
HETATM   21  C19 UNL     1      20.226   0.781  50.801  1.00  0.00     0.012 A 
ENDBRANCH  14  16
ENDBRANCH   9  10
ENDBRANCH   7   9
BRANCH   1  22
HETATM   22  C3  UNL     1      26.975  -0.037  52.032  1.00  0.00     0.229 C 
BRANCH  22  23
HETATM   23  O1  UNL     1      28.170   0.148  52.680  1.00  0.00    -0.383 OA
BRANCH  23  24
HETATM   24  C2  UNL     1      28.423  -0.752  53.708  1.00  0.00     0.197 C 
BRANCH  24  25
HETATM   25  C1  UNL     1      29.319  -1.890  53.334  1.00  0.00     0.292 C 
BRANCH  25  26
HETATM   26  N1  UNL     1      28.572  -3.144  53.171  1.00  0.00     0.080 N 
HETATM   27  H1  UNL     1      28.886  -3.514  52.231  1.00  0.00     0.312 HD
HETATM   28  H2  UNL     1      28.882  -3.864  53.864  1.00  0.00     0.312 HD
ENDBRANCH  25  26
ENDBRANCH  24  25
ENDBRANCH  23  24
ENDBRANCH  22  23
ENDBRANCH   1  22
TORSDOF 8
ENDMDL
MODEL 3
REMARK VINA RESULT:      -8.1      3.609      5.157
REMARK  8 active torsions:
REMARK  status: ('A' for Active; 'I' for Inactive)
REMARK    1  A    between atoms: N1_1  and  C1_2 
REMARK    2  A    between atoms: C1_2  and  C2_3 
REMARK    3  A    between atoms: C2_3  and  O1_4 
REMARK    4  A    between atoms: O1_4  and  C3_5 
REMARK    5  A    between atoms: C3_5  and  C4_6 
REMARK    6  A    between atoms: C8_12  and  C9_13 
REMARK    7  A    between atoms: C9_13  and  C10_14 
REMARK    8  A    between atoms: C13_18  and  C14_19 
ROOT
HETATM    1  C4  UNL     1      25.521  -0.319  54.621  1.00  0.00     0.084 C 
HETATM    2  N2  UNL     1      25.081  -0.982  55.663  1.00  0.00    -0.181 NA
HETATM    3  N3  UNL     1      23.847  -1.589  55.906  1.00  0.00    -0.313 N 
HETATM    4  C5  UNL     1      22.620  -1.162  55.287  1.00  0.00     0.145 C 
HETATM    5  C6  UNL     1      22.610  -1.443  53.801  1.00  0.00     0.049 C 
HETATM    6  C7  UNL     1      23.550  -0.535  53.092  1.00  0.00    -0.016 C 
HETATM    7  C8  UNL     1      24.745  -0.064  53.413  1.00  0.00    -0.029 C 
HETATM    8  H9  UNL     1      23.962  -2.386  56.597  1.00  0.00     0.182 HD
ENDROOT
BRANCH   7   9
HETATM    9  C9  UNL     1      25.384   0.828  52.433  1.00  0.00     0.080 C 
BRANCH   9  10
HETATM   10  C10 UNL     1      24.501   1.993  52.097  1.00  0.00    -0.035 A 
HETATM   11  C11 UNL     1      24.417   2.981  53.086  1.00  0.00     0.123 A 
HETATM   12  N4  UNL     1      23.656   4.075  52.900  1.00  0.00    -0.272 NA
HETATM   13  C12 UNL     1      22.946   4.287  51.785  1.00  0.00     0.128 A 
HETATM   14  C13 UNL     1      23.022   3.308  50.792  1.00  0.00    -0.008 A 
HETATM   15  C20 UNL     1      23.785   2.168  50.927  1.00  0.00     0.022 A 
BRANCH  14  16
HETATM   16  C14 UNL     1      22.280   3.461  49.545  1.00  0.00    -0.025 A 
HETATM   17  C15 UNL     1      22.792   2.761  48.473  1.00  0.00     0.012 A 
HETATM   18  C16 UNL     1      22.176   2.822  47.225  1.00  0.00     0.001 A 
HETATM   19  C17 UNL     1      21.033   3.606  47.093  1.00  0.00     0.000 A 
HETATM   20  C18 UNL     1      20.548   4.293  48.190  1.00  0.00     0.001 A 
HETATM   21  C19 UNL     1      21.147   4.243  49.432  1.00  0.00     0.012 A 
ENDBRANCH  14  16
ENDBRANCH   9  10
ENDBRANCH   7   9
BRANCH   1  22
HETATM   22  C3  UNL     1      26.928   0.213  54.684  1.00  0.00     0.229 C 
BRANCH  22  23
HETATM   23  O1  UNL     1      27.881  -0.772  54.621  1.00  0.00    -0.383 OA
BRANCH  23  24
HETATM   24  C2  UNL     1      28.702  -0.719  53.501  1.00  0.00     0.197 C 
BRANCH  24  25
HETATM   25  C1  UNL     1      29.457  -1.980  53.222  1.00  0.00     0.292 C 
BRANCH  25  26
HETATM   26  N1  UNL     1      28.582  -3.160  53.252  1.00  0.00     0.080 N 
HETATM   27  H1  UNL     1      29.213  -3.943  53.584  1.00  0.00     0.312 HD
HETATM   28  H2  UNL     1      27.848  -3.070  53.990  1.00  0.00     0.312 HD
ENDBRANCH  25  26
ENDBRANCH  24  25
ENDBRANCH  23  24
ENDBRANCH  22  23
ENDBRANCH   1  22
TORSDOF 8
ENDMDL
MODEL 4
REMARK VINA RESULT:      -7.9      3.288      6.088
REMARK  8 active torsions:
REMARK  status: ('A' for Active; 'I' for Inactive)
REMARK    1  A    between atoms: N1_1  and  C1_2 
REMARK    2  A    between atoms: C1_2  and  C2_3 
REMARK    3  A    between atoms: C2_3  and  O1_4 
REMARK    4  A    between atoms: O1_4  and  C3_5 
REMARK    5  A    between atoms: C3_5  and  C4_6 
REMARK    6  A    between atoms: C8_12  and  C9_13 
REMARK    7  A    between atoms: C9_13  and  C10_14 
REMARK    8  A    between atoms: C13_18  and  C14_19 
ROOT
HETATM    1  C4  UNL     1      20.924   1.367  52.860  1.00  0.00     0.084 C 
HETATM    2  N2  UNL     1      20.323   1.014  53.971  1.00  0.00    -0.181 NA
HETATM    3  N3  UNL     1      20.603  -0.013  54.874  1.00  0.00    -0.313 N 
HETATM    4  C5  UNL     1      21.283  -1.228  54.505  1.00  0.00     0.145 C 
HETATM    5  C6  UNL     1      22.730  -0.977  54.144  1.00  0.00     0.049 C 
HETATM    6  C7  UNL     1      22.827  -0.259  52.846  1.00  0.00    -0.016 C 
HETATM    7  C8  UNL     1      22.096   0.703  52.304  1.00  0.00    -0.029 C 
HETATM    8  H9  UNL     1      20.244   0.241  55.839  1.00  0.00     0.182 HD
ENDROOT
BRANCH   7   9
HETATM    9  C9  UNL     1      22.512   1.172  50.973  1.00  0.00     0.080 C 
BRANCH   9  10
HETATM   10  C10 UNL     1      23.902   1.736  51.002  1.00  0.00    -0.035 A 
HETATM   11  C11 UNL     1      24.134   2.790  50.110  1.00  0.00     0.123 A 
HETATM   12  N4  UNL     1      25.343   3.378  50.044  1.00  0.00    -0.272 NA
HETATM   13  C12 UNL     1      26.377   3.005  50.809  1.00  0.00     0.128 A 
HETATM   14  C13 UNL     1      26.156   1.956  51.702  1.00  0.00    -0.008 A 
HETATM   15  C20 UNL     1      24.940   1.315  51.813  1.00  0.00     0.022 A 
BRANCH  14  16
HETATM   16  C14 UNL     1      27.229   1.487  52.572  1.00  0.00    -0.025 A 
HETATM   17  C15 UNL     1      27.336   0.116  52.678  1.00  0.00     0.012 A 
HETATM   18  C16 UNL     1      28.320  -0.461  53.478  1.00  0.00     0.001 A 
HETATM   19  C17 UNL     1      29.190   0.384  54.162  1.00  0.00     0.000 A 
HETATM   20  C18 UNL     1      29.054   1.753  54.030  1.00  0.00     0.001 A 
HETATM   21  C19 UNL     1      28.084   2.339  53.243  1.00  0.00     0.012 A 
ENDBRANCH  14  16
ENDBRANCH   9  10
ENDBRANCH   7   9
BRANCH   1  22
HETATM   22  C3  UNL     1      20.355   2.545  52.112  1.00  0.00     0.229 C 
BRANCH  22  23
HETATM   23  O1  UNL     1      20.638   3.749  52.705  1.00  0.00    -0.383 OA
BRANCH  23  24
HETATM   24  C2  UNL     1      21.629   4.492  52.075  1.00  0.00     0.197 C 
BRANCH  24  25
HETATM   25  C1  UNL     1      22.893   4.637  52.860  1.00  0.00     0.292 C 
BRANCH  25  26
HETATM   26  N1  UNL     1      23.790   5.642  52.275  1.00  0.00     0.080 N 
HETATM   27  H1  UNL     1      24.080   5.224  51.348  1.00  0.00     0.312 HD
HETATM   28  H2  UNL     1      23.272   6.517  52.029  1.00  0.00     0.312 HD
ENDBRANCH  25  26
ENDBRANCH  24  25
ENDBRANCH  23  24
ENDBRANCH  22  23
ENDBRANCH   1  22
TORSDOF 8
ENDMDL
MODEL 5
REMARK VINA RESULT:      -7.7      2.953      7.061
REMARK  8 active torsions:
REMARK  status: ('A' for Active; 'I' for Inactive)
REMARK    1  A    between atoms: N1_1  and  C1_2 
REMARK    2  A    between atoms: C1_2  and  C2_3 
REMARK    3  A    between atoms: C2_3  and  O1_4 
REMARK    4  A    between atoms: O1_4  and  C3_5 
REMARK    5  A    between atoms: C3_5  and  C4_6 
REMARK    6  A    between atoms: C8_12  and  C9_13 
REMARK    7  A    between atoms: C9_13  and  C10_14 
REMARK    8  A    between atoms: C13_18  and  C14_19 
ROOT
HETATM    1  C4  UNL     1      23.954   4.969  48.814  1.00  0.00     0.084 C 
HETATM    2  N2  UNL     1      24.266   6.163  48.372  1.00  0.00    -0.181 NA
HETATM    3  N3  UNL     1      25.504   6.798  48.248  1.00  0.00    -0.313 N 
HETATM    4  C5  UNL     1      26.642   6.479  49.071  1.00  0.00     0.145 C 
HETATM    5  C6  UNL     1      27.177   5.094  48.782  1.00  0.00     0.049 C 
HETATM    6  C7  UNL     1      26.237   4.057  49.282  1.00  0.00    -0.016 C 
HETATM    7  C8  UNL     1      24.916   3.988  49.304  1.00  0.00    -0.029 C 
HETATM    8  H9  UNL     1      25.467   7.524  47.477  1.00  0.00     0.182 HD
ENDROOT
BRANCH   7   9
HETATM    9  C9  UNL     1      24.330   2.773  49.890  1.00  0.00     0.080 C 
BRANCH   9  10
HETATM   10  C10 UNL     1      24.931   2.469  51.231  1.00  0.00    -0.035 A 
HETATM   11  C11 UNL     1      24.374   3.171  52.306  1.00  0.00     0.123 A 
HETATM   12  N4  UNL     1      24.829   2.982  53.558  1.00  0.00    -0.272 NA
HETATM   13  C12 UNL     1      25.821   2.132  53.852  1.00  0.00     0.128 A 
HETATM   14  C13 UNL     1      26.384   1.427  52.787  1.00  0.00    -0.008 A 
HETATM   15  C20 UNL     1      25.959   1.579  51.485  1.00  0.00     0.022 A 
BRANCH  14  16
HETATM   16  C14 UNL     1      27.470   0.480  53.020  1.00  0.00    -0.025 A 
HETATM   17  C15 UNL     1      28.652   1.044  53.450  1.00  0.00     0.012 A 
HETATM   18  C16 UNL     1      29.767   0.249  53.708  1.00  0.00     0.001 A 
HETATM   19  C17 UNL     1      29.651  -1.126  53.522  1.00  0.00     0.000 A 
HETATM   20  C18 UNL     1      28.450  -1.656  53.091  1.00  0.00     0.001 A 
HETATM   21  C19 UNL     1      27.338  -0.882  52.830  1.00  0.00     0.012 A 
ENDBRANCH  14  16
ENDBRANCH   9  10
ENDBRANCH   7   9
BRANCH   1  22
HETATM   22  C3  UNL     1      22.496   4.591  48.813  1.00  0.00     0.229 C 
BRANCH  22  23
HETATM   23  O1  UNL     1      21.664   5.652  49.066  1.00  0.00    -0.383 OA
BRANCH  23  24
HETATM   24  C2  UNL     1      21.454   5.922  50.413  1.00  0.00     0.197 C 
BRANCH  24  25
HETATM   25  C1  UNL     1      21.757   7.329  50.821  1.00  0.00     0.292 C 
BRANCH  25  26
HETATM   26  N1  UNL     1      23.175   7.509  51.158  1.00  0.00     0.080 N 
HETATM   27  H1  UNL     1      23.447   6.602  51.631  1.00  0.00     0.312 HD
HETATM   28  H2  UNL     1      23.767   7.555  50.297  1.00  0.00     0.312 HD
ENDBRANCH  25  26
ENDBRANCH  24  25
ENDBRANCH  23  24
ENDBRANCH  22  23
ENDBRANCH   1  22
TORSDOF 8
ENDMDL
MODEL 6
REMARK VINA RESULT:      -7.7      3.140      8.253
REMARK  8 active torsions:
REMARK  status: ('A' for Active; 'I' for Inactive)
REMARK    1  A    between atoms: N1_1  and  C1_2 
REMARK    2  A    between atoms: C1_2  and  C2_3 
REMARK    3  A    between atoms: C2_3  and  O1_4 
REMARK    4  A    between atoms: O1_4  and  C3_5 
REMARK    5  A    between atoms: C3_5  and  C4_6 
REMARK    6  A    between atoms: C8_12  and  C9_13 
REMARK    7  A    between atoms: C9_13  and  C10_14 
REMARK    8  A    between atoms: C13_18  and  C14_19 
ROOT
HETATM    1  C4  UNL     1      26.309   6.031  49.408  1.00  0.00     0.084 C 
HETATM    2  N2  UNL     1      26.456   7.320  49.598  1.00  0.00    -0.181 NA
HETATM    3  N3  UNL     1      25.664   8.238  50.291  1.00  0.00    -0.313 N 
HETATM    4  C5  UNL     1      24.249   8.067  50.493  1.00  0.00     0.145 C 
HETATM    5  C6  UNL     1      23.946   6.911  51.419  1.00  0.00     0.049 C 
HETATM    6  C7  UNL     1      24.238   5.616  50.751  1.00  0.00    -0.016 C 
HETATM    7  C8  UNL     1      25.200   5.238  49.924  1.00  0.00    -0.029 C 
HETATM    8  H9  UNL     1      26.257   9.049  50.630  1.00  0.00     0.182 HD
ENDROOT
BRANCH   7   9
HETATM    9  C9  UNL     1      25.159   3.841  49.463  1.00  0.00     0.080 C 
BRANCH   9  10
HETATM   10  C10 UNL     1      25.328   2.884  50.605  1.00  0.00    -0.035 A 
HETATM   11  C11 UNL     1      26.651   2.665  51.006  1.00  0.00     0.123 A 
HETATM   12  N4  UNL     1      26.931   1.826  52.021  1.00  0.00    -0.272 NA
HETATM   13  C12 UNL     1      25.985   1.162  52.698  1.00  0.00     0.128 A 
HETATM   14  C13 UNL     1      24.662   1.373  52.306  1.00  0.00    -0.008 A 
HETATM   15  C20 UNL     1      24.316   2.220  51.275  1.00  0.00     0.022 A 
BRANCH  14  16
HETATM   16  C14 UNL     1      23.571   0.689  52.991  1.00  0.00    -0.025 A 
HETATM   17  C15 UNL     1      22.329   1.266  52.829  1.00  0.00     0.012 A 
HETATM   18  C16 UNL     1      21.202   0.711  53.432  1.00  0.00     0.001 A 
HETATM   19  C17 UNL     1      21.366  -0.440  54.198  1.00  0.00     0.000 A 
HETATM   20  C18 UNL     1      22.626  -0.991  54.337  1.00  0.00     0.001 A 
HETATM   21  C19 UNL     1      23.751  -0.453  53.748  1.00  0.00     0.012 A 
ENDBRANCH  14  16
ENDBRANCH   9  10
ENDBRANCH   7   9
BRANCH   1  22
HETATM   22  C3  UNL     1      27.367   5.327  48.598  1.00  0.00     0.229 C 
BRANCH  22  23
HETATM   23  O1  UNL     1      28.220   6.190  47.959  1.00  0.00    -0.383 OA
BRANCH  23  24
HETATM   24  C2  UNL     1      29.570   5.968  48.207  1.00  0.00     0.197 C 
BRANCH  24  25
HETATM   25  C1  UNL     1      30.346   7.193  48.573  1.00  0.00     0.292 C 
BRANCH  25  26
HETATM   26  N1  UNL     1      29.532   8.153  49.328  1.00  0.00     0.080 N 
HETATM   27  H1  UNL     1      28.852   8.537  48.614  1.00  0.00     0.312 HD
HETATM   28  H2  UNL     1      28.935   7.670  50.039  1.00  0.00     0.312 HD
ENDBRANCH  25  26
ENDBRANCH  24  25
ENDBRANCH  23  24
ENDBRANCH  22  23
ENDBRANCH   1  22
TORSDOF 8
ENDMDL
MODEL 7
REMARK VINA RESULT:      -7.6      2.760      7.329
REMARK  8 active torsions:
REMARK  status: ('A' for Active; 'I' for Inactive)
REMARK    1  A    between atoms: N1_1  and  C1_2 
REMARK    2  A    between atoms: C1_2  and  C2_3 
REMARK    3  A    between atoms: C2_3  and  O1_4 
REMARK    4  A    between atoms: O1_4  and  C3_5 
REMARK    5  A    between atoms: C3_5  and  C4_6 
REMARK    6  A    between atoms: C8_12  and  C9_13 
REMARK    7  A    between atoms: C9_13  and  C10_14 
REMARK    8  A    between atoms: C13_18  and  C14_19 
ROOT
HETATM    1  C4  UNL     1      24.954   4.427  50.041  1.00  0.00     0.084 C 
HETATM    2  N2  UNL     1      25.463   5.530  50.533  1.00  0.00    -0.181 NA
HETATM    3  N3  UNL     1      24.852   6.722  50.929  1.00  0.00    -0.313 N 
HETATM    4  C5  UNL     1      23.602   7.187  50.386  1.00  0.00     0.145 C 
HETATM    5  C6  UNL     1      22.444   6.306  50.798  1.00  0.00     0.049 C 
HETATM    6  C7  UNL     1      22.517   4.992  50.107  1.00  0.00    -0.016 C 
HETATM    7  C8  UNL     1      23.535   4.209  49.787  1.00  0.00    -0.029 C 
HETATM    8  H9  UNL     1      25.439   7.206  51.667  1.00  0.00     0.182 HD
ENDROOT
BRANCH   7   9
HETATM    9  C9  UNL     1      23.207   2.955  49.093  1.00  0.00     0.080 C 
BRANCH   9  10
HETATM   10  C10 UNL     1      22.483   2.002  49.998  1.00  0.00    -0.035 A 
HETATM   11  C11 UNL     1      21.168   1.707  49.622  1.00  0.00     0.123 A 
HETATM   12  N4  UNL     1      20.417   0.864  50.355  1.00  0.00    -0.272 NA
HETATM   13  C12 UNL     1      20.868   0.266  51.465  1.00  0.00     0.128 A 
HETATM   14  C13 UNL     1      22.179   0.553  51.849  1.00  0.00    -0.008 A 
HETATM   15  C20 UNL     1      22.994   1.408  51.138  1.00  0.00     0.022 A 
BRANCH  14  16
HETATM   16  C14 UNL     1      22.749  -0.057  53.046  1.00  0.00    -0.025 A 
HETATM   17  C15 UNL     1      24.124   0.004  53.132  1.00  0.00     0.012 A 
HETATM   18  C16 UNL     1      24.792  -0.542  54.226  1.00  0.00     0.001 A 
HETATM   19  C17 UNL     1      24.034  -1.146  55.226  1.00  0.00     0.000 A 
HETATM   20  C18 UNL     1      22.658  -1.187  55.106  1.00  0.00     0.001 A 
HETATM   21  C19 UNL     1      21.981  -0.652  54.029  1.00  0.00     0.012 A 
ENDBRANCH  14  16
ENDBRANCH   9  10
ENDBRANCH   7   9
BRANCH   1  22
HETATM   22  C3  UNL     1      25.911   3.310  49.716  1.00  0.00     0.229 C 
BRANCH  22  23
HETATM   23  O1  UNL     1      26.881   3.136  50.671  1.00  0.00    -0.383 OA
BRANCH  23  24
HETATM   24  C2  UNL     1      26.759   1.973  51.422  1.00  0.00     0.197 C 
BRANCH  24  25
HETATM   25  C1  UNL     1      27.497   1.991  52.723  1.00  0.00     0.292 C 
BRANCH  25  26
HETATM   26  N1  UNL     1      26.719   2.642  53.785  1.00  0.00     0.080 N 
HETATM   27  H1  UNL     1      26.074   3.302  53.268  1.00  0.00     0.312 HD
HETATM   28  H2  UNL     1      26.085   1.962  54.264  1.00  0.00     0.312 HD
ENDBRANCH  25  26
ENDBRANCH  24  25
ENDBRANCH  23  24
ENDBRANCH  22  23
ENDBRANCH   1  22
TORSDOF 8
ENDMDL
MODEL 8
REMARK VINA RESULT:      -7.6      3.195      7.827
REMARK  8 active torsions:
REMARK  status: ('A' for Active; 'I' for Inactive)
REMARK    1  A    between atoms: N1_1  and  C1_2 
REMARK    2  A    between atoms: C1_2  and  C2_3 
REMARK    3  A    between atoms: C2_3  and  O1_4 
REMARK    4  A    between atoms: O1_4  and  C3_5 
REMARK    5  A    between atoms: C3_5  and  C4_6 
REMARK    6  A    between atoms: C8_12  and  C9_13 
REMARK    7  A    between atoms: C9_13  and  C10_14 
REMARK    8  A    between atoms: C13_18  and  C14_19 
ROOT
HETATM    1  C4  UNL     1      26.400   6.073  49.374  1.00  0.00     0.084 C 
HETATM    2  N2  UNL     1      26.568   7.346  49.635  1.00  0.00    -0.181 NA
HETATM    3  N3  UNL     1      25.765   8.250  50.333  1.00  0.00    -0.313 N 
HETATM    4  C5  UNL     1      24.337   8.108  50.457  1.00  0.00     0.145 C 
HETATM    5  C6  UNL     1      23.961   6.916  51.309  1.00  0.00     0.049 C 
HETATM    6  C7  UNL     1      24.255   5.648  50.591  1.00  0.00    -0.016 C 
HETATM    7  C8  UNL     1      25.247   5.285  49.795  1.00  0.00    -0.029 C 
HETATM    8  H9  UNL     1      26.359   9.028  50.741  1.00  0.00     0.182 HD
ENDROOT
BRANCH   7   9
HETATM    9  C9  UNL     1      25.195   3.915  49.263  1.00  0.00     0.080 C 
BRANCH   9  10
HETATM   10  C10 UNL     1      25.182   2.900  50.368  1.00  0.00    -0.035 A 
HETATM   11  C11 UNL     1      23.922   2.375  50.678  1.00  0.00     0.123 A 
HETATM   12  N4  UNL     1      23.782   1.456  51.651  1.00  0.00    -0.272 NA
HETATM   13  C12 UNL     1      24.813   0.994  52.370  1.00  0.00     0.128 A 
HETATM   14  C13 UNL     1      26.074   1.511  52.070  1.00  0.00    -0.008 A 
HETATM   15  C20 UNL     1      26.278   2.454  51.084  1.00  0.00     0.022 A 
BRANCH  14  16
HETATM   16  C14 UNL     1      27.252   1.062  52.805  1.00  0.00    -0.025 A 
HETATM   17  C15 UNL     1      27.460  -0.301  52.793  1.00  0.00     0.012 A 
HETATM   18  C16 UNL     1      28.550  -0.860  53.458  1.00  0.00     0.001 A 
HETATM   19  C17 UNL     1      29.418  -0.005  54.130  1.00  0.00     0.000 A 
HETATM   20  C18 UNL     1      29.178   1.356  54.120  1.00  0.00     0.001 A 
HETATM   21  C19 UNL     1      28.103   1.925  53.467  1.00  0.00     0.012 A 
ENDBRANCH  14  16
ENDBRANCH   9  10
ENDBRANCH   7   9
BRANCH   1  22
HETATM   22  C3  UNL     1      27.479   5.381  48.583  1.00  0.00     0.229 C 
BRANCH  22  23
HETATM   23  O1  UNL     1      28.308   6.254  47.923  1.00  0.00    -0.383 OA
BRANCH  23  24
HETATM   24  C2  UNL     1      29.658   6.114  48.220  1.00  0.00     0.197 C 
BRANCH  24  25
HETATM   25  C1  UNL     1      30.351   7.390  48.583  1.00  0.00     0.292 C 
BRANCH  25  26
HETATM   26  N1  UNL     1      31.277   7.209  49.708  1.00  0.00     0.080 N 
HETATM   27  H1  UNL     1      31.393   6.160  49.784  1.00  0.00     0.312 HD
HETATM   28  H2  UNL     1      32.231   7.572  49.478  1.00  0.00     0.312 HD
ENDBRANCH  25  26
ENDBRANCH  24  25
ENDBRANCH  23  24
ENDBRANCH  22  23
ENDBRANCH   1  22
TORSDOF 8
ENDMDL
MODEL 9
REMARK VINA RESULT:      -7.6      2.622      7.403
REMARK  8 active torsions:
REMARK  status: ('A' for Active; 'I' for Inactive)
REMARK    1  A    between atoms: N1_1  and  C1_2 
REMARK    2  A    between atoms: C1_2  and  C2_3 
REMARK    3  A    between atoms: C2_3  and  O1_4 
REMARK    4  A    between atoms: O1_4  and  C3_5 
REMARK    5  A    between atoms: C3_5  and  C4_6 
REMARK    6  A    between atoms: C8_12  and  C9_13 
REMARK    7  A    between atoms: C9_13  and  C10_14 
REMARK    8  A    between atoms: C13_18  and  C14_19 
ROOT
HETATM    1  C4  UNL     1      23.448   3.219  49.943  1.00  0.00     0.084 C 
HETATM    2  N2  UNL     1      23.271   3.040  48.656  1.00  0.00    -0.181 NA
HETATM    3  N3  UNL     1      22.327   2.282  47.960  1.00  0.00    -0.313 N 
HETATM    4  C5  UNL     1      21.682   1.119  48.514  1.00  0.00     0.145 C 
HETATM    5  C6  UNL     1      20.748   1.478  49.648  1.00  0.00     0.049 C 
HETATM    6  C7  UNL     1      21.521   1.902  50.845  1.00  0.00    -0.016 C 
HETATM    7  C8  UNL     1      22.627   2.614  50.985  1.00  0.00    -0.029 C 
HETATM    8  H9  UNL     1      22.171   2.690  46.994  1.00  0.00     0.182 HD
ENDROOT
BRANCH   7   9
HETATM    9  C9  UNL     1      23.098   2.833  52.361  1.00  0.00     0.080 C 
BRANCH   9  10
HETATM   10  C10 UNL     1      23.822   1.629  52.889  1.00  0.00    -0.035 A 
HETATM   11  C11 UNL     1      22.998   0.595  53.349  1.00  0.00     0.123 A 
HETATM   12  N4  UNL     1      23.531  -0.537  53.846  1.00  0.00    -0.272 NA
HETATM   13  C12 UNL     1      24.851  -0.744  53.931  1.00  0.00     0.128 A 
HETATM   14  C13 UNL     1      25.682   0.281  53.475  1.00  0.00    -0.008 A 
HETATM   15  C20 UNL     1      25.193   1.462  52.957  1.00  0.00     0.022 A 
BRANCH  14  16
HETATM   16  C14 UNL     1      27.133   0.137  53.531  1.00  0.00    -0.025 A 
HETATM   17  C15 UNL     1      27.607  -1.113  53.195  1.00  0.00     0.012 A 
HETATM   18  C16 UNL     1      28.974  -1.383  53.208  1.00  0.00     0.001 A 
HETATM   19  C17 UNL     1      29.843  -0.357  53.569  1.00  0.00     0.000 A 
HETATM   20  C18 UNL     1      29.331   0.884  53.899  1.00  0.00     0.001 A 
HETATM   21  C19 UNL     1      27.981   1.167  53.891  1.00  0.00     0.012 A 
ENDBRANCH  14  16
ENDBRANCH   9  10
ENDBRANCH   7   9
BRANCH   1  22
HETATM   22  C3  UNL     1      24.581   4.117  50.366  1.00  0.00     0.229 C 
BRANCH  22  23
HETATM   23  O1  UNL     1      25.816   3.541  50.202  1.00  0.00    -0.383 OA
BRANCH  23  24
HETATM   24  C2  UNL     1      26.668   4.220  49.340  1.00  0.00     0.197 C 
BRANCH  24  25
HETATM   25  C1  UNL     1      26.195   5.582  48.941  1.00  0.00     0.292 C 
BRANCH  25  26
HETATM   26  N1  UNL     1      27.047   6.642  49.495  1.00  0.00     0.080 N 
HETATM   27  H1  UNL     1      27.569   7.022  48.657  1.00  0.00     0.312 HD
HETATM   28  H2  UNL     1      26.476   7.444  49.847  1.00  0.00     0.312 HD
ENDBRANCH  25  26
ENDBRANCH  24  25
ENDBRANCH  23  24
ENDBRANCH  22  23
ENDBRANCH   1  22
TORSDOF 8
ENDMDL
