MODEL 1
REMARK VINA RESULT:      -8.9      0.000      0.000
REMARK  1 active torsions:
REMARK  status: ('A' for Active; 'I' for Inactive)
REMARK    1  A    between atoms: O1_2  and  C2_3 
ROOT
HETATM    1  C2  UNL     1      26.305   1.028  54.276  1.00  0.00     0.073 A 
HETATM    2  C3  UNL     1      25.904   2.293  53.855  1.00  0.00     0.066 A 
HETATM    3  C4  UNL     1      24.682   2.426  53.189  1.00  0.00     0.034 A 
HETATM    4  C5  UNL     1      23.958   1.277  52.995  1.00  0.00     0.066 A 
HETATM    5  C6  UNL     1      24.285   0.004  53.378  1.00  0.00     0.076 A 
HETATM    6  C7  UNL     1      25.517  -0.078  54.042  1.00  0.00     0.073 A 
HETATM    7  O2  UNL     1      23.481  -1.095  53.134  1.00  0.00    -0.326 OA
HETATM    8  C8  UNL     1      22.125  -1.186  53.557  1.00  0.00     0.345 C 
HETATM    9  O3  UNL     1      21.408  -0.158  52.960  1.00  0.00    -0.358 OA
HETATM   10  C9  UNL     1      20.184   0.363  53.339  1.00  0.00     0.162 C 
HETATM   11  C10 UNL     1      20.166   1.199  52.281  1.00  0.00     0.056 C 
HETATM   12  C11 UNL     1      19.302   2.223  51.710  1.00  0.00    -0.079 C 
HETATM   13  C12 UNL     1      18.059   3.100  51.662  1.00  0.00     0.043 C 
HETATM   14  C13 UNL     1      20.066   2.533  50.641  1.00  0.00    -0.015 C 
HETATM   15  C14 UNL     1      21.371   2.088  50.068  1.00  0.00     0.042 C 
HETATM   16  C15 UNL     1      21.040   1.549  48.664  1.00  0.00     0.019 C 
HETATM   17  C16 UNL     1      22.386   3.150  49.990  1.00  0.00    -0.011 C 
HETATM   18  S1  UNL     1      22.252   4.458  51.036  1.00  0.00    -0.078 SA
HETATM   19  N1  UNL     1      23.389   5.575  50.135  1.00  0.00    -0.333 N 
HETATM   20  C17 UNL     1      24.187   4.350  50.319  1.00  0.00     0.211 A 
HETATM   21  N2  UNL     1      24.554   3.739  49.209  1.00  0.00    -0.280 NA
HETATM   22  C18 UNL     1      23.404   2.810  48.890  1.00  0.00     0.188 C 
HETATM   23  C19 UNL     1      23.960   4.664  51.751  1.00  0.00     0.214 A 
HETATM   24  N3  UNL     1      24.234   3.690  52.735  1.00  0.00    -0.371 N 
HETATM   25  H19 UNL     1      22.837   6.449  49.998  1.00  0.00     0.170 HD
HETATM   26  H23 UNL     1      23.986   4.077  53.699  1.00  0.00     0.161 HD
ENDROOT
BRANCH   1  27
HETATM   27  O1  UNL     1      27.506   0.956  54.922  1.00  0.00    -0.356 OA
HETATM   28  C1  UNL     1      28.573   0.141  54.555  1.00  0.00     0.210 C 
ENDBRANCH   1  27
TORSDOF 1
ENDMDL
MODEL 2
REMARK VINA RESULT:      -8.3      2.260      5.850
REMARK  1 active torsions:
REMARK  status: ('A' for Active; 'I' for Inactive)
REMARK    1  A    between atoms: O1_2  and  C2_3 
ROOT
HETATM    1  C2  UNL     1      18.084  -0.433  51.864  1.00  0.00     0.073 A 
HETATM    2  C3  UNL     1      18.725   0.211  50.809  1.00  0.00     0.066 A 
HETATM    3  C4  UNL     1      20.019   0.703  51.006  1.00  0.00     0.034 A 
HETATM    4  C5  UNL     1      20.568   0.512  52.247  1.00  0.00     0.066 A 
HETATM    5  C6  UNL     1      20.004  -0.108  53.329  1.00  0.00     0.076 A 
HETATM    6  C7  UNL     1      18.708  -0.584  53.083  1.00  0.00     0.073 A 
HETATM    7  O2  UNL     1      20.645  -0.252  54.546  1.00  0.00    -0.326 OA
HETATM    8  C8  UNL     1      21.914  -0.878  54.696  1.00  0.00     0.345 C 
HETATM    9  O3  UNL     1      22.847  -0.167  53.953  1.00  0.00    -0.358 OA
HETATM   10  C9  UNL     1      24.088  -0.587  53.512  1.00  0.00     0.162 C 
HETATM   11  C10 UNL     1      24.356   0.623  52.982  1.00  0.00     0.056 C 
HETATM   12  C11 UNL     1      25.429   1.287  52.255  1.00  0.00    -0.079 C 
HETATM   13  C12 UNL     1      26.792   1.358  51.582  1.00  0.00     0.043 C 
HETATM   14  C13 UNL     1      24.847   2.499  52.133  1.00  0.00    -0.015 C 
HETATM   15  C14 UNL     1      23.559   3.136  52.542  1.00  0.00     0.042 C 
HETATM   16  C15 UNL     1      23.955   4.308  53.457  1.00  0.00     0.019 C 
HETATM   17  C16 UNL     1      22.741   3.611  51.415  1.00  0.00    -0.011 C 
HETATM   18  S1  UNL     1      22.963   2.895  49.911  1.00  0.00    -0.078 SA
HETATM   19  N1  UNL     1      22.125   4.190  48.927  1.00  0.00    -0.333 N 
HETATM   20  C17 UNL     1      21.128   3.841  49.954  1.00  0.00     0.211 A 
HETATM   21  N2  UNL     1      20.793   4.817  50.777  1.00  0.00    -0.280 NA
HETATM   22  C18 UNL     1      21.810   4.736  51.894  1.00  0.00     0.188 C 
HETATM   23  C19 UNL     1      21.241   2.507  49.317  1.00  0.00     0.214 A 
HETATM   24  N3  UNL     1      20.708   1.372  49.966  1.00  0.00    -0.371 N 
HETATM   25  H19 UNL     1      22.821   4.448  48.193  1.00  0.00     0.170 HD
HETATM   26  H23 UNL     1      20.906   0.501  49.380  1.00  0.00     0.161 HD
ENDROOT
BRANCH   1  27
HETATM   27  O1  UNL     1      16.822  -0.894  51.616  1.00  0.00    -0.356 OA
HETATM   28  C1  UNL     1      15.701  -0.637  52.399  1.00  0.00     0.210 C 
ENDBRANCH   1  27
TORSDOF 1
ENDMDL
MODEL 3
REMARK VINA RESULT:      -7.8      3.515      5.130
REMARK  1 active torsions:
REMARK  status: ('A' for Active; 'I' for Inactive)
REMARK    1  A    between atoms: O1_2  and  C2_3 
ROOT
HETATM    1  C2  UNL     1      27.325   6.156  48.386  1.00  0.00     0.073 A 
HETATM    2  C3  UNL     1      26.021   6.644  48.399  1.00  0.00     0.066 A 
HETATM    3  C4  UNL     1      24.998   5.820  48.878  1.00  0.00     0.034 A 
HETATM    4  C5  UNL     1      25.364   4.570  49.306  1.00  0.00     0.066 A 
HETATM    5  C6  UNL     1      26.618   4.022  49.324  1.00  0.00     0.076 A 
HETATM    6  C7  UNL     1      27.609   4.885  48.835  1.00  0.00     0.073 A 
HETATM    7  O2  UNL     1      26.884   2.743  49.779  1.00  0.00    -0.326 OA
HETATM    8  C8  UNL     1      26.532   2.282  51.078  1.00  0.00     0.345 C 
HETATM    9  O3  UNL     1      25.153   2.362  51.215  1.00  0.00    -0.358 OA
HETATM   10  C9  UNL     1      24.408   2.371  52.380  1.00  0.00     0.162 C 
HETATM   11  C10 UNL     1      23.250   2.390  51.689  1.00  0.00     0.056 C 
HETATM   12  C11 UNL     1      21.818   2.414  51.953  1.00  0.00    -0.079 C 
HETATM   13  C12 UNL     1      20.588   2.439  52.848  1.00  0.00     0.043 C 
HETATM   14  C13 UNL     1      21.394   2.413  50.671  1.00  0.00    -0.015 C 
HETATM   15  C14 UNL     1      22.022   2.391  49.316  1.00  0.00     0.042 C 
HETATM   16  C15 UNL     1      21.502   1.106  48.646  1.00  0.00     0.019 C 
HETATM   17  C16 UNL     1      21.710   3.569  48.491  1.00  0.00    -0.011 C 
HETATM   18  S1  UNL     1      21.279   4.994  49.268  1.00  0.00    -0.078 SA
HETATM   19  N1  UNL     1      20.551   5.826  47.810  1.00  0.00    -0.333 N 
HETATM   20  C17 UNL     1      21.889   5.423  47.342  1.00  0.00     0.211 A 
HETATM   21  N2  UNL     1      21.906   4.565  46.340  1.00  0.00    -0.280 NA
HETATM   22  C18 UNL     1      21.849   3.207  47.004  1.00  0.00     0.188 C 
HETATM   23  C19 UNL     1      22.319   6.307  48.453  1.00  0.00     0.214 A 
HETATM   24  N3  UNL     1      23.655   6.269  48.904  1.00  0.00    -0.371 N 
HETATM   25  H19 UNL     1      19.601   6.119  48.126  1.00  0.00     0.170 HD
HETATM   26  H23 UNL     1      23.775   6.945  49.722  1.00  0.00     0.161 HD
ENDROOT
BRANCH   1  27
HETATM   27  O1  UNL     1      28.285   7.003  47.909  1.00  0.00    -0.356 OA
HETATM   28  C1  UNL     1      29.645   6.721  47.833  1.00  0.00     0.210 C 
ENDBRANCH   1  27
TORSDOF 1
ENDMDL
MODEL 4
REMARK VINA RESULT:      -7.5      3.397      5.310
REMARK  1 active torsions:
REMARK  status: ('A' for Active; 'I' for Inactive)
REMARK    1  A    between atoms: O1_2  and  C2_3 
ROOT
HETATM    1  C2  UNL     1      25.662   7.421  49.661  1.00  0.00     0.073 A 
HETATM    2  C3  UNL     1      24.344   7.411  50.108  1.00  0.00     0.066 A 
HETATM    3  C4  UNL     1      23.726   6.182  50.360  1.00  0.00     0.034 A 
HETATM    4  C5  UNL     1      24.481   5.058  50.141  1.00  0.00     0.066 A 
HETATM    5  C6  UNL     1      25.776   4.988  49.704  1.00  0.00     0.076 A 
HETATM    6  C7  UNL     1      26.351   6.244  49.466  1.00  0.00     0.073 A 
HETATM    7  O2  UNL     1      26.453   3.796  49.515  1.00  0.00    -0.326 OA
HETATM    8  C8  UNL     1      26.615   2.814  50.532  1.00  0.00     0.345 C 
HETATM    9  O3  UNL     1      25.358   2.379  50.928  1.00  0.00    -0.358 OA
HETATM   10  C9  UNL     1      25.008   1.726  52.096  1.00  0.00     0.162 C 
HETATM   11  C10 UNL     1      23.726   1.605  51.693  1.00  0.00     0.056 C 
HETATM   12  C11 UNL     1      22.471   1.058  52.187  1.00  0.00    -0.079 C 
HETATM   13  C12 UNL     1      21.587   0.354  53.207  1.00  0.00     0.043 C 
HETATM   14  C13 UNL     1      21.701   1.373  51.124  1.00  0.00    -0.015 C 
HETATM   15  C14 UNL     1      21.890   2.043  49.802  1.00  0.00     0.042 C 
HETATM   16  C15 UNL     1      21.509   0.986  48.750  1.00  0.00     0.019 C 
HETATM   17  C16 UNL     1      21.085   3.263  49.628  1.00  0.00    -0.011 C 
HETATM   18  S1  UNL     1      20.584   4.089  51.002  1.00  0.00    -0.078 SA
HETATM   19  N1  UNL     1      19.288   5.095  50.190  1.00  0.00    -0.333 N 
HETATM   20  C17 UNL     1      20.484   5.351  49.370  1.00  0.00     0.211 A 
HETATM   21  N2  UNL     1      20.404   4.964  48.111  1.00  0.00    -0.280 NA
HETATM   22  C18 UNL     1      20.861   3.522  48.130  1.00  0.00     0.188 C 
HETATM   23  C19 UNL     1      21.004   5.871  50.658  1.00  0.00     0.214 A 
HETATM   24  N3  UNL     1      22.385   6.120  50.808  1.00  0.00    -0.371 N 
HETATM   25  H19 UNL     1      18.432   4.924  50.762  1.00  0.00     0.170 HD
HETATM   26  H23 UNL     1      22.580   6.460  51.802  1.00  0.00     0.161 HD
ENDROOT
BRANCH   1  27
HETATM   27  O1  UNL     1      26.215   8.649  49.431  1.00  0.00    -0.356 OA
HETATM   28  C1  UNL     1      27.253   9.216  50.164  1.00  0.00     0.210 C 
ENDBRANCH   1  27
TORSDOF 1
ENDMDL
MODEL 5
REMARK VINA RESULT:      -7.5      2.393      5.665
REMARK  1 active torsions:
REMARK  status: ('A' for Active; 'I' for Inactive)
REMARK    1  A    between atoms: O1_2  and  C2_3 
ROOT
HETATM    1  C2  UNL     1      20.281   0.496  51.651  1.00  0.00     0.073 A 
HETATM    2  C3  UNL     1      20.327   1.206  50.455  1.00  0.00     0.066 A 
HETATM    3  C4  UNL     1      21.400   2.075  50.228  1.00  0.00     0.034 A 
HETATM    4  C5  UNL     1      22.342   2.162  51.221  1.00  0.00     0.066 A 
HETATM    5  C6  UNL     1      22.365   1.499  52.418  1.00  0.00     0.076 A 
HETATM    6  C7  UNL     1      21.270   0.641  52.599  1.00  0.00     0.073 A 
HETATM    7  O2  UNL     1      23.367   1.657  53.358  1.00  0.00    -0.326 OA
HETATM    8  C8  UNL     1      24.747   1.450  53.078  1.00  0.00     0.345 C 
HETATM    9  O3  UNL     1      25.132   2.338  52.084  1.00  0.00    -0.358 OA
HETATM   10  C9  UNL     1      26.239   2.268  51.256  1.00  0.00     0.162 C 
HETATM   11  C10 UNL     1      25.940   3.453  50.686  1.00  0.00     0.056 C 
HETATM   12  C11 UNL     1      26.472   4.338  49.660  1.00  0.00    -0.079 C 
HETATM   13  C12 UNL     1      27.464   4.752  48.583  1.00  0.00     0.043 C 
HETATM   14  C13 UNL     1      25.538   5.309  49.753  1.00  0.00    -0.015 C 
HETATM   15  C14 UNL     1      24.313   5.569  50.567  1.00  0.00     0.042 C 
HETATM   16  C15 UNL     1      24.595   6.881  51.323  1.00  0.00     0.019 C 
HETATM   17  C16 UNL     1      23.078   5.681  49.775  1.00  0.00    -0.011 C 
HETATM   18  S1  UNL     1      23.027   4.936  48.270  1.00  0.00    -0.078 SA
HETATM   19  N1  UNL     1      21.567   5.835  47.631  1.00  0.00    -0.333 N 
HETATM   20  C17 UNL     1      21.100   5.297  48.922  1.00  0.00     0.211 A 
HETATM   21  N2  UNL     1      20.757   6.198  49.822  1.00  0.00    -0.280 NA
HETATM   22  C18 UNL     1      22.046   6.517  50.547  1.00  0.00     0.188 C 
HETATM   23  C19 UNL     1      21.413   4.006  48.262  1.00  0.00     0.214 A 
HETATM   24  N3  UNL     1      21.487   2.825  49.031  1.00  0.00    -0.371 N 
HETATM   25  H19 UNL     1      21.882   6.223  46.715  1.00  0.00     0.170 HD
HETATM   26  H23 UNL     1      21.749   2.004  48.399  1.00  0.00     0.161 HD
ENDROOT
BRANCH   1  27
HETATM   27  O1  UNL     1      19.212  -0.338  51.820  1.00  0.00    -0.356 OA
HETATM   28  C1  UNL     1      18.789  -0.872  53.033  1.00  0.00     0.210 C 
ENDBRANCH   1  27
TORSDOF 1
ENDMDL
MODEL 6
REMARK VINA RESULT:      -6.9      3.130      4.286
REMARK  1 active torsions:
REMARK  status: ('A' for Active; 'I' for Inactive)
REMARK    1  A    between atoms: O1_2  and  C2_3 
ROOT
HETATM    1  C2  UNL     1      24.062   1.887  52.531  1.00  0.00     0.073 A 
HETATM    2  C3  UNL     1      24.200   3.256  52.741  1.00  0.00     0.066 A 
HETATM    3  C4  UNL     1      23.600   4.141  51.839  1.00  0.00     0.034 A 
HETATM    4  C5  UNL     1      22.911   3.580  50.794  1.00  0.00     0.066 A 
HETATM    5  C6  UNL     1      22.733   2.251  50.521  1.00  0.00     0.076 A 
HETATM    6  C7  UNL     1      23.351   1.405  51.453  1.00  0.00     0.073 A 
HETATM    7  O2  UNL     1      22.015   1.785  49.435  1.00  0.00    -0.326 OA
HETATM    8  C8  UNL     1      20.664   2.144  49.174  1.00  0.00     0.345 C 
HETATM    9  O3  UNL     1      20.599   3.520  49.002  1.00  0.00    -0.358 OA
HETATM   10  C9  UNL     1      19.489   4.341  49.088  1.00  0.00     0.162 C 
HETATM   11  C10 UNL     1      20.212   5.425  48.741  1.00  0.00     0.056 C 
HETATM   12  C11 UNL     1      20.013   6.852  48.529  1.00  0.00    -0.079 C 
HETATM   13  C12 UNL     1      19.190   8.131  48.481  1.00  0.00     0.043 C 
HETATM   14  C13 UNL     1      21.283   7.167  48.194  1.00  0.00    -0.015 C 
HETATM   15  C14 UNL     1      22.580   6.444  48.035  1.00  0.00     0.042 C 
HETATM   16  C15 UNL     1      22.991   6.659  46.567  1.00  0.00     0.019 C 
HETATM   17  C16 UNL     1      23.641   6.906  48.944  1.00  0.00    -0.011 C 
HETATM   18  S1  UNL     1      23.190   7.657  50.378  1.00  0.00    -0.078 SA
HETATM   19  N1  UNL     1      24.815   8.413  50.749  1.00  0.00    -0.333 N 
HETATM   20  C17 UNL     1      25.138   6.990  50.538  1.00  0.00     0.211 A 
HETATM   21  N2  UNL     1      25.941   6.735  49.522  1.00  0.00    -0.280 NA
HETATM   22  C18 UNL     1      25.015   6.587  48.336  1.00  0.00     0.188 C 
HETATM   23  C19 UNL     1      24.218   6.822  51.688  1.00  0.00     0.214 A 
HETATM   24  N3  UNL     1      23.718   5.541  52.006  1.00  0.00    -0.371 N 
HETATM   25  H19 UNL     1      24.602   9.422  50.902  1.00  0.00     0.170 HD
HETATM   26  H23 UNL     1      23.053   5.614  52.838  1.00  0.00     0.161 HD
ENDROOT
BRANCH   1  27
HETATM   27  O1  UNL     1      24.667   1.070  53.443  1.00  0.00    -0.356 OA
HETATM   28  C1  UNL     1      24.858  -0.301  53.297  1.00  0.00     0.210 C 
ENDBRANCH   1  27
TORSDOF 1
ENDMDL
MODEL 7
REMARK VINA RESULT:      -6.9      3.917      7.002
REMARK  1 active torsions:
REMARK  status: ('A' for Active; 'I' for Inactive)
REMARK    1  A    between atoms: O1_2  and  C2_3 
ROOT
HETATM    1  C2  UNL     1      19.059   2.443  49.395  1.00  0.00     0.073 A 
HETATM    2  C3  UNL     1      19.586   3.168  50.460  1.00  0.00     0.066 A 
HETATM    3  C4  UNL     1      20.737   3.935  50.248  1.00  0.00     0.034 A 
HETATM    4  C5  UNL     1      21.269   3.912  48.985  1.00  0.00     0.066 A 
HETATM    5  C6  UNL     1      20.809   3.227  47.892  1.00  0.00     0.076 A 
HETATM    6  C7  UNL     1      19.655   2.474  48.153  1.00  0.00     0.073 A 
HETATM    7  O2  UNL     1      21.421   3.270  46.652  1.00  0.00    -0.326 OA
HETATM    8  C8  UNL     1      21.671   4.477  45.942  1.00  0.00     0.345 C 
HETATM    9  O3  UNL     1      22.506   5.276  46.711  1.00  0.00    -0.358 OA
HETATM   10  C9  UNL     1      22.721   6.638  46.607  1.00  0.00     0.162 C 
HETATM   11  C10 UNL     1      23.649   6.609  47.585  1.00  0.00     0.056 C 
HETATM   12  C11 UNL     1      24.529   7.533  48.287  1.00  0.00    -0.079 C 
HETATM   13  C12 UNL     1      25.122   8.901  48.590  1.00  0.00     0.043 C 
HETATM   14  C13 UNL     1      25.119   6.638  49.107  1.00  0.00    -0.015 C 
HETATM   15  C14 UNL     1      25.038   5.167  49.355  1.00  0.00     0.042 C 
HETATM   16  C15 UNL     1      26.449   4.624  49.064  1.00  0.00     0.019 C 
HETATM   17  C16 UNL     1      24.616   4.810  50.719  1.00  0.00    -0.011 C 
HETATM   18  S1  UNL     1      23.717   5.929  51.593  1.00  0.00    -0.078 SA
HETATM   19  N1  UNL     1      23.968   5.171  53.239  1.00  0.00    -0.333 N 
HETATM   20  C17 UNL     1      23.466   4.053  52.420  1.00  0.00     0.211 A 
HETATM   21  N2  UNL     1      24.297   3.039  52.274  1.00  0.00    -0.280 NA
HETATM   22  C18 UNL     1      25.131   3.405  51.066  1.00  0.00     0.188 C 
HETATM   23  C19 UNL     1      22.292   4.950  52.285  1.00  0.00     0.214 A 
HETATM   24  N3  UNL     1      21.316   4.683  51.301  1.00  0.00    -0.371 N 
HETATM   25  H19 UNL     1      24.323   5.953  53.832  1.00  0.00     0.170 HD
HETATM   26  H23 UNL     1      20.565   5.442  51.330  1.00  0.00     0.161 HD
ENDROOT
BRANCH   1  27
HETATM   27  O1  UNL     1      17.934   1.713  49.657  1.00  0.00    -0.356 OA
HETATM   28  C1  UNL     1      17.882   0.566  50.443  1.00  0.00     0.210 C 
ENDBRANCH   1  27
TORSDOF 1
ENDMDL
MODEL 8
REMARK VINA RESULT:      -6.8      5.697      7.409
REMARK  1 active torsions:
REMARK  status: ('A' for Active; 'I' for Inactive)
REMARK    1  A    between atoms: O1_2  and  C2_3 
ROOT
HETATM    1  C2  UNL     1      30.165   6.834  48.306  1.00  0.00     0.073 A 
HETATM    2  C3  UNL     1      29.409   8.003  48.340  1.00  0.00     0.066 A 
HETATM    3  C4  UNL     1      28.019   7.903  48.458  1.00  0.00     0.034 A 
HETATM    4  C5  UNL     1      27.496   6.638  48.531  1.00  0.00     0.066 A 
HETATM    5  C6  UNL     1      28.171   5.447  48.504  1.00  0.00     0.076 A 
HETATM    6  C7  UNL     1      29.560   5.598  48.385  1.00  0.00     0.073 A 
HETATM    7  O2  UNL     1      27.548   4.215  48.585  1.00  0.00    -0.326 OA
HETATM    8  C8  UNL     1      26.684   3.841  49.652  1.00  0.00     0.345 C 
HETATM    9  O3  UNL     1      25.608   4.718  49.676  1.00  0.00    -0.358 OA
HETATM   10  C9  UNL     1      24.733   4.970  50.718  1.00  0.00     0.162 C 
HETATM   11  C10 UNL     1      24.006   5.813  49.958  1.00  0.00     0.056 C 
HETATM   12  C11 UNL     1      22.825   6.656  50.082  1.00  0.00    -0.079 C 
HETATM   13  C12 UNL     1      21.645   7.265  50.826  1.00  0.00     0.043 C 
HETATM   14  C13 UNL     1      22.813   7.143  48.823  1.00  0.00    -0.015 C 
HETATM   15  C14 UNL     1      23.636   6.987  47.586  1.00  0.00     0.042 C 
HETATM   16  C15 UNL     1      22.672   6.431  46.522  1.00  0.00     0.019 C 
HETATM   17  C16 UNL     1      24.260   8.235  47.119  1.00  0.00    -0.011 C 
HETATM   18  S1  UNL     1      24.527   9.460  48.238  1.00  0.00    -0.078 SA
HETATM   19  N1  UNL     1      24.789  10.807  47.027  1.00  0.00    -0.333 N 
HETATM   20  C17 UNL     1      25.733   9.764  46.589  1.00  0.00     0.211 A 
HETATM   21  N2  UNL     1      25.516   9.271  45.385  1.00  0.00    -0.280 NA
HETATM   22  C18 UNL     1      24.540   8.137  45.611  1.00  0.00     0.188 C 
HETATM   23  C19 UNL     1      26.289   9.987  47.946  1.00  0.00     0.214 A 
HETATM   24  N3  UNL     1      27.207   9.062  48.489  1.00  0.00    -0.371 N 
HETATM   25  H19 UNL     1      24.125  11.555  47.326  1.00  0.00     0.170 HD
HETATM   26  H23 UNL     1      27.476   9.365  49.476  1.00  0.00     0.161 HD
ENDROOT
BRANCH   1  27
HETATM   27  O1  UNL     1      31.517   6.990  48.191  1.00  0.00    -0.356 OA
HETATM   28  C1  UNL     1      32.240   8.102  48.610  1.00  0.00     0.210 C 
ENDBRANCH   1  27
TORSDOF 1
ENDMDL
MODEL 9
REMARK VINA RESULT:      -6.7      2.938      4.639
REMARK  1 active torsions:
REMARK  status: ('A' for Active; 'I' for Inactive)
REMARK    1  A    between atoms: O1_2  and  C2_3 
ROOT
HETATM    1  C2  UNL     1      20.366  -0.094  52.974  1.00  0.00     0.073 A 
HETATM    2  C3  UNL     1      21.227   0.966  53.242  1.00  0.00     0.066 A 
HETATM    3  C4  UNL     1      21.203   2.082  52.399  1.00  0.00     0.034 A 
HETATM    4  C5  UNL     1      20.318   2.046  51.353  1.00  0.00     0.066 A 
HETATM    5  C6  UNL     1      19.444   1.044  51.027  1.00  0.00     0.076 A 
HETATM    6  C7  UNL     1      19.504  -0.052  51.900  1.00  0.00     0.073 A 
HETATM    7  O2  UNL     1      18.586   1.104  49.944  1.00  0.00    -0.326 OA
HETATM    8  C8  UNL     1      17.647   2.154  49.743  1.00  0.00     0.345 C 
HETATM    9  O3  UNL     1      18.341   3.351  49.636  1.00  0.00    -0.358 OA
HETATM   10  C9  UNL     1      17.858   4.637  49.794  1.00  0.00     0.162 C 
HETATM   11  C10 UNL     1      19.054   5.171  49.473  1.00  0.00     0.056 C 
HETATM   12  C11 UNL     1      19.663   6.486  49.333  1.00  0.00    -0.079 C 
HETATM   13  C12 UNL     1      19.669   8.007  49.369  1.00  0.00     0.043 C 
HETATM   14  C13 UNL     1      20.899   6.079  48.972  1.00  0.00    -0.015 C 
HETATM   15  C14 UNL     1      21.592   4.777  48.739  1.00  0.00     0.042 C 
HETATM   16  C15 UNL     1      22.051   4.815  47.270  1.00  0.00     0.019 C 
HETATM   17  C16 UNL     1      22.736   4.537  49.633  1.00  0.00    -0.011 C 
HETATM   18  S1  UNL     1      22.770   5.332  51.113  1.00  0.00    -0.078 SA
HETATM   19  N1  UNL     1      24.545   5.061  51.465  1.00  0.00    -0.333 N 
HETATM   20  C17 UNL     1      24.042   3.705  51.179  1.00  0.00     0.211 A 
HETATM   21  N2  UNL     1      24.574   3.111  50.129  1.00  0.00    -0.280 NA
HETATM   22  C18 UNL     1      23.713   3.556  48.967  1.00  0.00     0.188 C 
HETATM   23  C19 UNL     1      23.181   4.001  52.351  1.00  0.00     0.214 A 
HETATM   24  N3  UNL     1      22.065   3.182  52.626  1.00  0.00    -0.371 N 
HETATM   25  H19 UNL     1      24.917   6.014  51.670  1.00  0.00     0.170 HD
HETATM   26  H23 UNL     1      21.549   3.559  53.482  1.00  0.00     0.161 HD
ENDROOT
BRANCH   1  27
HETATM   27  O1  UNL     1      20.430  -1.158  53.829  1.00  0.00    -0.356 OA
HETATM   28  C1  UNL     1      21.542  -1.522  54.582  1.00  0.00     0.210 C 
ENDBRANCH   1  27
TORSDOF 1
ENDMDL
