MODEL 1
REMARK VINA RESULT:      -8.1      0.000      0.000
REMARK  5 active torsions:
REMARK  status: ('A' for Active; 'I' for Inactive)
REMARK    1  A    between atoms: O1_2  and  C2_3 
REMARK    2  A    between atoms: C5_6  and  O2_7 
REMARK    3  A    between atoms: O2_7  and  C6_8 
REMARK    4  A    between atoms: C6_8  and  C7_9 
REMARK    5  A    between atoms: C16_21  and  O3_22 
ROOT
HETATM    1  C2  UNL     1      26.580   1.525  54.030  1.00  0.00     0.104 A 
HETATM    2  C3  UNL     1      25.498   2.131  53.427  1.00  0.00     0.058 A 
HETATM    3  C4  UNL     1      24.348   1.418  53.140  1.00  0.00     0.048 A 
HETATM    4  C5  UNL     1      23.225   1.975  52.532  1.00  0.00     0.178 A 
HETATM    5  N1  UNL     1      22.179   1.160  52.314  1.00  0.00    -0.217 NA
HETATM    6  C13 UNL     1      22.186  -0.141  52.655  1.00  0.00     0.236 A 
HETATM    7  N2  UNL     1      23.280  -0.695  53.249  1.00  0.00    -0.241 NA
HETATM    8  C14 UNL     1      24.362   0.077  53.493  1.00  0.00     0.075 A 
HETATM    9  C15 UNL     1      25.425  -0.563  54.097  1.00  0.00     0.074 A 
HETATM   10  C16 UNL     1      26.556   0.179  54.370  1.00  0.00     0.127 A 
ENDROOT
BRANCH   4  11
HETATM   11  O2  UNL     1      23.366   3.302  52.246  1.00  0.00    -0.329 OA
BRANCH  11  12
HETATM   12  C6  UNL     1      23.294   3.941  51.015  1.00  0.00     0.216 C 
BRANCH  12  13
HETATM   13  C7  UNL     1      24.566   4.158  50.324  1.00  0.00    -0.033 A 
HETATM   14  C8  UNL     1      25.499   3.192  50.025  1.00  0.00     0.009 A 
HETATM   15  C9  UNL     1      26.691   3.412  49.373  1.00  0.00     0.002 A 
HETATM   16  C10 UNL     1      27.010   4.708  48.969  1.00  0.00     0.019 A 
HETATM   17  C11 UNL     1      26.091   5.685  49.258  1.00  0.00     0.011 A 
HETATM   18 BR1  UNL     1      26.579   7.442  48.683  1.00  0.00    -0.051 Br
HETATM   19  C12 UNL     1      24.899   5.434  49.916  1.00  0.00     0.028 A 
ENDBRANCH  12  13
ENDBRANCH  11  12
ENDBRANCH   4  11
BRANCH   1  20
HETATM   20  O1  UNL     1      27.738   2.250  54.318  1.00  0.00    -0.353 OA
HETATM   21  C1  UNL     1      28.597   2.531  53.218  1.00  0.00     0.210 C 
ENDBRANCH   1  20
BRANCH  10  22
HETATM   22  O3  UNL     1      27.638  -0.438  54.974  1.00  0.00    -0.238 OA
HETATM   23 CL1  UNL     1      29.017  -0.872  54.029  1.00  0.00     0.067 Cl
ENDBRANCH  10  22
TORSDOF 5
ENDMDL
MODEL 2
REMARK VINA RESULT:      -7.9      3.376      5.642
REMARK  5 active torsions:
REMARK  status: ('A' for Active; 'I' for Inactive)
REMARK    1  A    between atoms: O1_2  and  C2_3 
REMARK    2  A    between atoms: C5_6  and  O2_7 
REMARK    3  A    between atoms: O2_7  and  C6_8 
REMARK    4  A    between atoms: C6_8  and  C7_9 
REMARK    5  A    between atoms: C16_21  and  O3_22 
ROOT
HETATM    1  C2  UNL     1      26.023   0.002  54.208  1.00  0.00     0.104 A 
HETATM    2  C3  UNL     1      25.046   0.631  53.465  1.00  0.00     0.058 A 
HETATM    3  C4  UNL     1      25.375   1.525  52.462  1.00  0.00     0.048 A 
HETATM    4  C5  UNL     1      24.433   2.190  51.680  1.00  0.00     0.178 A 
HETATM    5  N1  UNL     1      24.900   3.031  50.742  1.00  0.00    -0.217 NA
HETATM    6  C13 UNL     1      26.213   3.245  50.543  1.00  0.00     0.236 A 
HETATM    7  N2  UNL     1      27.142   2.600  51.303  1.00  0.00    -0.241 NA
HETATM    8  C14 UNL     1      26.730   1.741  52.263  1.00  0.00     0.075 A 
HETATM    9  C15 UNL     1      27.735   1.131  52.985  1.00  0.00     0.074 A 
HETATM   10  C16 UNL     1      27.372   0.244  53.977  1.00  0.00     0.127 A 
ENDROOT
BRANCH   4  11
HETATM   11  O2  UNL     1      23.144   1.872  51.998  1.00  0.00    -0.329 OA
BRANCH  11  12
HETATM   12  C6  UNL     1      22.190   1.223  51.226  1.00  0.00     0.216 C 
BRANCH  12  13
HETATM   13  C7  UNL     1      21.166   0.474  51.957  1.00  0.00    -0.033 A 
HETATM   14  C8  UNL     1      21.355  -0.218  53.130  1.00  0.00     0.009 A 
HETATM   15  C9  UNL     1      20.382  -0.918  53.807  1.00  0.00     0.002 A 
HETATM   16  C10 UNL     1      19.088  -0.947  53.287  1.00  0.00     0.019 A 
HETATM   17  C11 UNL     1      18.881  -0.262  52.116  1.00  0.00     0.011 A 
HETATM   18 BR1  UNL     1      17.090  -0.338  51.449  1.00  0.00    -0.051 Br
HETATM   19  C12 UNL     1      19.880   0.433  51.458  1.00  0.00     0.028 A 
ENDBRANCH  12  13
ENDBRANCH  11  12
ENDBRANCH   4  11
BRANCH   1  20
HETATM   20  O1  UNL     1      25.686  -0.900  55.218  1.00  0.00    -0.353 OA
HETATM   21  C1  UNL     1      24.306  -1.234  55.332  1.00  0.00     0.210 C 
ENDBRANCH   1  20
BRANCH  10  22
HETATM   22  O3  UNL     1      28.359  -0.381  54.719  1.00  0.00    -0.238 OA
HETATM   23 CL1  UNL     1      29.782  -0.967  53.933  1.00  0.00     0.067 Cl
ENDBRANCH  10  22
TORSDOF 5
ENDMDL
MODEL 3
REMARK VINA RESULT:      -7.6      2.208      3.110
REMARK  5 active torsions:
REMARK  status: ('A' for Active; 'I' for Inactive)
REMARK    1  A    between atoms: O1_2  and  C2_3 
REMARK    2  A    between atoms: C5_6  and  O2_7 
REMARK    3  A    between atoms: O2_7  and  C6_8 
REMARK    4  A    between atoms: C6_8  and  C7_9 
REMARK    5  A    between atoms: C16_21  and  O3_22 
ROOT
HETATM    1  C2  UNL     1      26.816   1.614  52.574  1.00  0.00     0.104 A 
HETATM    2  C3  UNL     1      25.449   1.434  52.591  1.00  0.00     0.058 A 
HETATM    3  C4  UNL     1      24.858   0.521  53.445  1.00  0.00     0.048 A 
HETATM    4  C5  UNL     1      23.485   0.297  53.507  1.00  0.00     0.178 A 
HETATM    5  N1  UNL     1      23.053  -0.623  54.387  1.00  0.00    -0.217 NA
HETATM    6  C13 UNL     1      23.887  -1.314  55.186  1.00  0.00     0.236 A 
HETATM    7  N2  UNL     1      25.231  -1.102  55.133  1.00  0.00    -0.241 NA
HETATM    8  C14 UNL     1      25.723  -0.188  54.266  1.00  0.00     0.075 A 
HETATM    9  C15 UNL     1      27.094  -0.036  54.277  1.00  0.00     0.074 A 
HETATM   10  C16 UNL     1      27.650   0.885  53.413  1.00  0.00     0.127 A 
ENDROOT
BRANCH   4  11
HETATM   11  O2  UNL     1      22.770   1.070  52.639  1.00  0.00    -0.329 OA
BRANCH  11  12
HETATM   12  C6  UNL     1      21.907   0.673  51.625  1.00  0.00     0.216 C 
BRANCH  12  13
HETATM   13  C7  UNL     1      22.052   1.367  50.345  1.00  0.00    -0.033 A 
HETATM   14  C8  UNL     1      21.544   0.949  49.137  1.00  0.00     0.009 A 
HETATM   15  C9  UNL     1      21.688   1.613  47.940  1.00  0.00     0.002 A 
HETATM   16  C10 UNL     1      22.402   2.811  47.915  1.00  0.00     0.019 A 
HETATM   17  C11 UNL     1      22.916   3.244  49.111  1.00  0.00     0.011 A 
HETATM   18 BR1  UNL     1      23.886   4.890  49.018  1.00  0.00    -0.051 Br
HETATM   19  C12 UNL     1      22.755   2.554  50.300  1.00  0.00     0.028 A 
ENDBRANCH  12  13
ENDBRANCH  11  12
ENDBRANCH   4  11
BRANCH   1  20
HETATM   20  O1  UNL     1      27.407   2.538  51.710  1.00  0.00    -0.353 OA
HETATM   21  C1  UNL     1      26.601   2.996  50.629  1.00  0.00     0.210 C 
ENDBRANCH   1  20
BRANCH  10  22
HETATM   22  O3  UNL     1      29.023   1.057  53.402  1.00  0.00    -0.238 OA
HETATM   23 CL1  UNL     1      30.062  -0.319  53.504  1.00  0.00     0.067 Cl
ENDBRANCH  10  22
TORSDOF 5
ENDMDL
MODEL 4
REMARK VINA RESULT:      -7.5      2.765      4.104
REMARK  5 active torsions:
REMARK  status: ('A' for Active; 'I' for Inactive)
REMARK    1  A    between atoms: O1_2  and  C2_3 
REMARK    2  A    between atoms: C5_6  and  O2_7 
REMARK    3  A    between atoms: O2_7  and  C6_8 
REMARK    4  A    between atoms: C6_8  and  C7_9 
REMARK    5  A    between atoms: C16_21  and  O3_22 
ROOT
HETATM    1  C2  UNL     1      23.324   0.853  52.452  1.00  0.00     0.104 A 
HETATM    2  C3  UNL     1      24.285   1.660  51.880  1.00  0.00     0.058 A 
HETATM    3  C4  UNL     1      25.591   1.648  52.334  1.00  0.00     0.048 A 
HETATM    4  C5  UNL     1      26.603   2.439  51.796  1.00  0.00     0.178 A 
HETATM    5  N1  UNL     1      27.827   2.322  52.340  1.00  0.00    -0.217 NA
HETATM    6  C13 UNL     1      28.093   1.486  53.360  1.00  0.00     0.236 A 
HETATM    7  N2  UNL     1      27.111   0.708  53.892  1.00  0.00    -0.241 NA
HETATM    8  C14 UNL     1      25.859   0.784  53.386  1.00  0.00     0.075 A 
HETATM    9  C15 UNL     1      24.925  -0.037  53.982  1.00  0.00     0.074 A 
HETATM   10  C16 UNL     1      23.632  -0.001  53.504  1.00  0.00     0.127 A 
ENDROOT
BRANCH   4  11
HETATM   11  O2  UNL     1      26.182   3.234  50.770  1.00  0.00    -0.329 OA
BRANCH  11  12
HETATM   12  C6  UNL     1      26.691   3.339  49.482  1.00  0.00     0.216 C 
BRANCH  12  13
HETATM   13  C7  UNL     1      26.873   4.697  48.968  1.00  0.00    -0.033 A 
HETATM   14  C8  UNL     1      25.888   5.648  48.828  1.00  0.00     0.009 A 
HETATM   15  C9  UNL     1      26.075   6.922  48.343  1.00  0.00     0.002 A 
HETATM   16  C10 UNL     1      27.355   7.314  47.952  1.00  0.00     0.019 A 
HETATM   17  C11 UNL     1      28.351   6.379  48.084  1.00  0.00     0.011 A 
HETATM   18 BR1  UNL     1      30.083   6.969  47.531  1.00  0.00    -0.051 Br
HETATM   19  C12 UNL     1      28.132   5.104  48.575  1.00  0.00     0.028 A 
ENDBRANCH  12  13
ENDBRANCH  11  12
ENDBRANCH   4  11
BRANCH   1  20
HETATM   20  O1  UNL     1      22.007   0.868  51.989  1.00  0.00    -0.353 OA
HETATM   21  C1  UNL     1      21.834   0.951  50.578  1.00  0.00     0.210 C 
ENDBRANCH   1  20
BRANCH  10  22
HETATM   22  O3  UNL     1      22.674  -0.813  54.085  1.00  0.00    -0.238 OA
HETATM   23 CL1  UNL     1      23.008  -1.594  55.589  1.00  0.00     0.067 Cl
ENDBRANCH  10  22
TORSDOF 5
ENDMDL
MODEL 5
REMARK VINA RESULT:      -7.4      3.681      5.531
REMARK  5 active torsions:
REMARK  status: ('A' for Active; 'I' for Inactive)
REMARK    1  A    between atoms: O1_2  and  C2_3 
REMARK    2  A    between atoms: C5_6  and  O2_7 
REMARK    3  A    between atoms: O2_7  and  C6_8 
REMARK    4  A    between atoms: C6_8  and  C7_9 
REMARK    5  A    between atoms: C16_21  and  O3_22 
ROOT
HETATM    1  C2  UNL     1      26.700   1.733  52.326  1.00  0.00     0.104 A 
HETATM    2  C3  UNL     1      25.348   1.462  52.363  1.00  0.00     0.058 A 
HETATM    3  C4  UNL     1      24.828   0.540  53.253  1.00  0.00     0.048 A 
HETATM    4  C5  UNL     1      23.473   0.225  53.336  1.00  0.00     0.178 A 
HETATM    5  N1  UNL     1      23.112  -0.691  54.250  1.00  0.00    -0.217 NA
HETATM    6  C13 UNL     1      23.997  -1.296  55.063  1.00  0.00     0.236 A 
HETATM    7  N2  UNL     1      25.323  -0.995  54.991  1.00  0.00    -0.241 NA
HETATM    8  C14 UNL     1      25.745  -0.080  54.089  1.00  0.00     0.075 A 
HETATM    9  C15 UNL     1      27.103   0.165  54.081  1.00  0.00     0.074 A 
HETATM   10  C16 UNL     1      27.588   1.091  53.181  1.00  0.00     0.127 A 
ENDROOT
BRANCH   4  11
HETATM   11  O2  UNL     1      22.701   0.918  52.449  1.00  0.00    -0.329 OA
BRANCH  11  12
HETATM   12  C6  UNL     1      21.512   1.599  52.674  1.00  0.00     0.216 C 
BRANCH  12  13
HETATM   13  C7  UNL     1      20.312   1.023  52.067  1.00  0.00    -0.033 A 
HETATM   14  C8  UNL     1      19.814   1.320  50.819  1.00  0.00     0.009 A 
HETATM   15  C9  UNL     1      18.683   0.769  50.261  1.00  0.00     0.002 A 
HETATM   16  C10 UNL     1      17.960  -0.172  50.994  1.00  0.00     0.019 A 
HETATM   17  C11 UNL     1      18.442  -0.481  52.242  1.00  0.00     0.011 A 
HETATM   18 BR1  UNL     1      17.411  -1.774  53.201  1.00  0.00    -0.051 Br
HETATM   19  C12 UNL     1      19.583   0.090  52.776  1.00  0.00     0.028 A 
ENDBRANCH  12  13
ENDBRANCH  11  12
ENDBRANCH   4  11
BRANCH   1  20
HETATM   20  O1  UNL     1      27.220   2.664  51.426  1.00  0.00    -0.353 OA
HETATM   21  C1  UNL     1      26.441   2.920  50.261  1.00  0.00     0.210 C 
ENDBRANCH   1  20
BRANCH  10  22
HETATM   22  O3  UNL     1      28.946   1.356  53.151  1.00  0.00    -0.238 OA
HETATM   23 CL1  UNL     1      30.075   0.091  53.483  1.00  0.00     0.067 Cl
ENDBRANCH  10  22
TORSDOF 5
ENDMDL
MODEL 6
REMARK VINA RESULT:      -7.3      2.168      2.907
REMARK  5 active torsions:
REMARK  status: ('A' for Active; 'I' for Inactive)
REMARK    1  A    between atoms: O1_2  and  C2_3 
REMARK    2  A    between atoms: C5_6  and  O2_7 
REMARK    3  A    between atoms: O2_7  and  C6_8 
REMARK    4  A    between atoms: C6_8  and  C7_9 
REMARK    5  A    between atoms: C16_21  and  O3_22 
ROOT
HETATM    1  C2  UNL     1      26.065   0.541  53.606  1.00  0.00     0.104 A 
HETATM    2  C3  UNL     1      26.021   1.492  52.608  1.00  0.00     0.058 A 
HETATM    3  C4  UNL     1      24.858   1.731  51.899  1.00  0.00     0.048 A 
HETATM    4  C5  UNL     1      24.753   2.677  50.882  1.00  0.00     0.178 A 
HETATM    5  N1  UNL     1      23.558   2.800  50.281  1.00  0.00    -0.217 NA
HETATM    6  C13 UNL     1      22.491   2.057  50.622  1.00  0.00     0.236 A 
HETATM    7  N2  UNL     1      22.582   1.129  51.616  1.00  0.00    -0.241 NA
HETATM    8  C14 UNL     1      23.761   0.961  52.256  1.00  0.00     0.075 A 
HETATM    9  C15 UNL     1      23.767   0.002  53.248  1.00  0.00     0.074 A 
HETATM   10  C16 UNL     1      24.944  -0.211  53.936  1.00  0.00     0.127 A 
ENDROOT
BRANCH   4  11
HETATM   11  O2  UNL     1      25.917   3.352  50.649  1.00  0.00    -0.329 OA
BRANCH  11  12
HETATM   12  C6  UNL     1      26.665   3.422  49.481  1.00  0.00     0.216 C 
BRANCH  12  13
HETATM   13  C7  UNL     1      26.876   4.761  48.928  1.00  0.00    -0.033 A 
HETATM   14  C8  UNL     1      25.916   5.735  48.779  1.00  0.00     0.009 A 
HETATM   15  C9  UNL     1      26.130   6.991  48.258  1.00  0.00     0.002 A 
HETATM   16  C10 UNL     1      27.414   7.336  47.837  1.00  0.00     0.019 A 
HETATM   17  C11 UNL     1      28.386   6.377  47.978  1.00  0.00     0.011 A 
HETATM   18 BR1  UNL     1      30.125   6.903  47.384  1.00  0.00    -0.051 Br
HETATM   19  C12 UNL     1      28.140   5.121  48.506  1.00  0.00     0.028 A 
ENDBRANCH  12  13
ENDBRANCH  11  12
ENDBRANCH   4  11
BRANCH   1  20
HETATM   20  O1  UNL     1      27.241   0.303  54.319  1.00  0.00    -0.353 OA
HETATM   21  C1  UNL     1      28.254  -0.432  53.638  1.00  0.00     0.210 C 
ENDBRANCH   1  20
BRANCH  10  22
HETATM   22  O3  UNL     1      24.979  -1.168  54.935  1.00  0.00    -0.238 OA
HETATM   23 CL1  UNL     1      23.532  -1.573  55.788  1.00  0.00     0.067 Cl
ENDBRANCH  10  22
TORSDOF 5
ENDMDL
MODEL 7
REMARK VINA RESULT:      -7.3      2.182      2.541
REMARK  5 active torsions:
REMARK  status: ('A' for Active; 'I' for Inactive)
REMARK    1  A    between atoms: O1_2  and  C2_3 
REMARK    2  A    between atoms: C5_6  and  O2_7 
REMARK    3  A    between atoms: O2_7  and  C6_8 
REMARK    4  A    between atoms: C6_8  and  C7_9 
REMARK    5  A    between atoms: C16_21  and  O3_22 
ROOT
HETATM    1  C2  UNL     1      26.504   1.566  54.005  1.00  0.00     0.104 A 
HETATM    2  C3  UNL     1      25.404   2.120  53.384  1.00  0.00     0.058 A 
HETATM    3  C4  UNL     1      24.280   1.362  53.110  1.00  0.00     0.048 A 
HETATM    4  C5  UNL     1      23.141   1.866  52.487  1.00  0.00     0.178 A 
HETATM    5  N1  UNL     1      22.124   1.011  52.285  1.00  0.00    -0.217 NA
HETATM    6  C13 UNL     1      22.174  -0.281  52.656  1.00  0.00     0.236 A 
HETATM    7  N2  UNL     1      23.283  -0.784  53.267  1.00  0.00    -0.241 NA
HETATM    8  C14 UNL     1      24.338   0.030  53.496  1.00  0.00     0.075 A 
HETATM    9  C15 UNL     1      25.420  -0.558  54.118  1.00  0.00     0.074 A 
HETATM   10  C16 UNL     1      26.524   0.227  54.376  1.00  0.00     0.127 A 
ENDROOT
BRANCH   4  11
HETATM   11  O2  UNL     1      23.239   3.190  52.170  1.00  0.00    -0.329 OA
BRANCH  11  12
HETATM   12  C6  UNL     1      22.263   4.176  52.231  1.00  0.00     0.216 C 
BRANCH  12  13
HETATM   13  C7  UNL     1      22.596   5.455  51.603  1.00  0.00    -0.033 A 
HETATM   14  C8  UNL     1      23.856   5.992  51.482  1.00  0.00     0.009 A 
HETATM   15  C9  UNL     1      24.154   7.198  50.887  1.00  0.00     0.002 A 
HETATM   16  C10 UNL     1      23.116   7.962  50.356  1.00  0.00     0.019 A 
HETATM   17  C11 UNL     1      21.850   7.442  50.468  1.00  0.00     0.011 A 
HETATM   18 BR1  UNL     1      20.467   8.531  49.723  1.00  0.00    -0.051 Br
HETATM   19  C12 UNL     1      21.582   6.226  51.071  1.00  0.00     0.028 A 
ENDBRANCH  12  13
ENDBRANCH  11  12
ENDBRANCH   4  11
BRANCH   1  20
HETATM   20  O1  UNL     1      27.636   2.335  54.279  1.00  0.00    -0.353 OA
HETATM   21  C1  UNL     1      28.558   2.508  53.207  1.00  0.00     0.210 C 
ENDBRANCH   1  20
BRANCH  10  22
HETATM   22  O3  UNL     1      27.624  -0.338  54.998  1.00  0.00    -0.238 OA
HETATM   23 CL1  UNL     1      28.986  -0.828  54.055  1.00  0.00     0.067 Cl
ENDBRANCH  10  22
TORSDOF 5
ENDMDL
MODEL 8
REMARK VINA RESULT:      -7.1      1.717      2.201
REMARK  5 active torsions:
REMARK  status: ('A' for Active; 'I' for Inactive)
REMARK    1  A    between atoms: O1_2  and  C2_3 
REMARK    2  A    between atoms: C5_6  and  O2_7 
REMARK    3  A    between atoms: O2_7  and  C6_8 
REMARK    4  A    between atoms: C6_8  and  C7_9 
REMARK    5  A    between atoms: C16_21  and  O3_22 
ROOT
HETATM    1  C2  UNL     1      25.514   0.649  52.476  1.00  0.00     0.104 A 
HETATM    2  C3  UNL     1      24.443   1.446  52.131  1.00  0.00     0.058 A 
HETATM    3  C4  UNL     1      23.177   1.197  52.629  1.00  0.00     0.048 A 
HETATM    4  C5  UNL     1      22.058   1.967  52.317  1.00  0.00     0.178 A 
HETATM    5  N1  UNL     1      20.890   1.605  52.875  1.00  0.00    -0.217 NA
HETATM    6  C13 UNL     1      20.775   0.551  53.703  1.00  0.00     0.236 A 
HETATM    7  N2  UNL     1      21.862  -0.208  54.014  1.00  0.00    -0.241 NA
HETATM    8  C14 UNL     1      23.064   0.108  53.481  1.00  0.00     0.075 A 
HETATM    9  C15 UNL     1      24.111  -0.711  53.849  1.00  0.00     0.074 A 
HETATM   10  C16 UNL     1      25.361  -0.433  53.334  1.00  0.00     0.127 A 
ENDROOT
BRANCH   4  11
HETATM   11  O2  UNL     1      22.332   2.999  51.467  1.00  0.00    -0.329 OA
BRANCH  11  12
HETATM   12  C6  UNL     1      22.279   4.365  51.709  1.00  0.00     0.216 C 
BRANCH  12  13
HETATM   13  C7  UNL     1      23.379   5.162  51.164  1.00  0.00    -0.033 A 
HETATM   14  C8  UNL     1      23.480   6.533  51.201  1.00  0.00     0.009 A 
HETATM   15  C9  UNL     1      24.523   7.268  50.685  1.00  0.00     0.002 A 
HETATM   16  C10 UNL     1      25.579   6.599  50.067  1.00  0.00     0.019 A 
HETATM   17  C11 UNL     1      25.495   5.230  50.020  1.00  0.00     0.011 A 
HETATM   18 BR1  UNL     1      26.969   4.365  49.162  1.00  0.00    -0.051 Br
HETATM   19  C12 UNL     1      24.434   4.517  50.549  1.00  0.00     0.028 A 
ENDBRANCH  12  13
ENDBRANCH  11  12
ENDBRANCH   4  11
BRANCH   1  20
HETATM   20  O1  UNL     1      26.790   0.905  51.971  1.00  0.00    -0.353 OA
HETATM   21  C1  UNL     1      27.478   2.020  52.531  1.00  0.00     0.210 C 
ENDBRANCH   1  20
BRANCH  10  22
HETATM   22  O3  UNL     1      26.430  -1.240  53.685  1.00  0.00    -0.238 OA
HETATM   23 CL1  UNL     1      27.092  -2.338  52.528  1.00  0.00     0.067 Cl
ENDBRANCH  10  22
TORSDOF 5
ENDMDL
MODEL 9
REMARK VINA RESULT:      -7.0      3.124      4.324
REMARK  5 active torsions:
REMARK  status: ('A' for Active; 'I' for Inactive)
REMARK    1  A    between atoms: O1_2  and  C2_3 
REMARK    2  A    between atoms: C5_6  and  O2_7 
REMARK    3  A    between atoms: O2_7  and  C6_8 
REMARK    4  A    between atoms: C6_8  and  C7_9 
REMARK    5  A    between atoms: C16_21  and  O3_22 
ROOT
HETATM    1  C2  UNL     1      22.598   0.385  53.185  1.00  0.00     0.104 A 
HETATM    2  C3  UNL     1      23.693   0.831  52.476  1.00  0.00     0.058 A 
HETATM    3  C4  UNL     1      24.974   0.434  52.816  1.00  0.00     0.048 A 
HETATM    4  C5  UNL     1      26.117   0.851  52.138  1.00  0.00     0.178 A 
HETATM    5  N1  UNL     1      27.297   0.383  52.581  1.00  0.00    -0.217 NA
HETATM    6  C13 UNL     1      27.401  -0.451  53.631  1.00  0.00     0.236 A 
HETATM    7  N2  UNL     1      26.290  -0.865  54.300  1.00  0.00    -0.241 NA
HETATM    8  C14 UNL     1      25.075  -0.426  53.899  1.00  0.00     0.075 A 
HETATM    9  C15 UNL     1      24.003  -0.893  54.632  1.00  0.00     0.074 A 
HETATM   10  C16 UNL     1      22.739  -0.477  54.265  1.00  0.00     0.127 A 
ENDROOT
BRANCH   4  11
HETATM   11  O2  UNL     1      25.853   1.694  51.098  1.00  0.00    -0.329 OA
BRANCH  11  12
HETATM   12  C6  UNL     1      26.502   2.868  50.740  1.00  0.00     0.216 C 
BRANCH  12  13
HETATM   13  C7  UNL     1      25.722   3.825  49.954  1.00  0.00    -0.033 A 
HETATM   14  C8  UNL     1      26.157   5.053  49.511  1.00  0.00     0.009 A 
HETATM   15  C9  UNL     1      25.411   5.942  48.772  1.00  0.00     0.002 A 
HETATM   16  C10 UNL     1      24.103   5.602  48.427  1.00  0.00     0.019 A 
HETATM   17  C11 UNL     1      23.651   4.380  48.860  1.00  0.00     0.011 A 
HETATM   18 BR1  UNL     1      21.853   3.966  48.360  1.00  0.00    -0.051 Br
HETATM   19  C12 UNL     1      24.425   3.506  49.603  1.00  0.00     0.028 A 
ENDBRANCH  12  13
ENDBRANCH  11  12
ENDBRANCH   4  11
BRANCH   1  20
HETATM   20  O1  UNL     1      21.307   0.788  52.838  1.00  0.00    -0.353 OA
HETATM   21  C1  UNL     1      20.991   0.766  51.449  1.00  0.00     0.210 C 
ENDBRANCH   1  20
BRANCH  10  22
HETATM   22  O3  UNL     1      21.646  -0.929  54.984  1.00  0.00    -0.238 OA
HETATM   23 CL1  UNL     1      20.505  -1.988  54.235  1.00  0.00     0.067 Cl
ENDBRANCH  10  22
TORSDOF 5
ENDMDL
