MODEL 1
REMARK VINA RESULT:      -8.7      0.000      0.000
REMARK  6 active torsions:
REMARK  status: ('A' for Active; 'I' for Inactive)
REMARK    1  A    between atoms: C5_5  and  C6_6 
REMARK    2  A    between atoms: C7_7  and  C8_8 
REMARK    3  A    between atoms: C8_8  and  C10_14 
REMARK    4  A    between atoms: N1_9  and  N2_10 
REMARK    5  A    between atoms: N2_10  and  C9_11 
REMARK    6  A    between atoms: C9_11  and  N3_12 
ROOT
HETATM    1  C8  UNL     1      26.420   0.934  52.704  1.00  0.00     0.081 C 
HETATM    2  N1  UNL     1      26.568   2.164  52.232  1.00  0.00    -0.194 NA
ENDROOT
BRANCH   1   3
HETATM    3  C7  UNL     1      25.025   0.601  52.798  1.00  0.00     0.034 C 
HETATM    4  C6  UNL     1      24.113  -0.093  53.430  1.00  0.00     0.014 C 
BRANCH   4   5
HETATM    5  C5  UNL     1      22.679  -0.292  53.357  1.00  0.00    -0.036 A 
HETATM    6  C4  UNL     1      21.987   0.348  52.347  1.00  0.00     0.012 A 
HETATM    7  C3  UNL     1      20.624   0.172  52.259  1.00  0.00     0.007 A 
HETATM    8  C2  UNL     1      20.026  -0.644  53.197  1.00  0.00    -0.062 A 
HETATM    9  C1  UNL     1      18.564  -0.881  53.168  1.00  0.00     0.048 C 
HETATM   10  C17 UNL     1      20.753  -1.258  54.181  1.00  0.00     0.007 A 
HETATM   11  C16 UNL     1      22.115  -1.108  54.305  1.00  0.00     0.012 A 
ENDBRANCH   4   5
ENDBRANCH   1   3
BRANCH   1  12
HETATM   12  C10 UNL     1      27.639   0.217  53.010  1.00  0.00    -0.006 A 
HETATM   13  C11 UNL     1      28.856   0.714  53.403  1.00  0.00     0.014 A 
HETATM   14  C12 UNL     1      29.987  -0.014  53.683  1.00  0.00     0.001 A 
HETATM   15  C13 UNL     1      29.882  -1.378  53.555  1.00  0.00     0.000 A 
HETATM   16  C14 UNL     1      28.708  -1.977  53.167  1.00  0.00     0.001 A 
HETATM   17  C15 UNL     1      27.642  -1.155  52.913  1.00  0.00     0.014 A 
ENDBRANCH   1  12
BRANCH   2  18
HETATM   18  N2  UNL     1      25.397   2.838  51.942  1.00  0.00    -0.157 NA
HETATM   19  H8  UNL     1      26.186   2.906  51.255  1.00  0.00     0.157 HD
BRANCH  18  20
HETATM   20  C9  UNL     1      24.868   3.652  50.936  1.00  0.00     0.163 C 
HETATM   21  S1  UNL     1      23.791   4.305  49.900  1.00  0.00    -0.046 SA
BRANCH  20  22
HETATM   22  N3  UNL     1      25.972   4.452  50.527  1.00  0.00    -0.380 N 
HETATM   23  H9  UNL     1      26.772   5.087  50.331  1.00  0.00     0.158 HD
HETATM   24  H10 UNL     1      26.361   5.179  51.195  1.00  0.00     0.158 HD
ENDBRANCH  20  22
ENDBRANCH  18  20
ENDBRANCH   2  18
TORSDOF 6
ENDMDL
MODEL 2
REMARK VINA RESULT:      -8.7      1.158      1.585
REMARK  6 active torsions:
REMARK  status: ('A' for Active; 'I' for Inactive)
REMARK    1  A    between atoms: C5_5  and  C6_6 
REMARK    2  A    between atoms: C7_7  and  C8_8 
REMARK    3  A    between atoms: C8_8  and  C10_14 
REMARK    4  A    between atoms: N1_9  and  N2_10 
REMARK    5  A    between atoms: N2_10  and  C9_11 
REMARK    6  A    between atoms: C9_11  and  N3_12 
ROOT
HETATM    1  C8  UNL     1      25.758   1.104  53.296  1.00  0.00     0.081 C 
HETATM    2  N1  UNL     1      25.831   2.427  53.256  1.00  0.00    -0.194 NA
ENDROOT
BRANCH   1   3
HETATM    3  C7  UNL     1      24.384   0.680  53.288  1.00  0.00     0.034 C 
HETATM    4  C6  UNL     1      23.540  -0.276  53.583  1.00  0.00     0.014 C 
BRANCH   4   5
HETATM    5  C5  UNL     1      22.112  -0.509  53.485  1.00  0.00    -0.036 A 
HETATM    6  C4  UNL     1      21.389   0.266  52.599  1.00  0.00     0.012 A 
HETATM    7  C3  UNL     1      20.031   0.060  52.491  1.00  0.00     0.007 A 
HETATM    8  C2  UNL     1      19.471  -0.919  53.283  1.00  0.00    -0.062 A 
HETATM    9  C1  UNL     1      18.017  -1.198  53.223  1.00  0.00     0.048 C 
HETATM   10  C17 UNL     1      20.228  -1.663  54.148  1.00  0.00     0.007 A 
HETATM   11  C16 UNL     1      21.586  -1.490  54.288  1.00  0.00     0.012 A 
ENDBRANCH   4   5
ENDBRANCH   1   3
BRANCH   1  12
HETATM   12  C10 UNL     1      27.019   0.397  53.337  1.00  0.00    -0.006 A 
HETATM   13  C11 UNL     1      27.275  -0.926  53.078  1.00  0.00     0.014 A 
HETATM   14  C12 UNL     1      28.498  -1.551  53.132  1.00  0.00     0.001 A 
HETATM   15  C13 UNL     1      29.569  -0.765  53.482  1.00  0.00     0.000 A 
HETATM   16  C14 UNL     1      29.421   0.571  53.761  1.00  0.00     0.001 A 
HETATM   17  C15 UNL     1      28.157   1.091  53.677  1.00  0.00     0.014 A 
ENDBRANCH   1  12
BRANCH   2  18
HETATM   18  N2  UNL     1      24.619   3.091  53.216  1.00  0.00    -0.157 NA
HETATM   19  H8  UNL     1      25.378   3.413  52.568  1.00  0.00     0.157 HD
BRANCH  18  20
HETATM   20  C9  UNL     1      24.015   4.146  52.526  1.00  0.00     0.163 C 
HETATM   21  S1  UNL     1      23.319   4.987  51.315  1.00  0.00    -0.046 SA
BRANCH  20  22
HETATM   22  N3  UNL     1      23.947   5.191  53.490  1.00  0.00    -0.380 N 
HETATM   23  H9  UNL     1      23.809   5.996  54.134  1.00  0.00     0.158 HD
HETATM   24  H10 UNL     1      23.208   5.946  53.386  1.00  0.00     0.158 HD
ENDBRANCH  20  22
ENDBRANCH  18  20
ENDBRANCH   2  18
TORSDOF 6
ENDMDL
MODEL 3
REMARK VINA RESULT:      -8.3      1.667      6.753
REMARK  6 active torsions:
REMARK  status: ('A' for Active; 'I' for Inactive)
REMARK    1  A    between atoms: C5_5  and  C6_6 
REMARK    2  A    between atoms: C7_7  and  C8_8 
REMARK    3  A    between atoms: C8_8  and  C10_14 
REMARK    4  A    between atoms: N1_9  and  N2_10 
REMARK    5  A    between atoms: N2_10  and  C9_11 
REMARK    6  A    between atoms: C9_11  and  N3_12 
ROOT
HETATM    1  C8  UNL     1      21.984   1.327  52.559  1.00  0.00     0.081 C 
HETATM    2  N1  UNL     1      21.891   2.619  52.280  1.00  0.00    -0.194 NA
ENDROOT
BRANCH   1   3
HETATM    3  C7  UNL     1      23.355   0.965  52.794  1.00  0.00     0.034 C 
HETATM    4  C6  UNL     1      24.184   0.010  53.133  1.00  0.00     0.014 C 
BRANCH   4   5
HETATM    5  C5  UNL     1      25.613  -0.148  53.319  1.00  0.00    -0.036 A 
HETATM    6  C4  UNL     1      26.259   0.740  54.157  1.00  0.00     0.012 A 
HETATM    7  C3  UNL     1      27.617   0.607  54.348  1.00  0.00     0.007 A 
HETATM    8  C2  UNL     1      28.255  -0.418  53.682  1.00  0.00    -0.062 A 
HETATM    9  C1  UNL     1      29.714  -0.624  53.836  1.00  0.00     0.048 C 
HETATM   10  C17 UNL     1      27.573  -1.274  52.860  1.00  0.00     0.007 A 
HETATM   11  C16 UNL     1      26.219  -1.176  52.641  1.00  0.00     0.012 A 
ENDBRANCH   4   5
ENDBRANCH   1   3
BRANCH   1  12
HETATM   12  C10 UNL     1      20.741   0.586  52.568  1.00  0.00    -0.006 A 
HETATM   13  C11 UNL     1      19.680   0.672  51.702  1.00  0.00     0.014 A 
HETATM   14  C12 UNL     1      18.517  -0.059  51.756  1.00  0.00     0.001 A 
HETATM   15  C13 UNL     1      18.413  -0.965  52.784  1.00  0.00     0.000 A 
HETATM   16  C14 UNL     1      19.419  -1.129  53.704  1.00  0.00     0.001 A 
HETATM   17  C15 UNL     1      20.534  -0.348  53.556  1.00  0.00     0.014 A 
ENDBRANCH   1  12
BRANCH   2  18
HETATM   18  N2  UNL     1      23.085   3.316  52.275  1.00  0.00    -0.157 NA
HETATM   19  H8  UNL     1      22.216   3.827  51.986  1.00  0.00     0.157 HD
BRANCH  18  20
HETATM   20  C9  UNL     1      23.557   4.601  51.990  1.00  0.00     0.163 C 
HETATM   21  S1  UNL     1      24.048   5.899  51.134  1.00  0.00    -0.046 SA
BRANCH  20  22
HETATM   22  N3  UNL     1      23.736   5.193  53.272  1.00  0.00    -0.380 N 
HETATM   23  H9  UNL     1      23.793   5.545  54.249  1.00  0.00     0.158 HD
HETATM   24  H10 UNL     1      23.223   4.784  54.107  1.00  0.00     0.158 HD
ENDBRANCH  20  22
ENDBRANCH  18  20
ENDBRANCH   2  18
TORSDOF 6
ENDMDL
MODEL 4
REMARK VINA RESULT:      -8.2      2.479      5.456
REMARK  6 active torsions:
REMARK  status: ('A' for Active; 'I' for Inactive)
REMARK    1  A    between atoms: C5_5  and  C6_6 
REMARK    2  A    between atoms: C7_7  and  C8_8 
REMARK    3  A    between atoms: C8_8  and  C10_14 
REMARK    4  A    between atoms: N1_9  and  N2_10 
REMARK    5  A    between atoms: N2_10  and  C9_11 
REMARK    6  A    between atoms: C9_11  and  N3_12 
ROOT
HETATM    1  C8  UNL     1      26.156   0.118  52.668  1.00  0.00     0.081 C 
HETATM    2  N1  UNL     1      25.051  -0.243  53.304  1.00  0.00    -0.194 NA
ENDROOT
BRANCH   1   3
HETATM    3  C7  UNL     1      25.908   1.279  51.858  1.00  0.00     0.034 C 
HETATM    4  C6  UNL     1      26.419   2.159  51.034  1.00  0.00     0.014 C 
BRANCH   4   5
HETATM    5  C5  UNL     1      25.963   3.316  50.289  1.00  0.00    -0.036 A 
HETATM    6  C4  UNL     1      26.905   4.058  49.603  1.00  0.00     0.012 A 
HETATM    7  C3  UNL     1      26.493   5.161  48.889  1.00  0.00     0.007 A 
HETATM    8  C2  UNL     1      25.147   5.460  48.902  1.00  0.00    -0.062 A 
HETATM    9  C1  UNL     1      24.628   6.631  48.158  1.00  0.00     0.048 C 
HETATM   10  C17 UNL     1      24.249   4.696  49.597  1.00  0.00     0.007 A 
HETATM   11  C16 UNL     1      24.618   3.588  50.323  1.00  0.00     0.012 A 
ENDBRANCH   4   5
ENDBRANCH   1   3
BRANCH   1  12
HETATM   12  C10 UNL     1      27.328  -0.694  52.914  1.00  0.00    -0.006 A 
HETATM   13  C11 UNL     1      27.494  -2.045  52.733  1.00  0.00     0.014 A 
HETATM   14  C12 UNL     1      28.633  -2.771  52.983  1.00  0.00     0.001 A 
HETATM   15  C13 UNL     1      29.712  -2.068  53.462  1.00  0.00     0.000 A 
HETATM   16  C14 UNL     1      29.651  -0.713  53.677  1.00  0.00     0.001 A 
HETATM   17  C15 UNL     1      28.465  -0.088  53.395  1.00  0.00     0.014 A 
ENDBRANCH   1  12
BRANCH   2  18
HETATM   18  N2  UNL     1      23.939   0.541  53.062  1.00  0.00    -0.157 NA
HETATM   19  H8  UNL     1      23.785  -0.438  53.403  1.00  0.00     0.157 HD
BRANCH  18  20
HETATM   20  C9  UNL     1      22.546   0.451  53.136  1.00  0.00     0.163 C 
HETATM   21  S1  UNL     1      20.989   0.894  53.333  1.00  0.00    -0.046 SA
BRANCH  20  22
HETATM   22  N3  UNL     1      22.277  -0.919  52.861  1.00  0.00    -0.380 N 
HETATM   23  H9  UNL     1      22.192  -1.931  52.635  1.00  0.00     0.158 HD
HETATM   24  H10 UNL     1      23.072  -1.552  52.553  1.00  0.00     0.158 HD
ENDBRANCH  20  22
ENDBRANCH  18  20
ENDBRANCH   2  18
TORSDOF 6
ENDMDL
MODEL 5
REMARK VINA RESULT:      -8.0      2.575      5.175
REMARK  6 active torsions:
REMARK  status: ('A' for Active; 'I' for Inactive)
REMARK    1  A    between atoms: C5_5  and  C6_6 
REMARK    2  A    between atoms: C7_7  and  C8_8 
REMARK    3  A    between atoms: C8_8  and  C10_14 
REMARK    4  A    between atoms: N1_9  and  N2_10 
REMARK    5  A    between atoms: N2_10  and  C9_11 
REMARK    6  A    between atoms: C9_11  and  N3_12 
ROOT
HETATM    1  C8  UNL     1      25.951   3.229  50.820  1.00  0.00     0.081 C 
HETATM    2  N1  UNL     1      27.168   2.858  51.191  1.00  0.00    -0.194 NA
ENDROOT
BRANCH   1   3
HETATM    3  C7  UNL     1      24.965   2.364  51.408  1.00  0.00     0.034 C 
HETATM    4  C6  UNL     1      23.716   1.972  51.395  1.00  0.00     0.014 C 
BRANCH   4   5
HETATM    5  C5  UNL     1      22.883   1.030  52.117  1.00  0.00    -0.036 A 
HETATM    6  C4  UNL     1      21.573   0.878  51.708  1.00  0.00     0.012 A 
HETATM    7  C3  UNL     1      20.765  -0.012  52.381  1.00  0.00     0.007 A 
HETATM    8  C2  UNL     1      21.322  -0.705  53.436  1.00  0.00    -0.062 A 
HETATM    9  C1  UNL     1      20.516  -1.678  54.208  1.00  0.00     0.048 C 
HETATM   10  C17 UNL     1      22.627  -0.521  53.806  1.00  0.00     0.007 A 
HETATM   11  C16 UNL     1      23.467   0.358  53.162  1.00  0.00     0.012 A 
ENDBRANCH   4   5
ENDBRANCH   1   3
BRANCH   1  12
HETATM   12  C10 UNL     1      25.873   4.376  49.943  1.00  0.00    -0.006 A 
HETATM   13  C11 UNL     1      24.778   5.131  49.604  1.00  0.00     0.014 A 
HETATM   14  C12 UNL     1      24.760   6.216  48.761  1.00  0.00     0.001 A 
HETATM   15  C13 UNL     1      25.963   6.577  48.204  1.00  0.00     0.000 A 
HETATM   16  C14 UNL     1      27.119   5.889  48.479  1.00  0.00     0.001 A 
HETATM   17  C15 UNL     1      27.023   4.822  49.332  1.00  0.00     0.014 A 
ENDBRANCH   1  12
BRANCH   2  18
HETATM   18  N2  UNL     1      27.228   1.761  52.030  1.00  0.00    -0.157 NA
HETATM   19  H8  UNL     1      27.855   2.575  52.238  1.00  0.00     0.157 HD
BRANCH  18  20
HETATM   20  C9  UNL     1      27.911   1.344  53.176  1.00  0.00     0.163 C 
HETATM   21  S1  UNL     1      28.925   0.501  54.134  1.00  0.00    -0.046 SA
BRANCH  20  22
HETATM   22  N3  UNL     1      27.423   2.205  54.198  1.00  0.00    -0.380 N 
HETATM   23  H9  UNL     1      27.017   2.897  54.861  1.00  0.00     0.158 HD
HETATM   24  H10 UNL     1      26.838   3.050  53.929  1.00  0.00     0.158 HD
ENDBRANCH  20  22
ENDBRANCH  18  20
ENDBRANCH   2  18
TORSDOF 6
ENDMDL
MODEL 6
REMARK VINA RESULT:      -8.0      7.289      8.879
REMARK  6 active torsions:
REMARK  status: ('A' for Active; 'I' for Inactive)
REMARK    1  A    between atoms: C5_5  and  C6_6 
REMARK    2  A    between atoms: C7_7  and  C8_8 
REMARK    3  A    between atoms: C8_8  and  C10_14 
REMARK    4  A    between atoms: N1_9  and  N2_10 
REMARK    5  A    between atoms: N2_10  and  C9_11 
REMARK    6  A    between atoms: C9_11  and  N3_12 
ROOT
HETATM    1  C8  UNL     1      31.547   6.143  48.199  1.00  0.00     0.081 C 
HETATM    2  N1  UNL     1      31.940   7.408  48.185  1.00  0.00    -0.194 NA
ENDROOT
BRANCH   1   3
HETATM    3  C7  UNL     1      30.122   6.066  48.376  1.00  0.00     0.034 C 
HETATM    4  C6  UNL     1      29.055   5.314  48.285  1.00  0.00     0.014 C 
BRANCH   4   5
HETATM    5  C5  UNL     1      27.632   5.445  48.529  1.00  0.00    -0.036 A 
HETATM    6  C4  UNL     1      27.023   6.637  48.188  1.00  0.00     0.012 A 
HETATM    7  C3  UNL     1      25.671   6.781  48.411  1.00  0.00     0.007 A 
HETATM    8  C2  UNL     1      25.001   5.713  48.968  1.00  0.00    -0.062 A 
HETATM    9  C1  UNL     1      23.546   5.793  49.238  1.00  0.00     0.048 C 
HETATM   10  C17 UNL     1      25.646   4.549  49.290  1.00  0.00     0.007 A 
HETATM   11  C16 UNL     1      26.994   4.364  49.085  1.00  0.00     0.012 A 
ENDBRANCH   4   5
ENDBRANCH   1   3
BRANCH   1  12
HETATM   12  C10 UNL     1      32.586   5.149  48.041  1.00  0.00    -0.006 A 
HETATM   13  C11 UNL     1      32.488   3.867  47.563  1.00  0.00     0.014 A 
HETATM   14  C12 UNL     1      33.512   2.960  47.432  1.00  0.00     0.001 A 
HETATM   15  C13 UNL     1      34.759   3.387  47.821  1.00  0.00     0.000 A 
HETATM   16  C14 UNL     1      34.966   4.652  48.313  1.00  0.00     0.001 A 
HETATM   17  C15 UNL     1      33.874   5.475  48.401  1.00  0.00     0.014 A 
ENDBRANCH   1  12
BRANCH   2  18
HETATM   18  N2  UNL     1      30.938   8.347  48.337  1.00  0.00    -0.157 NA
HETATM   19  H8  UNL     1      31.916   8.627  48.591  1.00  0.00     0.157 HD
BRANCH  18  20
HETATM   20  C9  UNL     1      30.787   9.674  48.751  1.00  0.00     0.163 C 
HETATM   21  S1  UNL     1      30.662  11.298  48.677  1.00  0.00    -0.046 SA
BRANCH  20  22
HETATM   22  N3  UNL     1      30.648   9.578  50.164  1.00  0.00    -0.380 N 
HETATM   23  H9  UNL     1      30.661   9.491  51.200  1.00  0.00     0.158 HD
HETATM   24  H10 UNL     1      31.510   9.404  50.759  1.00  0.00     0.158 HD
ENDBRANCH  20  22
ENDBRANCH  18  20
ENDBRANCH   2  18
TORSDOF 6
ENDMDL
MODEL 7
REMARK VINA RESULT:      -7.5      3.870      7.068
REMARK  6 active torsions:
REMARK  status: ('A' for Active; 'I' for Inactive)
REMARK    1  A    between atoms: C5_5  and  C6_6 
REMARK    2  A    between atoms: C7_7  and  C8_8 
REMARK    3  A    between atoms: C8_8  and  C10_14 
REMARK    4  A    between atoms: N1_9  and  N2_10 
REMARK    5  A    between atoms: N2_10  and  C9_11 
REMARK    6  A    between atoms: C9_11  and  N3_12 
ROOT
HETATM    1  C8  UNL     1      22.306   1.624  51.452  1.00  0.00     0.081 C 
HETATM    2  N1  UNL     1      21.179   1.646  50.754  1.00  0.00    -0.194 NA
ENDROOT
BRANCH   1   3
HETATM    3  C7  UNL     1      23.275   2.506  50.861  1.00  0.00     0.034 C 
HETATM    4  C6  UNL     1      24.546   2.788  50.721  1.00  0.00     0.014 C 
BRANCH   4   5
HETATM    5  C5  UNL     1      25.351   3.782  50.040  1.00  0.00    -0.036 A 
HETATM    6  C4  UNL     1      24.834   5.056  49.908  1.00  0.00     0.012 A 
HETATM    7  C3  UNL     1      25.584   6.016  49.264  1.00  0.00     0.007 A 
HETATM    8  C2  UNL     1      26.820   5.640  48.784  1.00  0.00    -0.062 A 
HETATM    9  C1  UNL     1      27.684   6.616  48.080  1.00  0.00     0.048 C 
HETATM   10  C17 UNL     1      27.292   4.364  48.937  1.00  0.00     0.007 A 
HETATM   11  C16 UNL     1      26.576   3.376  49.572  1.00  0.00     0.012 A 
ENDBRANCH   4   5
ENDBRANCH   1   3
BRANCH   1  12
HETATM   12  C10 UNL     1      22.323   0.757  52.610  1.00  0.00    -0.006 A 
HETATM   13  C11 UNL     1      23.330  -0.057  53.063  1.00  0.00     0.014 A 
HETATM   14  C12 UNL     1      23.294  -0.864  54.174  1.00  0.00     0.001 A 
HETATM   15  C13 UNL     1      22.128  -0.850  54.901  1.00  0.00     0.000 A 
HETATM   16  C14 UNL     1      21.060  -0.070  54.534  1.00  0.00     0.001 A 
HETATM   17  C15 UNL     1      21.204   0.696  53.408  1.00  0.00     0.014 A 
ENDBRANCH   1  12
BRANCH   2  18
HETATM   18  N2  UNL     1      21.176   2.478  49.651  1.00  0.00    -0.157 NA
HETATM   19  H8  UNL     1      20.261   2.287  50.126  1.00  0.00     0.157 HD
BRANCH  18  20
HETATM   20  C9  UNL     1      20.268   3.224  48.893  1.00  0.00     0.163 C 
HETATM   21  S1  UNL     1      19.493   4.511  48.260  1.00  0.00    -0.046 SA
BRANCH  20  22
HETATM   22  N3  UNL     1      19.498   2.239  48.214  1.00  0.00    -0.380 N 
HETATM   23  H9  UNL     1      18.977   1.442  47.794  1.00  0.00     0.158 HD
HETATM   24  H10 UNL     1      19.531   1.232  48.550  1.00  0.00     0.158 HD
ENDBRANCH  20  22
ENDBRANCH  18  20
ENDBRANCH   2  18
TORSDOF 6
ENDMDL
MODEL 8
REMARK VINA RESULT:      -7.3      3.171      5.086
REMARK  6 active torsions:
REMARK  status: ('A' for Active; 'I' for Inactive)
REMARK    1  A    between atoms: C5_5  and  C6_6 
REMARK    2  A    between atoms: C7_7  and  C8_8 
REMARK    3  A    between atoms: C8_8  and  C10_14 
REMARK    4  A    between atoms: N1_9  and  N2_10 
REMARK    5  A    between atoms: N2_10  and  C9_11 
REMARK    6  A    between atoms: C9_11  and  N3_12 
ROOT
HETATM    1  C8  UNL     1      24.715   0.578  53.162  1.00  0.00     0.081 C 
HETATM    2  N1  UNL     1      23.757  -0.311  53.380  1.00  0.00    -0.194 NA
ENDROOT
BRANCH   1   3
HETATM    3  C7  UNL     1      24.151   1.814  52.693  1.00  0.00     0.034 C 
HETATM    4  C6  UNL     1      24.339   2.892  51.975  1.00  0.00     0.014 C 
BRANCH   4   5
HETATM    5  C5  UNL     1      23.593   4.082  51.617  1.00  0.00    -0.036 A 
HETATM    6  C4  UNL     1      24.276   5.114  51.003  1.00  0.00     0.012 A 
HETATM    7  C3  UNL     1      23.585   6.254  50.655  1.00  0.00     0.007 A 
HETATM    8  C2  UNL     1      22.237   6.295  50.945  1.00  0.00    -0.062 A 
HETATM    9  C1  UNL     1      21.428   7.487  50.601  1.00  0.00     0.048 C 
HETATM   10  C17 UNL     1      21.603   5.247  51.555  1.00  0.00     0.007 A 
HETATM   11  C16 UNL     1      22.255   4.091  51.920  1.00  0.00     0.012 A 
ENDBRANCH   4   5
ENDBRANCH   1   3
BRANCH   1  12
HETATM   12  C10 UNL     1      26.067   0.137  53.429  1.00  0.00    -0.006 A 
HETATM   13  C11 UNL     1      26.957   0.604  54.363  1.00  0.00     0.014 A 
HETATM   14  C12 UNL     1      28.236   0.147  54.576  1.00  0.00     0.001 A 
HETATM   15  C13 UNL     1      28.659  -0.881  53.769  1.00  0.00     0.000 A 
HETATM   16  C14 UNL     1      27.846  -1.421  52.804  1.00  0.00     0.001 A 
HETATM   17  C15 UNL     1      26.590  -0.890  52.677  1.00  0.00     0.014 A 
ENDBRANCH   1  12
BRANCH   2  18
HETATM   18  N2  UNL     1      22.470   0.122  53.122  1.00  0.00    -0.157 NA
HETATM   19  H8  UNL     1      22.594  -0.689  53.775  1.00  0.00     0.157 HD
BRANCH  18  20
HETATM   20  C9  UNL     1      21.156  -0.192  53.484  1.00  0.00     0.163 C 
HETATM   21  S1  UNL     1      19.577  -0.572  53.345  1.00  0.00    -0.046 SA
BRANCH  20  22
HETATM   22  N3  UNL     1      21.182  -0.181  54.907  1.00  0.00    -0.380 N 
HETATM   23  H9  UNL     1      21.105  -0.109  55.942  1.00  0.00     0.158 HD
HETATM   24  H10 UNL     1      20.423   0.339  55.436  1.00  0.00     0.158 HD
ENDBRANCH  20  22
ENDBRANCH  18  20
ENDBRANCH   2  18
TORSDOF 6
ENDMDL
MODEL 9
REMARK VINA RESULT:      -7.3      2.088      6.968
REMARK  6 active torsions:
REMARK  status: ('A' for Active; 'I' for Inactive)
REMARK    1  A    between atoms: C5_5  and  C6_6 
REMARK    2  A    between atoms: C7_7  and  C8_8 
REMARK    3  A    between atoms: C8_8  and  C10_14 
REMARK    4  A    between atoms: N1_9  and  N2_10 
REMARK    5  A    between atoms: N2_10  and  C9_11 
REMARK    6  A    between atoms: C9_11  and  N3_12 
ROOT
HETATM    1  C8  UNL     1      21.401   0.647  51.616  1.00  0.00     0.081 C 
HETATM    2  N1  UNL     1      21.213   1.400  50.542  1.00  0.00    -0.194 NA
ENDROOT
BRANCH   1   3
HETATM    3  C7  UNL     1      22.786   0.663  52.001  1.00  0.00     0.034 C 
HETATM    4  C6  UNL     1      23.651   0.445  52.959  1.00  0.00     0.014 C 
BRANCH   4   5
HETATM    5  C5  UNL     1      25.086   0.530  53.143  1.00  0.00    -0.036 A 
HETATM    6  C4  UNL     1      25.627   1.760  53.462  1.00  0.00     0.012 A 
HETATM    7  C3  UNL     1      26.989   1.862  53.641  1.00  0.00     0.007 A 
HETATM    8  C2  UNL     1      27.738   0.714  53.488  1.00  0.00    -0.062 A 
HETATM    9  C1  UNL     1      29.209   0.745  53.664  1.00  0.00     0.048 C 
HETATM   10  C17 UNL     1      27.158  -0.484  53.170  1.00  0.00     0.007 A 
HETATM   11  C16 UNL     1      25.803  -0.629  52.982  1.00  0.00     0.012 A 
ENDBRANCH   4   5
ENDBRANCH   1   3
BRANCH   1  12
HETATM   12  C10 UNL     1      20.225  -0.003  52.153  1.00  0.00    -0.006 A 
HETATM   13  C11 UNL     1      20.098  -0.749  53.298  1.00  0.00     0.014 A 
HETATM   14  C12 UNL     1      18.953  -1.347  53.764  1.00  0.00     0.001 A 
HETATM   15  C13 UNL     1      17.822  -1.179  53.001  1.00  0.00     0.000 A 
HETATM   16  C14 UNL     1      17.841  -0.451  51.837  1.00  0.00     0.001 A 
HETATM   17  C15 UNL     1      19.038   0.103  51.465  1.00  0.00     0.014 A 
ENDBRANCH   1  12
BRANCH   2  18
HETATM   18  N2  UNL     1      22.344   2.017  50.040  1.00  0.00    -0.157 NA
HETATM   19  H8  UNL     1      21.411   2.325  49.673  1.00  0.00     0.157 HD
BRANCH  18  20
HETATM   20  C9  UNL     1      22.683   3.015  49.121  1.00  0.00     0.163 C 
HETATM   21  S1  UNL     1      23.087   4.478  48.528  1.00  0.00    -0.046 SA
BRANCH  20  22
HETATM   22  N3  UNL     1      22.692   2.338  47.869  1.00  0.00    -0.380 N 
HETATM   23  H9  UNL     1      22.792   1.789  46.992  1.00  0.00     0.158 HD
HETATM   24  H10 UNL     1      23.451   1.623  47.672  1.00  0.00     0.158 HD
ENDBRANCH  20  22
ENDBRANCH  18  20
ENDBRANCH   2  18
TORSDOF 6
ENDMDL
