MODEL 1
REMARK VINA RESULT:      -9.4      0.000      0.000
REMARK  0 active torsions:
REMARK  status: ('A' for Active; 'I' for Inactive)
ROOT
HETATM    1  C1  UNL     1      21.370   3.978  45.324  1.00  0.00     0.184 C 
HETATM    2  N1  UNL     1      22.084   4.418  46.504  1.00  0.00    -0.271 N 
HETATM    3  C2  UNL     1      22.038   3.597  47.692  1.00  0.00     0.123 C 
HETATM    4  C3  UNL     1      22.135   4.367  48.779  1.00  0.00    -0.010 C 
HETATM    5  C4  UNL     1      22.171   4.338  50.285  1.00  0.00     0.068 C 
HETATM    6  C5  UNL     1      22.787   3.021  50.703  1.00  0.00     0.119 C 
HETATM    7  C6  UNL     1      21.852   1.941  50.250  1.00  0.00     0.416 C 
HETATM    8  O1  UNL     1      21.068   1.018  49.990  1.00  0.00    -0.428 OA
HETATM    9  N2  UNL     1      22.916   3.004  52.136  1.00  0.00    -0.382 N 
HETATM   10  C7  UNL     1      23.584   1.811  52.555  1.00  0.00     0.035 A 
HETATM   11  C8  UNL     1      22.842   0.752  53.036  1.00  0.00     0.029 A 
HETATM   12  C9  UNL     1      23.317  -0.490  53.480  1.00  0.00     0.002 A 
HETATM   13  C10 UNL     1      24.690  -0.629  53.412  1.00  0.00     0.001 A 
HETATM   14  C11 UNL     1      25.462   0.409  52.937  1.00  0.00     0.010 A 
HETATM   15  C12 UNL     1      24.957   1.638  52.500  1.00  0.00    -0.028 A 
HETATM   16  C13 UNL     1      26.044   2.545  52.060  1.00  0.00     0.068 C 
HETATM   17  C14 UNL     1      26.487   2.337  50.676  1.00  0.00    -0.022 C 
HETATM   18  C15 UNL     1      26.538   3.098  49.594  1.00  0.00    -0.004 C 
HETATM   19  C16 UNL     1      26.114   4.433  49.600  1.00  0.00     0.001 C 
HETATM   20  C17 UNL     1      25.649   5.582  49.990  1.00  0.00     0.013 C 
HETATM   21  C18 UNL     1      25.292   6.951  49.670  1.00  0.00    -0.010 A 
HETATM   22  C19 UNL     1      26.353   7.820  49.824  1.00  0.00     0.013 A 
HETATM   23  C20 UNL     1      26.227   9.155  49.539  1.00  0.00     0.001 A 
HETATM   24  C21 UNL     1      25.003   9.581  49.099  1.00  0.00     0.002 A 
HETATM   25  C22 UNL     1      23.936   8.726  48.943  1.00  0.00     0.030 A 
HETATM   26  C23 UNL     1      24.072   7.389  49.230  1.00  0.00     0.040 A 
HETATM   27  N3  UNL     1      22.865   6.691  49.011  1.00  0.00    -0.358 N 
HETATM   28  C24 UNL     1      22.236   5.735  48.156  1.00  0.00     0.283 C 
HETATM   29  O2  UNL     1      22.885   5.436  46.986  1.00  0.00    -0.248 OA
HETATM   30  H9  UNL     1      22.811   3.354  53.108  1.00  0.00     0.160 HD
HETATM   31  H24 UNL     1      22.176   7.010  49.760  1.00  0.00     0.162 HD
ENDROOT
TORSDOF 0
ENDMDL
MODEL 2
REMARK VINA RESULT:      -9.3      2.192      7.571
REMARK  0 active torsions:
REMARK  status: ('A' for Active; 'I' for Inactive)
ROOT
HETATM    1  C1  UNL     1      27.156   0.728  52.424  1.00  0.00     0.184 C 
HETATM    2  N1  UNL     1      25.786   1.099  52.138  1.00  0.00    -0.271 N 
HETATM    3  C2  UNL     1      25.531   2.354  51.468  1.00  0.00     0.123 C 
HETATM    4  C3  UNL     1      24.349   2.841  51.854  1.00  0.00    -0.010 C 
HETATM    5  C4  UNL     1      23.393   3.990  51.668  1.00  0.00     0.068 C 
HETATM    6  C5  UNL     1      23.570   4.509  50.257  1.00  0.00     0.119 C 
HETATM    7  C6  UNL     1      24.962   5.057  50.166  1.00  0.00     0.416 C 
HETATM    8  O1  UNL     1      26.064   5.614  50.067  1.00  0.00    -0.428 OA
HETATM    9  N2  UNL     1      22.605   5.551  50.022  1.00  0.00    -0.382 N 
HETATM   10  C7  UNL     1      22.683   5.995  48.664  1.00  0.00     0.035 A 
HETATM   11  C8  UNL     1      23.372   7.153  48.369  1.00  0.00     0.029 A 
HETATM   12  C9  UNL     1      23.562   7.734  47.107  1.00  0.00     0.002 A 
HETATM   13  C10 UNL     1      22.977   7.036  46.069  1.00  0.00     0.001 A 
HETATM   14  C11 UNL     1      22.280   5.876  46.328  1.00  0.00     0.010 A 
HETATM   15  C12 UNL     1      22.108   5.320  47.600  1.00  0.00    -0.028 A 
HETATM   16  C13 UNL     1      21.304   4.077  47.545  1.00  0.00     0.068 C 
HETATM   17  C14 UNL     1      22.073   2.869  47.219  1.00  0.00    -0.022 C 
HETATM   18  C15 UNL     1      22.293   1.716  47.833  1.00  0.00    -0.004 C 
HETATM   19  C16 UNL     1      21.737   1.418  49.084  1.00  0.00     0.001 C 
HETATM   20  C17 UNL     1      21.068   1.509  50.194  1.00  0.00     0.013 C 
HETATM   21  C18 UNL     1      20.665   0.915  51.455  1.00  0.00    -0.010 A 
HETATM   22  C19 UNL     1      19.519   0.155  51.333  1.00  0.00     0.013 A 
HETATM   23  C20 UNL     1      18.994  -0.517  52.407  1.00  0.00     0.001 A 
HETATM   24  C21 UNL     1      19.659  -0.397  53.597  1.00  0.00     0.002 A 
HETATM   25  C22 UNL     1      20.802   0.359  53.733  1.00  0.00     0.030 A 
HETATM   26  C23 UNL     1      21.321   1.029  52.651  1.00  0.00     0.040 A 
HETATM   27  N3  UNL     1      22.485   1.746  53.000  1.00  0.00    -0.358 N 
HETATM   28  C24 UNL     1      23.902   1.780  52.826  1.00  0.00     0.283 C 
HETATM   29  O2  UNL     1      24.481   0.667  52.274  1.00  0.00    -0.248 OA
HETATM   30  H9  UNL     1      21.842   6.215  50.254  1.00  0.00     0.160 HD
HETATM   31  H24 UNL     1      22.182   2.548  53.634  1.00  0.00     0.162 HD
ENDROOT
TORSDOF 0
ENDMDL
MODEL 3
REMARK VINA RESULT:      -9.1      7.024     10.394
REMARK  0 active torsions:
REMARK  status: ('A' for Active; 'I' for Inactive)
ROOT
HETATM    1  C1  UNL     1      30.603  11.920  49.310  1.00  0.00     0.184 C 
HETATM    2  N1  UNL     1      30.259  10.630  48.749  1.00  0.00    -0.271 N 
HETATM    3  C2  UNL     1      30.933  10.190  47.549  1.00  0.00     0.123 C 
HETATM    4  C3  UNL     1      30.122   9.407  46.835  1.00  0.00    -0.010 C 
HETATM    5  C4  UNL     1      30.027   8.594  45.570  1.00  0.00     0.068 C 
HETATM    6  C5  UNL     1      31.416   8.092  45.243  1.00  0.00     0.119 C 
HETATM    7  C6  UNL     1      32.256   9.297  44.946  1.00  0.00     0.416 C 
HETATM    8  O1  UNL     1      32.966  10.249  44.593  1.00  0.00    -0.428 OA
HETATM    9  N2  UNL     1      31.340   7.238  44.087  1.00  0.00    -0.382 N 
HETATM   10  C7  UNL     1      32.623   6.670  43.811  1.00  0.00     0.035 A 
HETATM   11  C8  UNL     1      33.410   7.223  42.821  1.00  0.00     0.029 A 
HETATM   12  C9  UNL     1      34.689   6.811  42.419  1.00  0.00     0.002 A 
HETATM   13  C10 UNL     1      35.180   5.726  43.118  1.00  0.00     0.001 A 
HETATM   14  C11 UNL     1      34.421   5.148  44.113  1.00  0.00     0.010 A 
HETATM   15  C12 UNL     1      33.146   5.583  44.492  1.00  0.00    -0.028 A 
HETATM   16  C13 UNL     1      32.591   4.748  45.583  1.00  0.00     0.068 C 
HETATM   17  C14 UNL     1      33.027   5.139  46.930  1.00  0.00    -0.022 C 
HETATM   18  C15 UNL     1      32.402   5.529  48.030  1.00  0.00    -0.004 C 
HETATM   19  C16 UNL     1      31.008   5.646  48.095  1.00  0.00     0.001 C 
HETATM   20  C17 UNL     1      29.749   5.629  47.776  1.00  0.00     0.013 C 
HETATM   21  C18 UNL     1      28.367   5.856  48.157  1.00  0.00    -0.010 A 
HETATM   22  C19 UNL     1      27.790   4.738  48.724  1.00  0.00     0.013 A 
HETATM   23  C20 UNL     1      26.497   4.758  49.181  1.00  0.00     0.001 A 
HETATM   24  C21 UNL     1      25.812   5.935  49.045  1.00  0.00     0.002 A 
HETATM   25  C22 UNL     1      26.374   7.056  48.479  1.00  0.00     0.030 A 
HETATM   26  C23 UNL     1      27.671   7.027  48.025  1.00  0.00     0.040 A 
HETATM   27  N3  UNL     1      28.052   8.270  47.477  1.00  0.00    -0.358 N 
HETATM   28  C24 UNL     1      28.886   9.408  47.696  1.00  0.00     0.283 C 
HETATM   29  O2  UNL     1      29.443   9.532  48.943  1.00  0.00    -0.248 OA
HETATM   30  H9  UNL     1      30.891   6.755  43.285  1.00  0.00     0.160 HD
HETATM   31  H24 UNL     1      27.503   8.397  46.571  1.00  0.00     0.162 HD
ENDROOT
TORSDOF 0
ENDMDL
MODEL 4
REMARK VINA RESULT:      -9.0      2.183      5.227
REMARK  0 active torsions:
REMARK  status: ('A' for Active; 'I' for Inactive)
ROOT
HETATM    1  C1  UNL     1      24.005   7.779  50.884  1.00  0.00     0.184 C 
HETATM    2  N1  UNL     1      23.382   6.598  50.325  1.00  0.00    -0.271 N 
HETATM    3  C2  UNL     1      23.501   5.346  51.037  1.00  0.00     0.123 C 
HETATM    4  C3  UNL     1      23.492   4.330  50.170  1.00  0.00    -0.010 C 
HETATM    5  C4  UNL     1      23.562   2.829  50.062  1.00  0.00     0.068 C 
HETATM    6  C5  UNL     1      22.959   2.251  51.324  1.00  0.00     0.119 C 
HETATM    7  C6  UNL     1      23.844   2.666  52.459  1.00  0.00     0.416 C 
HETATM    8  O1  UNL     1      24.595   2.896  53.418  1.00  0.00    -0.428 OA
HETATM    9  N2  UNL     1      22.932   0.817  51.209  1.00  0.00    -0.382 N 
HETATM   10  C7  UNL     1      22.278   0.246  52.347  1.00  0.00     0.035 A 
HETATM   11  C8  UNL     1      23.038  -0.277  53.373  1.00  0.00     0.029 A 
HETATM   12  C9  UNL     1      22.579  -0.865  54.560  1.00  0.00     0.002 A 
HETATM   13  C10 UNL     1      21.203  -0.905  54.677  1.00  0.00     0.001 A 
HETATM   14  C11 UNL     1      20.413  -0.392  53.670  1.00  0.00     0.010 A 
HETATM   15  C12 UNL     1      20.902   0.189  52.496  1.00  0.00    -0.028 A 
HETATM   16  C13 UNL     1      19.800   0.633  51.610  1.00  0.00     0.068 C 
HETATM   17  C14 UNL     1      19.257   1.959  51.934  1.00  0.00    -0.022 C 
HETATM   18  C15 UNL     1      19.140   3.100  51.273  1.00  0.00    -0.004 C 
HETATM   19  C16 UNL     1      19.581   3.245  49.951  1.00  0.00     0.001 C 
HETATM   20  C17 UNL     1      20.088   2.995  48.781  1.00  0.00     0.013 C 
HETATM   21  C18 UNL     1      20.441   3.462  47.453  1.00  0.00    -0.010 A 
HETATM   22  C19 UNL     1      19.405   3.315  46.554  1.00  0.00     0.013 A 
HETATM   23  C20 UNL     1      19.529   3.729  45.252  1.00  0.00     0.001 A 
HETATM   24  C21 UNL     1      20.724   4.289  44.892  1.00  0.00     0.002 A 
HETATM   25  C22 UNL     1      21.767   4.440  45.779  1.00  0.00     0.030 A 
HETATM   26  C23 UNL     1      21.633   4.023  47.082  1.00  0.00     0.040 A 
HETATM   27  N3  UNL     1      22.811   4.261  47.820  1.00  0.00    -0.358 N 
HETATM   28  C24 UNL     1      23.365   5.066  48.862  1.00  0.00     0.283 C 
HETATM   29  O2  UNL     1      22.632   6.157  49.252  1.00  0.00    -0.248 OA
HETATM   30  H9  UNL     1      23.109  -0.110  50.776  1.00  0.00     0.160 HD
HETATM   31  H24 UNL     1      23.556   3.594  47.449  1.00  0.00     0.162 HD
ENDROOT
TORSDOF 0
ENDMDL
MODEL 5
REMARK VINA RESULT:      -9.0      2.930      6.384
REMARK  0 active torsions:
REMARK  status: ('A' for Active; 'I' for Inactive)
ROOT
HETATM    1  C1  UNL     1      25.176   6.360  48.580  1.00  0.00     0.184 C 
HETATM    2  N1  UNL     1      24.592   5.395  49.488  1.00  0.00    -0.271 N 
HETATM    3  C2  UNL     1      23.160   5.402  49.682  1.00  0.00     0.123 C 
HETATM    4  C3  UNL     1      22.868   4.990  50.918  1.00  0.00    -0.010 C 
HETATM    5  C4  UNL     1      21.731   4.717  51.868  1.00  0.00     0.068 C 
HETATM    6  C5  UNL     1      20.535   4.299  51.042  1.00  0.00     0.119 C 
HETATM    7  C6  UNL     1      20.152   5.480  50.202  1.00  0.00     0.416 C 
HETATM    8  O1  UNL     1      19.732   6.454  49.562  1.00  0.00    -0.428 OA
HETATM    9  N2  UNL     1      19.458   3.947  51.930  1.00  0.00    -0.382 N 
HETATM   10  C7  UNL     1      18.344   3.454  51.180  1.00  0.00     0.035 A 
HETATM   11  C8  UNL     1      17.282   4.294  50.915  1.00  0.00     0.029 A 
HETATM   12  C9  UNL     1      16.117   3.994  50.194  1.00  0.00     0.002 A 
HETATM   13  C10 UNL     1      16.067   2.701  49.712  1.00  0.00     0.001 A 
HETATM   14  C11 UNL     1      17.110   1.835  49.959  1.00  0.00     0.010 A 
HETATM   15  C12 UNL     1      18.261   2.165  50.682  1.00  0.00    -0.028 A 
HETATM   16  C13 UNL     1      19.189   1.013  50.780  1.00  0.00     0.068 C 
HETATM   17  C14 UNL     1      20.075   0.846  49.620  1.00  0.00    -0.022 C 
HETATM   18  C15 UNL     1      21.388   0.828  49.451  1.00  0.00    -0.004 C 
HETATM   19  C16 UNL     1      22.280   0.988  50.519  1.00  0.00     0.001 C 
HETATM   20  C17 UNL     1      22.763   1.162  51.712  1.00  0.00     0.013 C 
HETATM   21  C18 UNL     1      23.920   1.304  52.576  1.00  0.00    -0.010 A 
HETATM   22  C19 UNL     1      24.381   0.088  53.039  1.00  0.00     0.013 A 
HETATM   23  C20 UNL     1      25.488   0.007  53.844  1.00  0.00     0.001 A 
HETATM   24  C21 UNL     1      26.107   1.184  54.166  1.00  0.00     0.002 A 
HETATM   25  C22 UNL     1      25.656   2.404  53.713  1.00  0.00     0.030 A 
HETATM   26  C23 UNL     1      24.547   2.475  52.906  1.00  0.00     0.040 A 
HETATM   27  N3  UNL     1      24.249   3.810  52.559  1.00  0.00    -0.358 N 
HETATM   28  C24 UNL     1      24.246   4.736  51.471  1.00  0.00     0.283 C 
HETATM   29  O2  UNL     1      24.911   4.352  50.335  1.00  0.00    -0.248 OA
HETATM   30  H9  UNL     1      18.972   3.826  52.839  1.00  0.00     0.160 HD
HETATM   31  H24 UNL     1      23.910   4.298  53.445  1.00  0.00     0.162 HD
ENDROOT
TORSDOF 0
ENDMDL
MODEL 6
REMARK VINA RESULT:      -8.8      2.166      2.756
REMARK  0 active torsions:
REMARK  status: ('A' for Active; 'I' for Inactive)
ROOT
HETATM    1  C1  UNL     1      19.076   3.206  46.116  1.00  0.00     0.184 C 
HETATM    2  N1  UNL     1      19.771   3.602  47.322  1.00  0.00    -0.271 N 
HETATM    3  C2  UNL     1      19.656   2.768  48.497  1.00  0.00     0.123 C 
HETATM    4  C3  UNL     1      19.751   3.520  49.597  1.00  0.00    -0.010 C 
HETATM    5  C4  UNL     1      19.740   3.471  51.103  1.00  0.00     0.068 C 
HETATM    6  C5  UNL     1      20.289   2.125  51.521  1.00  0.00     0.119 C 
HETATM    7  C6  UNL     1      19.326   1.089  51.026  1.00  0.00     0.416 C 
HETATM    8  O1  UNL     1      18.513   0.202  50.729  1.00  0.00    -0.428 OA
HETATM    9  N2  UNL     1      20.374   2.084  52.957  1.00  0.00    -0.382 N 
HETATM   10  C7  UNL     1      20.980   0.859  53.378  1.00  0.00     0.035 A 
HETATM   11  C8  UNL     1      20.181  -0.175  53.822  1.00  0.00     0.029 A 
HETATM   12  C9  UNL     1      20.592  -1.441  54.263  1.00  0.00     0.002 A 
HETATM   13  C10 UNL     1      21.959  -1.634  54.234  1.00  0.00     0.001 A 
HETATM   14  C11 UNL     1      22.787  -0.623  53.797  1.00  0.00     0.010 A 
HETATM   15  C12 UNL     1      22.346   0.631  53.363  1.00  0.00    -0.028 A 
HETATM   16  C13 UNL     1      23.481   1.499  52.968  1.00  0.00     0.068 C 
HETATM   17  C14 UNL     1      23.957   1.290  51.594  1.00  0.00    -0.022 C 
HETATM   18  C15 UNL     1      24.072   2.062  50.525  1.00  0.00    -0.004 C 
HETATM   19  C16 UNL     1      23.703   3.413  50.537  1.00  0.00     0.001 C 
HETATM   20  C17 UNL     1      23.273   4.575  50.929  1.00  0.00     0.013 C 
HETATM   21  C18 UNL     1      22.981   5.962  50.617  1.00  0.00    -0.010 A 
HETATM   22  C19 UNL     1      24.072   6.784  50.815  1.00  0.00     0.013 A 
HETATM   23  C20 UNL     1      24.009   8.127  50.545  1.00  0.00     0.001 A 
HETATM   24  C21 UNL     1      22.817   8.608  50.075  1.00  0.00     0.002 A 
HETATM   25  C22 UNL     1      21.721   7.799  49.876  1.00  0.00     0.030 A 
HETATM   26  C23 UNL     1      21.794   6.454  50.148  1.00  0.00     0.040 A 
HETATM   27  N3  UNL     1      20.567   5.809  49.883  1.00  0.00    -0.358 N 
HETATM   28  C24 UNL     1      19.926   4.891  48.997  1.00  0.00     0.283 C 
HETATM   29  O2  UNL     1      20.597   4.580  47.842  1.00  0.00    -0.248 OA
HETATM   30  H9  UNL     1      20.254   2.425  53.930  1.00  0.00     0.160 HD
HETATM   31  H24 UNL     1      19.869   6.146  50.616  1.00  0.00     0.162 HD
ENDROOT
TORSDOF 0
ENDMDL
MODEL 7
REMARK VINA RESULT:      -8.6      2.360      6.906
REMARK  0 active torsions:
REMARK  status: ('A' for Active; 'I' for Inactive)
ROOT
HETATM    1  C1  UNL     1      16.829   3.983  51.943  1.00  0.00     0.184 C 
HETATM    2  N1  UNL     1      18.197   3.572  51.708  1.00  0.00    -0.271 N 
HETATM    3  C2  UNL     1      18.938   4.202  50.638  1.00  0.00     0.123 C 
HETATM    4  C3  UNL     1      19.830   3.343  50.138  1.00  0.00    -0.010 C 
HETATM    5  C4  UNL     1      20.912   3.186  49.103  1.00  0.00     0.068 C 
HETATM    6  C5  UNL     1      21.541   4.545  48.888  1.00  0.00     0.119 C 
HETATM    7  C6  UNL     1      20.480   5.428  48.306  1.00  0.00     0.416 C 
HETATM    8  O1  UNL     1      19.672   6.170  47.730  1.00  0.00    -0.428 OA
HETATM    9  N2  UNL     1      22.639   4.408  47.969  1.00  0.00    -0.382 N 
HETATM   10  C7  UNL     1      23.314   5.661  47.820  1.00  0.00     0.035 A 
HETATM   11  C8  UNL     1      23.047   6.448  46.719  1.00  0.00     0.029 A 
HETATM   12  C9  UNL     1      23.601   7.699  46.412  1.00  0.00     0.002 A 
HETATM   13  C10 UNL     1      24.512   8.160  47.342  1.00  0.00     0.001 A 
HETATM   14  C11 UNL     1      24.803   7.398  48.453  1.00  0.00     0.010 A 
HETATM   15  C12 UNL     1      24.233   6.152  48.733  1.00  0.00    -0.028 A 
HETATM   16  C13 UNL     1      24.761   5.585  49.997  1.00  0.00     0.068 C 
HETATM   17  C14 UNL     1      24.084   6.066  51.208  1.00  0.00    -0.022 C 
HETATM   18  C15 UNL     1      23.417   5.483  52.192  1.00  0.00    -0.004 C 
HETATM   19  C16 UNL     1      23.224   4.096  52.243  1.00  0.00     0.001 C 
HETATM   20  C17 UNL     1      23.258   2.831  51.950  1.00  0.00     0.013 C 
HETATM   21  C18 UNL     1      22.885   1.468  52.282  1.00  0.00    -0.010 A 
HETATM   22  C19 UNL     1      23.809   0.857  53.104  1.00  0.00     0.013 A 
HETATM   23  C20 UNL     1      23.622  -0.424  53.557  1.00  0.00     0.001 A 
HETATM   24  C21 UNL     1      22.481  -1.062  53.154  1.00  0.00     0.002 A 
HETATM   25  C22 UNL     1      21.551  -0.465  52.332  1.00  0.00     0.030 A 
HETATM   26  C23 UNL     1      21.747   0.819  51.884  1.00  0.00     0.040 A 
HETATM   27  N3  UNL     1      20.687   1.241  51.054  1.00  0.00    -0.358 N 
HETATM   28  C24 UNL     1      19.568   2.126  50.988  1.00  0.00     0.283 C 
HETATM   29  O2  UNL     1      19.180   2.715  52.164  1.00  0.00    -0.248 OA
HETATM   30  H9  UNL     1      23.276   3.923  47.308  1.00  0.00     0.160 HD
HETATM   31  H24 UNL     1      20.751   0.678  50.150  1.00  0.00     0.162 HD
ENDROOT
TORSDOF 0
ENDMDL
MODEL 8
REMARK VINA RESULT:      -8.3      3.174      7.954
REMARK  0 active torsions:
REMARK  status: ('A' for Active; 'I' for Inactive)
ROOT
HETATM    1  C1  UNL     1      23.282  -1.221  54.505  1.00  0.00     0.184 C 
HETATM    2  N1  UNL     1      22.334  -0.518  53.666  1.00  0.00    -0.271 N 
HETATM    3  C2  UNL     1      22.635   0.836  53.260  1.00  0.00     0.123 C 
HETATM    4  C3  UNL     1      21.502   1.524  53.103  1.00  0.00    -0.010 C 
HETATM    5  C4  UNL     1      20.945   2.873  52.728  1.00  0.00     0.068 C 
HETATM    6  C5  UNL     1      21.909   3.511  51.752  1.00  0.00     0.119 C 
HETATM    7  C6  UNL     1      23.191   3.738  52.493  1.00  0.00     0.416 C 
HETATM    8  O1  UNL     1      24.237   4.041  53.084  1.00  0.00    -0.428 OA
HETATM    9  N2  UNL     1      21.357   4.764  51.308  1.00  0.00    -0.382 N 
HETATM   10  C7  UNL     1      22.202   5.345  50.310  1.00  0.00     0.035 A 
HETATM   11  C8  UNL     1      23.081   6.347  50.667  1.00  0.00     0.029 A 
HETATM   12  C9  UNL     1      23.985   7.024  49.836  1.00  0.00     0.002 A 
HETATM   13  C10 UNL     1      23.960   6.611  48.518  1.00  0.00     0.001 A 
HETATM   14  C11 UNL     1      23.093   5.614  48.126  1.00  0.00     0.010 A 
HETATM   15  C12 UNL     1      22.202   4.956  48.981  1.00  0.00    -0.028 A 
HETATM   16  C13 UNL     1      21.401   3.943  48.255  1.00  0.00     0.068 C 
HETATM   17  C14 UNL     1      22.066   2.643  48.094  1.00  0.00    -0.022 C 
HETATM   18  C15 UNL     1      21.779   1.403  48.458  1.00  0.00    -0.004 C 
HETATM   19  C16 UNL     1      20.611   1.084  49.162  1.00  0.00     0.001 C 
HETATM   20  C17 UNL     1      19.471   1.183  49.777  1.00  0.00     0.013 C 
HETATM   21  C18 UNL     1      18.388   0.540  50.499  1.00  0.00    -0.010 A 
HETATM   22  C19 UNL     1      17.398   0.080  49.655  1.00  0.00     0.013 A 
HETATM   23  C20 UNL     1      16.302  -0.587  50.142  1.00  0.00     0.001 A 
HETATM   24  C21 UNL     1      16.240  -0.769  51.496  1.00  0.00     0.002 A 
HETATM   25  C22 UNL     1      17.220  -0.313  52.349  1.00  0.00     0.030 A 
HETATM   26  C23 UNL     1      18.314   0.353  51.852  1.00  0.00     0.040 A 
HETATM   27  N3  UNL     1      19.193   0.741  52.887  1.00  0.00    -0.358 N 
HETATM   28  C24 UNL     1      20.476   0.477  53.455  1.00  0.00     0.283 C 
HETATM   29  O2  UNL     1      21.115  -0.660  53.032  1.00  0.00    -0.248 OA
HETATM   30  H9  UNL     1      20.679   5.548  51.271  1.00  0.00     0.160 HD
HETATM   31  H24 UNL     1      18.703   1.505  53.447  1.00  0.00     0.162 HD
ENDROOT
TORSDOF 0
ENDMDL
MODEL 9
REMARK VINA RESULT:      -8.2      2.830      4.405
REMARK  0 active torsions:
REMARK  status: ('A' for Active; 'I' for Inactive)
ROOT
HETATM    1  C1  UNL     1      20.613   6.832  44.531  1.00  0.00     0.184 C 
HETATM    2  N1  UNL     1      21.206   6.257  45.720  1.00  0.00    -0.271 N 
HETATM    3  C2  UNL     1      20.335   5.757  46.760  1.00  0.00     0.123 C 
HETATM    4  C3  UNL     1      20.927   5.889  47.949  1.00  0.00    -0.010 C 
HETATM    5  C4  UNL     1      20.749   5.646  49.425  1.00  0.00     0.068 C 
HETATM    6  C5  UNL     1      19.853   4.437  49.585  1.00  0.00     0.119 C 
HETATM    7  C6  UNL     1      18.515   4.809  49.020  1.00  0.00     0.416 C 
HETATM    8  O1  UNL     1      17.365   5.098  48.662  1.00  0.00    -0.428 OA
HETATM    9  N2  UNL     1      19.737   4.127  50.985  1.00  0.00    -0.382 N 
HETATM   10  C7  UNL     1      18.974   2.930  51.162  1.00  0.00     0.035 A 
HETATM   11  C8  UNL     1      17.642   3.021  51.509  1.00  0.00     0.029 A 
HETATM   12  C9  UNL     1      16.741   1.967  51.715  1.00  0.00     0.002 A 
HETATM   13  C10 UNL     1      17.289   0.711  51.541  1.00  0.00     0.001 A 
HETATM   14  C11 UNL     1      18.617   0.583  51.195  1.00  0.00     0.010 A 
HETATM   15  C12 UNL     1      19.492   1.656  50.996  1.00  0.00    -0.028 A 
HETATM   16  C13 UNL     1      20.853   1.188  50.643  1.00  0.00     0.068 C 
HETATM   17  C14 UNL     1      21.042   0.886  49.218  1.00  0.00    -0.022 C 
HETATM   18  C15 UNL     1      21.851   1.339  48.274  1.00  0.00    -0.004 C 
HETATM   19  C16 UNL     1      22.807   2.332  48.523  1.00  0.00     0.001 C 
HETATM   20  C17 UNL     1      23.537   3.224  49.123  1.00  0.00     0.013 C 
HETATM   21  C18 UNL     1      24.592   4.218  49.053  1.00  0.00    -0.010 A 
HETATM   22  C19 UNL     1      25.840   3.676  49.281  1.00  0.00     0.013 A 
HETATM   23  C20 UNL     1      26.973   4.447  49.225  1.00  0.00     0.001 A 
HETATM   24  C21 UNL     1      26.803   5.774  48.937  1.00  0.00     0.002 A 
HETATM   25  C22 UNL     1      25.564   6.329  48.710  1.00  0.00     0.030 A 
HETATM   26  C23 UNL     1      24.435   5.547  48.766  1.00  0.00     0.040 A 
HETATM   27  N3  UNL     1      23.272   6.306  48.511  1.00  0.00    -0.358 N 
HETATM   28  C24 UNL     1      22.236   6.521  47.553  1.00  0.00     0.283 C 
HETATM   29  O2  UNL     1      22.421   5.969  46.311  1.00  0.00    -0.248 OA
HETATM   30  H9  UNL     1      19.880   4.253  52.005  1.00  0.00     0.160 HD
HETATM   31  H24 UNL     1      23.133   6.958  49.343  1.00  0.00     0.162 HD
ENDROOT
TORSDOF 0
ENDMDL
