MODEL 1
REMARK VINA RESULT:      -8.2      0.000      0.000
REMARK  4 active torsions:
REMARK  status: ('A' for Active; 'I' for Inactive)
REMARK    1  A    between atoms: C7_8  and  N1_9 
REMARK    2  A    between atoms: N1_9  and  C8_10 
REMARK    3  A    between atoms: C10_15  and  C11_16 
REMARK    4  A    between atoms: C11_16  and  C12_17 
ROOT
HETATM    1  C8  UNL     1      23.915   4.957  50.336  1.00  0.00     0.151 C 
HETATM    2  N2  UNL     1      24.392   5.851  51.153  1.00  0.00    -0.162 NA
HETATM    3  N3  UNL     1      23.983   5.856  52.491  1.00  0.00    -0.294 N 
HETATM    4  C9  UNL     1      23.204   4.806  53.123  1.00  0.00     0.267 C 
HETATM    5  N4  UNL     1      23.287   3.638  52.270  1.00  0.00    -0.351 N 
HETATM    6  C10 UNL     1      23.513   2.275  51.944  1.00  0.00     0.012 A 
HETATM    7  C18 UNL     1      23.209   2.564  50.689  1.00  0.00     0.031 A 
HETATM    8  C19 UNL     1      22.948   3.987  50.904  1.00  0.00     0.182 A 
HETATM    9  H8  UNL     1      24.295   6.711  53.026  1.00  0.00     0.184 HD
ENDROOT
BRANCH   1  10
HETATM   10  N1  UNL     1      24.313   4.938  48.994  1.00  0.00    -0.341 N 
HETATM   11  H7  UNL     1      23.612   4.605  48.272  1.00  0.00     0.167 HD
BRANCH  10  12
HETATM   12  C7  UNL     1      25.657   5.385  48.746  1.00  0.00     0.040 A 
HETATM   13  C2  UNL     1      26.780   4.602  48.974  1.00  0.00    -0.035 A 
HETATM   14  C1  UNL     1      26.567   3.233  49.500  1.00  0.00     0.050 C 
HETATM   15  C3  UNL     1      28.035   5.108  48.709  1.00  0.00     0.010 A 
HETATM   16  C4  UNL     1      28.224   6.403  48.212  1.00  0.00     0.020 A 
HETATM   17  C5  UNL     1      27.086   7.177  47.989  1.00  0.00     0.013 A 
HETATM   18 BR1  UNL     1      27.305   8.964  47.305  1.00  0.00    -0.051 Br
HETATM   19  C6  UNL     1      25.833   6.664  48.256  1.00  0.00     0.049 A 
ENDBRANCH  10  12
ENDBRANCH   1  10
BRANCH   6  20
HETATM   20  C11 UNL     1      23.917   1.085  52.727  1.00  0.00     0.095 C 
BRANCH  20  21
HETATM   21  C12 UNL     1      25.405   1.051  52.915  1.00  0.00    -0.053 A 
HETATM   22  C13 UNL     1      26.063  -0.146  52.631  1.00  0.00     0.007 A 
HETATM   23  C14 UNL     1      27.430  -0.292  52.768  1.00  0.00     0.001 A 
HETATM   24  C15 UNL     1      28.154   0.805  53.206  1.00  0.00     0.000 A 
HETATM   25  C16 UNL     1      27.533   2.002  53.494  1.00  0.00     0.001 A 
HETATM   26  C17 UNL     1      26.156   2.122  53.347  1.00  0.00     0.007 A 
ENDBRANCH  20  21
ENDBRANCH   6  20
TORSDOF 4
ENDMDL
MODEL 2
REMARK VINA RESULT:      -8.2      2.932      6.792
REMARK  4 active torsions:
REMARK  status: ('A' for Active; 'I' for Inactive)
REMARK    1  A    between atoms: C7_8  and  N1_9 
REMARK    2  A    between atoms: N1_9  and  C8_10 
REMARK    3  A    between atoms: C10_15  and  C11_16 
REMARK    4  A    between atoms: C11_16  and  C12_17 
ROOT
HETATM    1  C8  UNL     1      22.272   2.454  51.010  1.00  0.00     0.151 C 
HETATM    2  N2  UNL     1      21.854   1.529  50.195  1.00  0.00    -0.162 NA
HETATM    3  N3  UNL     1      22.085   1.660  48.821  1.00  0.00    -0.294 N 
HETATM    4  C9  UNL     1      22.945   2.663  48.218  1.00  0.00     0.267 C 
HETATM    5  N4  UNL     1      23.787   3.195  49.270  1.00  0.00    -0.351 N 
HETATM    6  C10 UNL     1      24.999   3.581  49.900  1.00  0.00     0.012 A 
HETATM    7  C18 UNL     1      24.288   3.964  50.947  1.00  0.00     0.031 A 
HETATM    8  C19 UNL     1      22.979   3.605  50.402  1.00  0.00     0.182 A 
HETATM    9  H8  UNL     1      21.568   0.949  48.236  1.00  0.00     0.184 HD
ENDROOT
BRANCH   1  10
HETATM   10  N1  UNL     1      22.050   2.338  52.388  1.00  0.00    -0.341 N 
HETATM   11  H7  UNL     1      21.433   3.063  52.854  1.00  0.00     0.167 HD
BRANCH  10  12
HETATM   12  C7  UNL     1      22.696   1.222  53.023  1.00  0.00     0.040 A 
HETATM   13  C2  UNL     1      22.022   0.275  53.782  1.00  0.00    -0.035 A 
HETATM   14  C1  UNL     1      20.557   0.436  53.936  1.00  0.00     0.050 C 
HETATM   15  C3  UNL     1      22.718  -0.766  54.358  1.00  0.00     0.010 A 
HETATM   16  C4  UNL     1      24.102  -0.908  54.206  1.00  0.00     0.020 A 
HETATM   17  C5  UNL     1      24.765   0.051  53.441  1.00  0.00     0.013 A 
HETATM   18 BR1  UNL     1      26.669  -0.111  53.208  1.00  0.00    -0.051 Br
HETATM   19  C6  UNL     1      24.062   1.090  52.867  1.00  0.00     0.049 A 
ENDBRANCH  10  12
ENDBRANCH   1  10
BRANCH   6  20
HETATM   20  C11 UNL     1      26.423   3.543  49.496  1.00  0.00     0.095 C 
BRANCH  20  21
HETATM   21  C12 UNL     1      26.845   4.856  48.907  1.00  0.00    -0.053 A 
HETATM   22  C13 UNL     1      28.180   4.994  48.528  1.00  0.00     0.007 A 
HETATM   23  C14 UNL     1      28.679   6.158  47.975  1.00  0.00     0.001 A 
HETATM   24  C15 UNL     1      27.801   7.215  47.800  1.00  0.00     0.000 A 
HETATM   25  C16 UNL     1      26.475   7.111  48.165  1.00  0.00     0.001 A 
HETATM   26  C17 UNL     1      25.999   5.928  48.718  1.00  0.00     0.007 A 
ENDBRANCH  20  21
ENDBRANCH   6  20
TORSDOF 4
ENDMDL
MODEL 3
REMARK VINA RESULT:      -8.1      1.464      2.610
REMARK  4 active torsions:
REMARK  status: ('A' for Active; 'I' for Inactive)
REMARK    1  A    between atoms: C7_8  and  N1_9 
REMARK    2  A    between atoms: N1_9  and  C8_10 
REMARK    3  A    between atoms: C10_15  and  C11_16 
REMARK    4  A    between atoms: C11_16  and  C12_17 
ROOT
HETATM    1  C8  UNL     1      24.015   5.067  50.245  1.00  0.00     0.151 C 
HETATM    2  N2  UNL     1      24.453   5.952  51.094  1.00  0.00    -0.162 NA
HETATM    3  N3  UNL     1      24.078   5.867  52.439  1.00  0.00    -0.294 N 
HETATM    4  C9  UNL     1      23.387   4.738  53.036  1.00  0.00     0.267 C 
HETATM    5  N4  UNL     1      23.524   3.619  52.125  1.00  0.00    -0.351 N 
HETATM    6  C10 UNL     1      23.832   2.291  51.729  1.00  0.00     0.012 A 
HETATM    7  C18 UNL     1      23.478   2.619  50.497  1.00  0.00     0.031 A 
HETATM    8  C19 UNL     1      23.130   4.009  50.786  1.00  0.00     0.182 A 
HETATM    9  H8  UNL     1      24.347   6.714  53.008  1.00  0.00     0.184 HD
ENDROOT
BRANCH   1  10
HETATM   10  N1  UNL     1      24.381   5.138  48.895  1.00  0.00    -0.341 N 
HETATM   11  H7  UNL     1      23.659   4.861  48.170  1.00  0.00     0.167 HD
BRANCH  10  12
HETATM   12  C7  UNL     1      25.721   5.592  48.645  1.00  0.00     0.040 A 
HETATM   13  C2  UNL     1      26.849   4.815  48.872  1.00  0.00    -0.035 A 
HETATM   14  C1  UNL     1      26.644   3.446  49.400  1.00  0.00     0.050 C 
HETATM   15  C3  UNL     1      28.101   5.327  48.605  1.00  0.00     0.010 A 
HETATM   16  C4  UNL     1      28.283   6.621  48.106  1.00  0.00     0.020 A 
HETATM   17  C5  UNL     1      27.140   7.390  47.883  1.00  0.00     0.013 A 
HETATM   18 BR1  UNL     1      27.350   9.176  47.196  1.00  0.00    -0.051 Br
HETATM   19  C6  UNL     1      25.891   6.871  48.153  1.00  0.00     0.049 A 
ENDBRANCH  10  12
ENDBRANCH   1  10
BRANCH   6  20
HETATM   20  C11 UNL     1      24.333   1.096  52.444  1.00  0.00     0.095 C 
BRANCH  20  21
HETATM   21  C12 UNL     1      23.222   0.418  53.190  1.00  0.00    -0.053 A 
HETATM   22  C13 UNL     1      23.572  -0.576  54.104  1.00  0.00     0.007 A 
HETATM   23  C14 UNL     1      22.633  -1.267  54.846  1.00  0.00     0.001 A 
HETATM   24  C15 UNL     1      21.299  -0.943  54.658  1.00  0.00     0.000 A 
HETATM   25  C16 UNL     1      20.920   0.036  53.762  1.00  0.00     0.001 A 
HETATM   26  C17 UNL     1      21.886   0.716  53.029  1.00  0.00     0.007 A 
ENDBRANCH  20  21
ENDBRANCH   6  20
TORSDOF 4
ENDMDL
MODEL 4
REMARK VINA RESULT:      -8.1      2.372      5.904
REMARK  4 active torsions:
REMARK  status: ('A' for Active; 'I' for Inactive)
REMARK    1  A    between atoms: C7_8  and  N1_9 
REMARK    2  A    between atoms: N1_9  and  C8_10 
REMARK    3  A    between atoms: C10_15  and  C11_16 
REMARK    4  A    between atoms: C11_16  and  C12_17 
ROOT
HETATM    1  C8  UNL     1      22.449   2.468  51.504  1.00  0.00     0.151 C 
HETATM    2  N2  UNL     1      22.666   1.738  50.449  1.00  0.00    -0.162 NA
HETATM    3  N3  UNL     1      22.505   2.295  49.175  1.00  0.00    -0.294 N 
HETATM    4  C9  UNL     1      22.303   3.708  48.909  1.00  0.00     0.267 C 
HETATM    5  N4  UNL     1      22.693   4.430  50.103  1.00  0.00    -0.351 N 
HETATM    6  C10 UNL     1      23.374   5.414  50.867  1.00  0.00     0.012 A 
HETATM    7  C18 UNL     1      22.787   4.925  51.947  1.00  0.00     0.031 A 
HETATM    8  C19 UNL     1      22.035   3.872  51.267  1.00  0.00     0.182 A 
HETATM    9  H8  UNL     1      22.543   1.585  48.395  1.00  0.00     0.184 HD
ENDROOT
BRANCH   1  10
HETATM   10  N1  UNL     1      22.606   1.927  52.785  1.00  0.00    -0.341 N 
HETATM   11  H7  UNL     1      21.835   2.095  53.494  1.00  0.00     0.167 HD
BRANCH  10  12
HETATM   12  C7  UNL     1      23.820   1.187  52.995  1.00  0.00     0.040 A 
HETATM   13  C2  UNL     1      23.857  -0.186  53.197  1.00  0.00    -0.035 A 
HETATM   14  C1  UNL     1      22.566  -0.915  53.192  1.00  0.00     0.050 C 
HETATM   15  C3  UNL     1      25.066  -0.820  53.392  1.00  0.00     0.010 A 
HETATM   16  C4  UNL     1      26.278  -0.121  53.394  1.00  0.00     0.020 A 
HETATM   17  C5  UNL     1      26.225   1.258  53.190  1.00  0.00     0.013 A 
HETATM   18 BR1  UNL     1      27.873   2.254  53.186  1.00  0.00    -0.051 Br
HETATM   19  C6  UNL     1      25.012   1.885  52.996  1.00  0.00     0.049 A 
ENDBRANCH  10  12
ENDBRANCH   1  10
BRANCH   6  20
HETATM   20  C11 UNL     1      24.324   6.499  50.531  1.00  0.00     0.095 C 
BRANCH  20  21
HETATM   21  C12 UNL     1      25.531   5.951  49.830  1.00  0.00    -0.053 A 
HETATM   22  C13 UNL     1      25.794   4.588  49.966  1.00  0.00     0.007 A 
HETATM   23  C14 UNL     1      26.877   3.977  49.365  1.00  0.00     0.001 A 
HETATM   24  C15 UNL     1      27.721   4.768  48.602  1.00  0.00     0.000 A 
HETATM   25  C16 UNL     1      27.489   6.119  48.447  1.00  0.00     0.001 A 
HETATM   26  C17 UNL     1      26.391   6.708  49.063  1.00  0.00     0.007 A 
ENDBRANCH  20  21
ENDBRANCH   6  20
TORSDOF 4
ENDMDL
MODEL 5
REMARK VINA RESULT:      -8.1      2.617      4.219
REMARK  4 active torsions:
REMARK  status: ('A' for Active; 'I' for Inactive)
REMARK    1  A    between atoms: C7_8  and  N1_9 
REMARK    2  A    between atoms: N1_9  and  C8_10 
REMARK    3  A    between atoms: C10_15  and  C11_16 
REMARK    4  A    between atoms: C11_16  and  C12_17 
ROOT
HETATM    1  C8  UNL     1      25.968   2.848  50.986  1.00  0.00     0.151 C 
HETATM    2  N2  UNL     1      27.160   2.612  51.455  1.00  0.00    -0.162 NA
HETATM    3  N3  UNL     1      27.332   2.375  52.823  1.00  0.00    -0.294 N 
HETATM    4  C9  UNL     1      26.250   2.166  53.770  1.00  0.00     0.267 C 
HETATM    5  N4  UNL     1      25.062   1.854  53.002  1.00  0.00    -0.351 N 
HETATM    6  C10 UNL     1      23.907   1.117  52.628  1.00  0.00     0.012 A 
HETATM    7  C18 UNL     1      23.695   2.009  51.674  1.00  0.00     0.031 A 
HETATM    8  C19 UNL     1      24.857   2.847  51.966  1.00  0.00     0.182 A 
HETATM    9  H8  UNL     1      28.343   2.359  53.126  1.00  0.00     0.184 HD
ENDROOT
BRANCH   1  10
HETATM   10  N1  UNL     1      25.779   3.087  49.619  1.00  0.00    -0.341 N 
HETATM   11  H7  UNL     1      25.336   2.319  49.037  1.00  0.00     0.167 HD
BRANCH  10  12
HETATM   12  C7  UNL     1      26.215   4.375  49.155  1.00  0.00     0.040 A 
HETATM   13  C2  UNL     1      25.364   5.458  48.987  1.00  0.00    -0.035 A 
HETATM   14  C1  UNL     1      23.931   5.261  49.310  1.00  0.00     0.050 C 
HETATM   15  C3  UNL     1      25.863   6.662  48.536  1.00  0.00     0.010 A 
HETATM   16  C4  UNL     1      27.219   6.836  48.234  1.00  0.00     0.020 A 
HETATM   17  C5  UNL     1      28.062   5.738  48.407  1.00  0.00     0.013 A 
HETATM   18 BR1  UNL     1      29.933   5.940  48.003  1.00  0.00    -0.051 Br
HETATM   19  C6  UNL     1      27.554   4.538  48.859  1.00  0.00     0.049 A 
ENDBRANCH  10  12
ENDBRANCH   1  10
BRANCH   6  20
HETATM   20  C11 UNL     1      23.269  -0.118  53.136  1.00  0.00     0.095 C 
BRANCH  20  21
HETATM   21  C12 UNL     1      21.800  -0.123  52.830  1.00  0.00    -0.053 A 
HETATM   22  C13 UNL     1      21.407   0.256  51.546  1.00  0.00     0.007 A 
HETATM   23  C14 UNL     1      20.083   0.288  51.154  1.00  0.00     0.001 A 
HETATM   24  C15 UNL     1      19.126  -0.074  52.088  1.00  0.00     0.000 A 
HETATM   25  C16 UNL     1      19.481  -0.454  53.365  1.00  0.00     0.001 A 
HETATM   26  C17 UNL     1      20.822  -0.478  53.734  1.00  0.00     0.007 A 
ENDBRANCH  20  21
ENDBRANCH   6  20
TORSDOF 4
ENDMDL
MODEL 6
REMARK VINA RESULT:      -8.0      1.945      2.906
REMARK  4 active torsions:
REMARK  status: ('A' for Active; 'I' for Inactive)
REMARK    1  A    between atoms: C7_8  and  N1_9 
REMARK    2  A    between atoms: N1_9  and  C8_10 
REMARK    3  A    between atoms: C10_15  and  C11_16 
REMARK    4  A    between atoms: C11_16  and  C12_17 
ROOT
HETATM    1  C8  UNL     1      23.683   3.416  51.706  1.00  0.00     0.151 C 
HETATM    2  N2  UNL     1      22.467   3.559  52.147  1.00  0.00    -0.162 NA
HETATM    3  N3  UNL     1      21.596   2.463  52.146  1.00  0.00    -0.294 N 
HETATM    4  C9  UNL     1      21.991   1.092  51.875  1.00  0.00     0.267 C 
HETATM    5  N4  UNL     1      23.432   1.025  52.011  1.00  0.00    -0.351 N 
HETATM    6  C10 UNL     1      24.675   0.525  52.480  1.00  0.00     0.012 A 
HETATM    7  C18 UNL     1      25.277   1.465  51.770  1.00  0.00     0.031 A 
HETATM    8  C19 UNL     1      24.061   2.066  51.224  1.00  0.00     0.182 A 
HETATM    9  H8  UNL     1      20.596   2.718  52.365  1.00  0.00     0.184 HD
ENDROOT
BRANCH   1  10
HETATM   10  N1  UNL     1      24.567   4.502  51.701  1.00  0.00    -0.341 N 
HETATM   11  H7  UNL     1      25.205   4.628  52.539  1.00  0.00     0.167 HD
BRANCH  10  12
HETATM   12  C7  UNL     1      24.506   5.338  50.533  1.00  0.00     0.040 A 
HETATM   13  C2  UNL     1      25.403   5.247  49.478  1.00  0.00    -0.035 A 
HETATM   14  C1  UNL     1      26.474   4.228  49.573  1.00  0.00     0.050 C 
HETATM   15  C3  UNL     1      25.274   6.088  48.392  1.00  0.00     0.010 A 
HETATM   16  C4  UNL     1      24.258   7.047  48.313  1.00  0.00     0.020 A 
HETATM   17  C5  UNL     1      23.365   7.127  49.382  1.00  0.00     0.013 A 
HETATM   18 BR1  UNL     1      21.953   8.433  49.309  1.00  0.00    -0.051 Br
HETATM   19  C6  UNL     1      23.500   6.281  50.464  1.00  0.00     0.049 A 
ENDBRANCH  10  12
ENDBRANCH   1  10
BRANCH   6  20
HETATM   20  C11 UNL     1      25.062  -0.584  53.380  1.00  0.00     0.095 C 
BRANCH  20  21
HETATM   21  C12 UNL     1      26.532  -0.543  53.676  1.00  0.00    -0.053 A 
HETATM   22  C13 UNL     1      27.366  -1.362  52.915  1.00  0.00     0.007 A 
HETATM   23  C14 UNL     1      28.734  -1.405  53.101  1.00  0.00     0.001 A 
HETATM   24  C15 UNL     1      29.276  -0.596  54.086  1.00  0.00     0.000 A 
HETATM   25  C16 UNL     1      28.479   0.225  54.855  1.00  0.00     0.001 A 
HETATM   26  C17 UNL     1      27.104   0.250  54.647  1.00  0.00     0.007 A 
ENDBRANCH  20  21
ENDBRANCH   6  20
TORSDOF 4
ENDMDL
MODEL 7
REMARK VINA RESULT:      -7.9      4.034      6.631
REMARK  4 active torsions:
REMARK  status: ('A' for Active; 'I' for Inactive)
REMARK    1  A    between atoms: C7_8  and  N1_9 
REMARK    2  A    between atoms: N1_9  and  C8_10 
REMARK    3  A    between atoms: C10_15  and  C11_16 
REMARK    4  A    between atoms: C11_16  and  C12_17 
ROOT
HETATM    1  C8  UNL     1      21.942   2.407  51.285  1.00  0.00     0.151 C 
HETATM    2  N2  UNL     1      21.563   1.579  50.355  1.00  0.00    -0.162 NA
HETATM    3  N3  UNL     1      22.094   1.694  49.066  1.00  0.00    -0.294 N 
HETATM    4  C9  UNL     1      23.209   2.551  48.703  1.00  0.00     0.267 C 
HETATM    5  N4  UNL     1      23.885   2.919  49.931  1.00  0.00    -0.351 N 
HETATM    6  C10 UNL     1      24.984   3.087  50.814  1.00  0.00     0.012 A 
HETATM    7  C18 UNL     1      24.139   3.564  51.713  1.00  0.00     0.031 A 
HETATM    8  C19 UNL     1      22.934   3.436  50.894  1.00  0.00     0.182 A 
HETATM    9  H8  UNL     1      21.607   1.089  48.352  1.00  0.00     0.184 HD
ENDROOT
BRANCH   1  10
HETATM   10  N1  UNL     1      21.420   2.305  52.580  1.00  0.00    -0.341 N 
HETATM   11  H7  UNL     1      21.241   3.203  53.116  1.00  0.00     0.167 HD
BRANCH  10  12
HETATM   12  C7  UNL     1      21.180   0.966  53.043  1.00  0.00     0.040 A 
HETATM   13  C2  UNL     1      22.174   0.140  53.550  1.00  0.00    -0.035 A 
HETATM   14  C1  UNL     1      23.551   0.684  53.614  1.00  0.00     0.050 C 
HETATM   15  C3  UNL     1      21.859  -1.134  53.973  1.00  0.00     0.010 A 
HETATM   16  C4  UNL     1      20.555  -1.637  53.908  1.00  0.00     0.020 A 
HETATM   17  C5  UNL     1      19.567  -0.796  53.395  1.00  0.00     0.013 A 
HETATM   18 BR1  UNL     1      17.760  -1.451  53.290  1.00  0.00    -0.051 Br
HETATM   19  C6  UNL     1      19.890   0.478  52.975  1.00  0.00     0.049 A 
ENDBRANCH  10  12
ENDBRANCH   1  10
BRANCH   6  20
HETATM   20  C11 UNL     1      26.436   2.821  50.708  1.00  0.00     0.095 C 
BRANCH  20  21
HETATM   21  C12 UNL     1      26.877   1.844  51.757  1.00  0.00    -0.053 A 
HETATM   22  C13 UNL     1      26.537   0.504  51.574  1.00  0.00     0.007 A 
HETATM   23  C14 UNL     1      26.890  -0.482  52.476  1.00  0.00     0.001 A 
HETATM   24  C15 UNL     1      27.609  -0.101  53.597  1.00  0.00     0.000 A 
HETATM   25  C16 UNL     1      27.962   1.216  53.807  1.00  0.00     0.001 A 
HETATM   26  C17 UNL     1      27.594   2.188  52.884  1.00  0.00     0.007 A 
ENDBRANCH  20  21
ENDBRANCH   6  20
TORSDOF 4
ENDMDL
MODEL 8
REMARK VINA RESULT:      -7.9      3.840      6.655
REMARK  4 active torsions:
REMARK  status: ('A' for Active; 'I' for Inactive)
REMARK    1  A    between atoms: C7_8  and  N1_9 
REMARK    2  A    between atoms: N1_9  and  C8_10 
REMARK    3  A    between atoms: C10_15  and  C11_16 
REMARK    4  A    between atoms: C11_16  and  C12_17 
ROOT
HETATM    1  C8  UNL     1      21.622   2.079  51.471  1.00  0.00     0.151 C 
HETATM    2  N2  UNL     1      21.376   1.241  50.505  1.00  0.00    -0.162 NA
HETATM    3  N3  UNL     1      21.978   1.428  49.255  1.00  0.00    -0.294 N 
HETATM    4  C9  UNL     1      23.035   2.385  48.981  1.00  0.00     0.267 C 
HETATM    5  N4  UNL     1      23.597   2.783  50.256  1.00  0.00    -0.351 N 
HETATM    6  C10 UNL     1      24.618   3.026  51.212  1.00  0.00     0.012 A 
HETATM    7  C18 UNL     1      23.678   3.410  52.060  1.00  0.00     0.031 A 
HETATM    8  C19 UNL     1      22.544   3.197  51.161  1.00  0.00     0.182 A 
HETATM    9  H8  UNL     1      21.591   0.799  48.501  1.00  0.00     0.184 HD
ENDROOT
BRANCH   1  10
HETATM   10  N1  UNL     1      21.028   1.906  52.727  1.00  0.00    -0.341 N 
HETATM   11  H7  UNL     1      20.493   2.723  53.141  1.00  0.00     0.167 HD
BRANCH  10  12
HETATM   12  C7  UNL     1      21.216   0.611  53.322  1.00  0.00     0.040 A 
HETATM   13  C2  UNL     1      20.249  -0.384  53.313  1.00  0.00    -0.035 A 
HETATM   14  C1  UNL     1      18.959  -0.082  52.649  1.00  0.00     0.050 C 
HETATM   15  C3  UNL     1      20.510  -1.601  53.908  1.00  0.00     0.010 A 
HETATM   16  C4  UNL     1      21.732  -1.875  54.532  1.00  0.00     0.020 A 
HETATM   17  C5  UNL     1      22.693  -0.864  54.534  1.00  0.00     0.013 A 
HETATM   18 BR1  UNL     1      24.388  -1.204  55.382  1.00  0.00    -0.051 Br
HETATM   19  C6  UNL     1      22.425   0.350  53.936  1.00  0.00     0.049 A 
ENDBRANCH  10  12
ENDBRANCH   1  10
BRANCH   6  20
HETATM   20  C11 UNL     1      26.091   2.887  51.197  1.00  0.00     0.095 C 
BRANCH  20  21
HETATM   21  C12 UNL     1      26.531   1.781  52.111  1.00  0.00    -0.053 A 
HETATM   22  C13 UNL     1      26.422   0.473  51.639  1.00  0.00     0.007 A 
HETATM   23  C14 UNL     1      26.797  -0.622  52.394  1.00  0.00     0.001 A 
HETATM   24  C15 UNL     1      27.297  -0.387  53.664  1.00  0.00     0.000 A 
HETATM   25  C16 UNL     1      27.418   0.894  54.160  1.00  0.00     0.001 A 
HETATM   26  C17 UNL     1      27.034   1.978  53.379  1.00  0.00     0.007 A 
ENDBRANCH  20  21
ENDBRANCH   6  20
TORSDOF 4
ENDMDL
MODEL 9
REMARK VINA RESULT:      -7.8      2.454      3.516
REMARK  4 active torsions:
REMARK  status: ('A' for Active; 'I' for Inactive)
REMARK    1  A    between atoms: C7_8  and  N1_9 
REMARK    2  A    between atoms: N1_9  and  C8_10 
REMARK    3  A    between atoms: C10_15  and  C11_16 
REMARK    4  A    between atoms: C11_16  and  C12_17 
ROOT
HETATM    1  C8  UNL     1      23.364   4.670  50.873  1.00  0.00     0.151 C 
HETATM    2  N2  UNL     1      22.515   5.353  51.585  1.00  0.00    -0.162 NA
HETATM    3  N3  UNL     1      21.152   5.309  51.270  1.00  0.00    -0.294 N 
HETATM    4  C9  UNL     1      20.552   4.390  50.319  1.00  0.00     0.267 C 
HETATM    5  N4  UNL     1      21.507   3.325  50.088  1.00  0.00    -0.351 N 
HETATM    6  C10 UNL     1      21.967   1.986  49.988  1.00  0.00     0.012 A 
HETATM    7  C18 UNL     1      23.162   2.461  49.678  1.00  0.00     0.031 A 
HETATM    8  C19 UNL     1      22.804   3.877  49.753  1.00  0.00     0.182 A 
HETATM    9  H8  UNL     1      20.573   6.017  51.796  1.00  0.00     0.184 HD
ENDROOT
BRANCH   1  10
HETATM   10  N1  UNL     1      24.731   4.704  51.174  1.00  0.00    -0.341 N 
HETATM   11  H7  UNL     1      25.054   4.236  52.069  1.00  0.00     0.167 HD
BRANCH  10  12
HETATM   12  C7  UNL     1      25.555   5.384  50.213  1.00  0.00     0.040 A 
HETATM   13  C2  UNL     1      26.476   4.738  49.400  1.00  0.00    -0.035 A 
HETATM   14  C1  UNL     1      26.604   3.268  49.541  1.00  0.00     0.050 C 
HETATM   15  C3  UNL     1      27.229   5.465  48.502  1.00  0.00     0.010 A 
HETATM   16  C4  UNL     1      27.100   6.852  48.378  1.00  0.00     0.020 A 
HETATM   17  C5  UNL     1      26.171   7.487  49.202  1.00  0.00     0.013 A 
HETATM   18 BR1  UNL     1      25.964   9.396  49.059  1.00  0.00    -0.051 Br
HETATM   19  C6  UNL     1      25.421   6.753  50.097  1.00  0.00     0.049 A 
ENDBRANCH  10  12
ENDBRANCH   1  10
BRANCH   6  20
HETATM   20  C11 UNL     1      21.325   0.664  50.165  1.00  0.00     0.095 C 
BRANCH  20  21
HETATM   21  C12 UNL     1      21.202   0.323  51.621  1.00  0.00    -0.053 A 
HETATM   22  C13 UNL     1      22.380   0.194  52.356  1.00  0.00     0.007 A 
HETATM   23  C14 UNL     1      22.386  -0.117  53.701  1.00  0.00     0.001 A 
HETATM   24  C15 UNL     1      21.162  -0.304  54.324  1.00  0.00     0.000 A 
HETATM   25  C16 UNL     1      19.979  -0.182  53.626  1.00  0.00     0.001 A 
HETATM   26  C17 UNL     1      20.002   0.132  52.272  1.00  0.00     0.007 A 
ENDBRANCH  20  21
ENDBRANCH   6  20
TORSDOF 4
ENDMDL
