MODEL 1
REMARK VINA RESULT:      -8.2      0.000      0.000
REMARK  5 active torsions:
REMARK  status: ('A' for Active; 'I' for Inactive)
REMARK    1  A    between atoms: C2_2  and  C3_3 
REMARK    2  A    between atoms: C3_3  and  C4_4 
REMARK    3  A    between atoms: C8_9  and  N2_10 
REMARK    4  A    between atoms: N2_10  and  C9_11 
REMARK       I    between atoms: N3_22  and  C19_23 
REMARK    5  A    between atoms: C19_23  and  C20_25 
ROOT
HETATM    1  C4  UNL     1      20.521   1.264  51.799  1.00  0.00     0.145 C 
HETATM    2  C5  UNL     1      22.025   1.356  51.840  1.00  0.00     0.070 A 
HETATM    3  N1  UNL     1      22.485   2.161  50.838  1.00  0.00    -0.262 NA
HETATM    4  C6  UNL     1      23.803   2.413  50.784  1.00  0.00     0.119 A 
HETATM    5  C7  UNL     1      24.753   1.934  51.652  1.00  0.00     0.049 A 
HETATM    6  C8  UNL     1      24.247   1.119  52.654  1.00  0.00     0.046 A 
HETATM    7  C16 UNL     1      22.906   0.832  52.750  1.00  0.00     0.019 A 
HETATM    8  C17 UNL     1      22.293  -0.085  53.731  1.00  0.00     0.033 C 
HETATM    9  C18 UNL     1      21.001  -0.346  53.672  1.00  0.00     0.096 C 
HETATM   10  N3  UNL     1      20.136   0.204  52.693  1.00  0.00    -0.317 N 
HETATM   11  C19 UNL     1      18.870  -0.429  52.675  1.00  0.00     0.224 C 
HETATM   12  O1  UNL     1      18.563  -1.346  53.457  1.00  0.00    -0.273 OA
ENDROOT
BRANCH   6  13
HETATM   13  N2  UNL     1      25.109   0.537  53.615  1.00  0.00    -0.355 N 
HETATM   14  H11 UNL     1      24.831   0.113  54.499  1.00  0.00     0.166 HD
BRANCH  13  15
HETATM   15  C9  UNL     1      26.516   0.398  53.595  1.00  0.00     0.033 A 
HETATM   16  C10 UNL     1      27.417   1.426  53.828  1.00  0.00     0.032 A 
HETATM   17  C11 UNL     1      28.791   1.343  53.843  1.00  0.00     0.045 A 
HETATM   18  C12 UNL     1      29.228   0.059  53.588  1.00  0.00     0.122 A 
HETATM   19  F1  UNL     1      30.586  -0.158  53.576  1.00  0.00    -0.206 F 
HETATM   20  C13 UNL     1      28.441  -1.042  53.344  1.00  0.00    -0.021 A 
HETATM   21  C14 UNL     1      29.043  -2.393  53.083  1.00  0.00     0.051 C 
HETATM   22  C15 UNL     1      27.053  -0.857  53.350  1.00  0.00     0.039 A 
ENDBRANCH  13  15
ENDBRANCH   6  13
BRANCH   1  23
HETATM   23  C3  UNL     1      20.029   2.574  52.333  1.00  0.00     0.032 C 
BRANCH  23  24
HETATM   24  C2  UNL     1      19.037   3.322  51.554  1.00  0.00    -0.002 C 
HETATM   25  C1  UNL     1      19.015   3.069  50.087  1.00  0.00     0.005 C 
ENDBRANCH  23  24
ENDBRANCH   1  23
BRANCH  11  26
HETATM   26  C20 UNL     1      17.510  -0.639  52.167  1.00  0.00     0.099 C 
HETATM   27  C21 UNL     1      17.353  -0.143  50.747  1.00  0.00     0.014 C 
ENDBRANCH  11  26
TORSDOF 5
ENDMDL
MODEL 2
REMARK VINA RESULT:      -8.2      0.498      1.370
REMARK  5 active torsions:
REMARK  status: ('A' for Active; 'I' for Inactive)
REMARK    1  A    between atoms: C2_2  and  C3_3 
REMARK    2  A    between atoms: C3_3  and  C4_4 
REMARK    3  A    between atoms: C8_9  and  N2_10 
REMARK    4  A    between atoms: N2_10  and  C9_11 
REMARK       I    between atoms: N3_22  and  C19_23 
REMARK    5  A    between atoms: C19_23  and  C20_25 
ROOT
HETATM    1  C4  UNL     1      20.413   1.084  51.826  1.00  0.00     0.145 C 
HETATM    2  C5  UNL     1      21.919   1.118  51.872  1.00  0.00     0.070 A 
HETATM    3  N1  UNL     1      22.413   1.926  50.888  1.00  0.00    -0.262 NA
HETATM    4  C6  UNL     1      23.739   2.128  50.841  1.00  0.00     0.119 A 
HETATM    5  C7  UNL     1      24.668   1.595  51.700  1.00  0.00     0.049 A 
HETATM    6  C8  UNL     1      24.129   0.779  52.685  1.00  0.00     0.046 A 
HETATM    7  C16 UNL     1      22.778   0.541  52.772  1.00  0.00     0.019 A 
HETATM    8  C17 UNL     1      22.127  -0.371  53.733  1.00  0.00     0.033 C 
HETATM    9  C18 UNL     1      20.826  -0.582  53.666  1.00  0.00     0.096 C 
HETATM   10  N3  UNL     1      19.985   0.021  52.698  1.00  0.00    -0.317 N 
HETATM   11  C19 UNL     1      18.697  -0.562  52.664  1.00  0.00     0.224 C 
HETATM   12  O1  UNL     1      18.353  -1.483  53.427  1.00  0.00    -0.273 OA
ENDROOT
BRANCH   6  13
HETATM   13  N2  UNL     1      24.965   0.145  53.635  1.00  0.00    -0.355 N 
HETATM   14  H11 UNL     1      24.669  -0.286  54.509  1.00  0.00     0.166 HD
BRANCH  13  15
HETATM   15  C9  UNL     1      26.366  -0.048  53.614  1.00  0.00     0.033 A 
HETATM   16  C10 UNL     1      27.003  -1.186  53.144  1.00  0.00     0.032 A 
HETATM   17  C11 UNL     1      28.358  -1.417  53.079  1.00  0.00     0.045 A 
HETATM   18  C12 UNL     1      29.083  -0.344  53.557  1.00  0.00     0.122 A 
HETATM   19  F1  UNL     1      30.453  -0.449  53.545  1.00  0.00    -0.206 F 
HETATM   20  C13 UNL     1      28.574   0.836  54.047  1.00  0.00    -0.021 A 
HETATM   21  C14 UNL     1      29.474   1.934  54.536  1.00  0.00     0.051 C 
HETATM   22  C15 UNL     1      27.181   0.978  54.072  1.00  0.00     0.039 A 
ENDBRANCH  13  15
ENDBRANCH   6  13
BRANCH   1  23
HETATM   23  C3  UNL     1      19.970   2.401  52.387  1.00  0.00     0.032 C 
BRANCH  23  24
HETATM   24  C2  UNL     1      19.006   3.200  51.625  1.00  0.00    -0.002 C 
HETATM   25  C1  UNL     1      19.567   4.270  50.755  1.00  0.00     0.005 C 
ENDBRANCH  23  24
ENDBRANCH   1  23
BRANCH  11  26
HETATM   26  C20 UNL     1      17.331  -0.709  52.150  1.00  0.00     0.099 C 
HETATM   27  C21 UNL     1      17.211  -0.239  50.717  1.00  0.00     0.014 C 
ENDBRANCH  11  26
TORSDOF 5
ENDMDL
MODEL 3
REMARK VINA RESULT:      -8.2      4.549      6.714
REMARK  5 active torsions:
REMARK  status: ('A' for Active; 'I' for Inactive)
REMARK    1  A    between atoms: C2_2  and  C3_3 
REMARK    2  A    between atoms: C3_3  and  C4_4 
REMARK    3  A    between atoms: C8_9  and  N2_10 
REMARK    4  A    between atoms: N2_10  and  C9_11 
REMARK       I    between atoms: N3_22  and  C19_23 
REMARK    5  A    between atoms: C19_23  and  C20_25 
ROOT
HETATM    1  C4  UNL     1      25.291   5.980  49.688  1.00  0.00     0.145 C 
HETATM    2  C5  UNL     1      24.923   4.867  50.636  1.00  0.00     0.070 A 
HETATM    3  N1  UNL     1      23.912   5.256  51.467  1.00  0.00    -0.262 NA
HETATM    4  C6  UNL     1      23.412   4.350  52.322  1.00  0.00     0.119 A 
HETATM    5  C7  UNL     1      23.821   3.045  52.447  1.00  0.00     0.049 A 
HETATM    6  C8  UNL     1      24.851   2.688  51.588  1.00  0.00     0.046 A 
HETATM    7  C16 UNL     1      25.396   3.581  50.697  1.00  0.00     0.019 A 
HETATM    8  C17 UNL     1      26.542   3.313  49.805  1.00  0.00     0.033 C 
HETATM    9  C18 UNL     1      27.031   4.278  49.049  1.00  0.00     0.096 C 
HETATM   10  N3  UNL     1      26.520   5.600  49.043  1.00  0.00    -0.317 N 
HETATM   11  C19 UNL     1      27.371   6.503  48.363  1.00  0.00     0.224 C 
HETATM   12  O1  UNL     1      28.431   6.150  47.816  1.00  0.00    -0.273 OA
ENDROOT
BRANCH   6  13
HETATM   13  N2  UNL     1      25.391   1.379  51.613  1.00  0.00    -0.355 N 
HETATM   14  H11 UNL     1      25.042   0.572  51.099  1.00  0.00     0.166 HD
BRANCH  13  15
HETATM   15  C9  UNL     1      26.505   0.879  52.325  1.00  0.00     0.033 A 
HETATM   16  C10 UNL     1      27.352   1.645  53.111  1.00  0.00     0.032 A 
HETATM   17  C11 UNL     1      28.434   1.208  53.841  1.00  0.00     0.045 A 
HETATM   18  C12 UNL     1      28.619  -0.154  53.715  1.00  0.00     0.122 A 
HETATM   19  F1  UNL     1      29.671  -0.716  54.399  1.00  0.00    -0.206 F 
HETATM   20  C13 UNL     1      27.853  -1.021  52.972  1.00  0.00    -0.021 A 
HETATM   21  C14 UNL     1      28.158  -2.490  52.920  1.00  0.00     0.051 C 
HETATM   22  C15 UNL     1      26.772  -0.481  52.263  1.00  0.00     0.039 A 
ENDBRANCH  13  15
ENDBRANCH   6  13
BRANCH   1  23
HETATM   23  C3  UNL     1      24.186   6.020  48.678  1.00  0.00     0.032 C 
BRANCH  23  24
HETATM   24  C2  UNL     1      23.560   7.310  48.372  1.00  0.00    -0.002 C 
HETATM   25  C1  UNL     1      23.831   8.423  49.324  1.00  0.00     0.005 C 
ENDBRANCH  23  24
ENDBRANCH   1  23
BRANCH  11  26
HETATM   26  C20 UNL     1      27.759   7.829  47.870  1.00  0.00     0.099 C 
HETATM   27  C21 UNL     1      26.816   8.335  46.800  1.00  0.00     0.014 C 
ENDBRANCH  11  26
TORSDOF 5
ENDMDL
MODEL 4
REMARK VINA RESULT:      -8.2      4.812      7.442
REMARK  5 active torsions:
REMARK  status: ('A' for Active; 'I' for Inactive)
REMARK    1  A    between atoms: C2_2  and  C3_3 
REMARK    2  A    between atoms: C3_3  and  C4_4 
REMARK    3  A    between atoms: C8_9  and  N2_10 
REMARK    4  A    between atoms: N2_10  and  C9_11 
REMARK       I    between atoms: N3_22  and  C19_23 
REMARK    5  A    between atoms: C19_23  and  C20_25 
ROOT
HETATM    1  C4  UNL     1      25.768   6.025  49.524  1.00  0.00     0.145 C 
HETATM    2  C5  UNL     1      24.856   5.159  50.356  1.00  0.00     0.070 A 
HETATM    3  N1  UNL     1      23.947   5.924  51.029  1.00  0.00    -0.262 NA
HETATM    4  C6  UNL     1      23.008   5.298  51.756  1.00  0.00     0.119 A 
HETATM    5  C7  UNL     1      22.866   3.939  51.894  1.00  0.00     0.049 A 
HETATM    6  C8  UNL     1      23.809   3.197  51.198  1.00  0.00     0.046 A 
HETATM    7  C16 UNL     1      24.790   3.793  50.441  1.00  0.00     0.019 A 
HETATM    8  C17 UNL     1      25.877   3.087  49.735  1.00  0.00     0.033 C 
HETATM    9  C18 UNL     1      26.812   3.775  49.106  1.00  0.00     0.096 C 
HETATM   10  N3  UNL     1      26.849   5.191  49.070  1.00  0.00    -0.317 N 
HETATM   11  C19 UNL     1      28.077   5.686  48.571  1.00  0.00     0.224 C 
HETATM   12  O1  UNL     1      28.998   4.943  48.188  1.00  0.00    -0.273 OA
ENDROOT
BRANCH   6  13
HETATM   13  N2  UNL     1      23.801   1.782  51.257  1.00  0.00    -0.355 N 
HETATM   14  H11 UNL     1      23.586   1.146  50.490  1.00  0.00     0.166 HD
BRANCH  13  15
HETATM   15  C9  UNL     1      24.078   0.925  52.347  1.00  0.00     0.033 A 
HETATM   16  C10 UNL     1      25.339   0.693  52.872  1.00  0.00     0.032 A 
HETATM   17  C11 UNL     1      25.663  -0.109  53.942  1.00  0.00     0.045 A 
HETATM   18  C12 UNL     1      24.546  -0.708  54.488  1.00  0.00     0.122 A 
HETATM   19  F1  UNL     1      24.735  -1.537  55.568  1.00  0.00    -0.206 F 
HETATM   20  C13 UNL     1      23.246  -0.561  54.064  1.00  0.00    -0.021 A 
HETATM   21  C14 UNL     1      22.113  -1.268  54.748  1.00  0.00     0.051 C 
HETATM   22  C15 UNL     1      23.017   0.279  52.966  1.00  0.00     0.039 A 
ENDBRANCH  13  15
ENDBRANCH   6  13
BRANCH   1  23
HETATM   23  C3  UNL     1      24.941   6.457  48.352  1.00  0.00     0.032 C 
BRANCH  23  24
HETATM   24  C2  UNL     1      24.879   7.885  48.025  1.00  0.00    -0.002 C 
HETATM   25  C1  UNL     1      25.419   8.826  49.045  1.00  0.00     0.005 C 
ENDBRANCH  23  24
ENDBRANCH   1  23
BRANCH  11  26
HETATM   26  C20 UNL     1      29.013   6.752  48.200  1.00  0.00     0.099 C 
HETATM   27  C21 UNL     1      28.498   7.583  47.046  1.00  0.00     0.014 C 
ENDBRANCH  11  26
TORSDOF 5
ENDMDL
MODEL 5
REMARK VINA RESULT:      -8.2      1.701      3.265
REMARK  5 active torsions:
REMARK  status: ('A' for Active; 'I' for Inactive)
REMARK    1  A    between atoms: C2_2  and  C3_3 
REMARK    2  A    between atoms: C3_3  and  C4_4 
REMARK    3  A    between atoms: C8_9  and  N2_10 
REMARK    4  A    between atoms: N2_10  and  C9_11 
REMARK       I    between atoms: N3_22  and  C19_23 
REMARK    5  A    between atoms: C19_23  and  C20_25 
ROOT
HETATM    1  C4  UNL     1      20.009   1.042  52.779  1.00  0.00     0.145 C 
HETATM    2  C5  UNL     1      21.376   0.562  53.194  1.00  0.00     0.070 A 
HETATM    3  N1  UNL     1      21.286  -0.282  54.264  1.00  0.00    -0.262 NA
HETATM    4  C6  UNL     1      22.411  -0.863  54.708  1.00  0.00     0.119 A 
HETATM    5  C7  UNL     1      23.669  -0.691  54.185  1.00  0.00     0.049 A 
HETATM    6  C8  UNL     1      23.721   0.173  53.102  1.00  0.00     0.046 A 
HETATM    7  C16 UNL     1      22.595   0.793  52.612  1.00  0.00     0.019 A 
HETATM    8  C17 UNL     1      22.569   1.785  51.519  1.00  0.00     0.033 C 
HETATM    9  C18 UNL     1      21.435   2.374  51.190  1.00  0.00     0.096 C 
HETATM   10  N3  UNL     1      20.203   2.118  51.842  1.00  0.00    -0.317 N 
HETATM   11  C19 UNL     1      19.203   3.056  51.494  1.00  0.00     0.224 C 
HETATM   12  O1  UNL     1      19.397   3.980  50.684  1.00  0.00    -0.273 OA
ENDROOT
BRANCH   6  13
HETATM   13  N2  UNL     1      24.953   0.462  52.466  1.00  0.00    -0.355 N 
HETATM   14  H11 UNL     1      25.081   1.005  51.614  1.00  0.00     0.166 HD
BRANCH  13  15
HETATM   15  C9  UNL     1      26.266   0.090  52.838  1.00  0.00     0.033 A 
HETATM   16  C10 UNL     1      26.810  -1.173  52.666  1.00  0.00     0.032 A 
HETATM   17  C11 UNL     1      28.084  -1.583  52.987  1.00  0.00     0.045 A 
HETATM   18  C12 UNL     1      28.828  -0.557  53.534  1.00  0.00     0.122 A 
HETATM   19  F1  UNL     1      30.124  -0.838  53.898  1.00  0.00    -0.206 F 
HETATM   20  C13 UNL     1      28.408   0.733  53.756  1.00  0.00    -0.021 A 
HETATM   21  C14 UNL     1      29.320   1.762  54.359  1.00  0.00     0.051 C 
HETATM   22  C15 UNL     1      27.094   1.055  53.395  1.00  0.00     0.039 A 
ENDBRANCH  13  15
ENDBRANCH   6  13
BRANCH   1  23
HETATM   23  C3  UNL     1      19.376  -0.122  52.081  1.00  0.00     0.032 C 
BRANCH  23  24
HETATM   24  C2  UNL     1      17.977  -0.444  52.380  1.00  0.00    -0.002 C 
HETATM   25  C1  UNL     1      17.740  -1.578  53.317  1.00  0.00     0.005 C 
ENDBRANCH  23  24
ENDBRANCH   1  23
BRANCH  11  26
HETATM   26  C20 UNL     1      17.858   3.637  51.571  1.00  0.00     0.099 C 
HETATM   27  C21 UNL     1      16.842   2.818  50.805  1.00  0.00     0.014 C 
ENDBRANCH  11  26
TORSDOF 5
ENDMDL
MODEL 6
REMARK VINA RESULT:      -8.1      3.781      8.077
REMARK  5 active torsions:
REMARK  status: ('A' for Active; 'I' for Inactive)
REMARK    1  A    between atoms: C2_2  and  C3_3 
REMARK    2  A    between atoms: C3_3  and  C4_4 
REMARK    3  A    between atoms: C8_9  and  N2_10 
REMARK    4  A    between atoms: N2_10  and  C9_11 
REMARK       I    between atoms: N3_22  and  C19_23 
REMARK    5  A    between atoms: C19_23  and  C20_25 
ROOT
HETATM    1  C4  UNL     1      25.447   1.888  52.856  1.00  0.00     0.145 C 
HETATM    2  C5  UNL     1      23.939   1.860  52.841  1.00  0.00     0.070 A 
HETATM    3  N1  UNL     1      23.440   3.057  52.413  1.00  0.00    -0.262 NA
HETATM    4  C6  UNL     1      22.111   3.171  52.266  1.00  0.00     0.119 A 
HETATM    5  C7  UNL     1      21.184   2.188  52.507  1.00  0.00     0.049 A 
HETATM    6  C8  UNL     1      21.729   0.988  52.942  1.00  0.00     0.046 A 
HETATM    7  C16 UNL     1      23.083   0.824  53.109  1.00  0.00     0.019 A 
HETATM    8  C17 UNL     1      23.742  -0.386  53.641  1.00  0.00     0.033 C 
HETATM    9  C18 UNL     1      25.047  -0.396  53.834  1.00  0.00     0.096 C 
HETATM   10  N3  UNL     1      25.886   0.714  53.564  1.00  0.00    -0.317 N 
HETATM   11  C19 UNL     1      27.186   0.550  54.098  1.00  0.00     0.224 C 
HETATM   12  O1  UNL     1      27.540  -0.473  54.710  1.00  0.00    -0.273 OA
ENDROOT
BRANCH   6  13
HETATM   13  N2  UNL     1      20.895  -0.115  53.248  1.00  0.00    -0.355 N 
HETATM   14  H11 UNL     1      21.126  -0.896  53.859  1.00  0.00     0.166 HD
BRANCH  13  15
HETATM   15  C9  UNL     1      19.584  -0.402  52.803  1.00  0.00     0.033 A 
HETATM   16  C10 UNL     1      18.656  -1.154  53.506  1.00  0.00     0.032 A 
HETATM   17  C11 UNL     1      17.363  -1.445  53.134  1.00  0.00     0.045 A 
HETATM   18  C12 UNL     1      17.045  -0.885  51.912  1.00  0.00     0.122 A 
HETATM   19  F1  UNL     1      15.778  -1.102  51.426  1.00  0.00    -0.206 F 
HETATM   20  C13 UNL     1      17.871  -0.122  51.120  1.00  0.00    -0.021 A 
HETATM   21  C14 UNL     1      17.402   0.434  49.807  1.00  0.00     0.051 C 
HETATM   22  C15 UNL     1      19.169   0.120  51.586  1.00  0.00     0.039 A 
ENDBRANCH  13  15
ENDBRANCH   6  13
BRANCH   1  23
HETATM   23  C3  UNL     1      25.858   1.790  51.419  1.00  0.00     0.032 C 
BRANCH  23  24
HETATM   24  C2  UNL     1      26.658   2.874  50.842  1.00  0.00    -0.002 C 
HETATM   25  C1  UNL     1      26.161   3.462  49.567  1.00  0.00     0.005 C 
ENDBRANCH  23  24
ENDBRANCH   1  23
BRANCH  11  26
HETATM   26  C20 UNL     1      28.559   0.984  54.376  1.00  0.00     0.099 C 
HETATM   27  C21 UNL     1      28.844   2.360  53.817  1.00  0.00     0.014 C 
ENDBRANCH  11  26
TORSDOF 5
ENDMDL
MODEL 7
REMARK VINA RESULT:      -8.0      3.791      8.023
REMARK  5 active torsions:
REMARK  status: ('A' for Active; 'I' for Inactive)
REMARK    1  A    between atoms: C2_2  and  C3_3 
REMARK    2  A    between atoms: C3_3  and  C4_4 
REMARK    3  A    between atoms: C8_9  and  N2_10 
REMARK    4  A    between atoms: N2_10  and  C9_11 
REMARK       I    between atoms: N3_22  and  C19_23 
REMARK    5  A    between atoms: C19_23  and  C20_25 
ROOT
HETATM    1  C4  UNL     1      25.759   1.679  51.983  1.00  0.00     0.145 C 
HETATM    2  C5  UNL     1      24.667   0.883  52.653  1.00  0.00     0.070 A 
HETATM    3  N1  UNL     1      25.164  -0.283  53.160  1.00  0.00    -0.262 NA
HETATM    4  C6  UNL     1      24.335  -1.073  53.860  1.00  0.00     0.119 A 
HETATM    5  C7  UNL     1      23.011  -0.821  54.124  1.00  0.00     0.049 A 
HETATM    6  C8  UNL     1      22.543   0.371  53.592  1.00  0.00     0.046 A 
HETATM    7  C16 UNL     1      23.354   1.212  52.867  1.00  0.00     0.019 A 
HETATM    8  C17 UNL     1      22.923   2.455  52.199  1.00  0.00     0.033 C 
HETATM    9  C18 UNL     1      23.777   3.138  51.460  1.00  0.00     0.096 C 
HETATM   10  N3  UNL     1      25.121   2.740  51.250  1.00  0.00    -0.317 N 
HETATM   11  C19 UNL     1      25.747   3.480  50.219  1.00  0.00     0.224 C 
HETATM   12  O1  UNL     1      25.172   4.391  49.597  1.00  0.00    -0.273 OA
ENDROOT
BRANCH   6  13
HETATM   13  N2  UNL     1      21.192   0.759  53.767  1.00  0.00    -0.355 N 
HETATM   14  H11 UNL     1      20.842   1.443  54.436  1.00  0.00     0.166 HD
BRANCH  13  15
HETATM   15  C9  UNL     1      20.034   0.318  53.086  1.00  0.00     0.033 A 
HETATM   16  C10 UNL     1      19.517   0.903  51.941  1.00  0.00     0.032 A 
HETATM   17  C11 UNL     1      18.410   0.504  51.227  1.00  0.00     0.045 A 
HETATM   18  C12 UNL     1      17.815  -0.608  51.787  1.00  0.00     0.122 A 
HETATM   19  F1  UNL     1      16.696  -1.109  51.166  1.00  0.00    -0.206 F 
HETATM   20  C13 UNL     1      18.228  -1.279  52.915  1.00  0.00    -0.021 A 
HETATM   21  C14 UNL     1      17.491  -2.485  53.423  1.00  0.00     0.051 C 
HETATM   22  C15 UNL     1      19.366  -0.797  53.572  1.00  0.00     0.039 A 
ENDBRANCH  13  15
ENDBRANCH   6  13
BRANCH   1  23
HETATM   23  C3  UNL     1      26.569   2.259  53.102  1.00  0.00     0.032 C 
BRANCH  23  24
HETATM   24  C2  UNL     1      28.030   2.260  52.983  1.00  0.00    -0.002 C 
HETATM   25  C1  UNL     1      28.793   1.707  54.136  1.00  0.00     0.005 C 
ENDBRANCH  23  24
ENDBRANCH   1  23
BRANCH  11  26
HETATM   26  C20 UNL     1      26.870   3.821  49.339  1.00  0.00     0.099 C 
HETATM   27  C21 UNL     1      26.792   5.250  48.848  1.00  0.00     0.014 C 
ENDBRANCH  11  26
TORSDOF 5
ENDMDL
MODEL 8
REMARK VINA RESULT:      -7.8      3.807      5.587
REMARK  5 active torsions:
REMARK  status: ('A' for Active; 'I' for Inactive)
REMARK    1  A    between atoms: C2_2  and  C3_3 
REMARK    2  A    between atoms: C3_3  and  C4_4 
REMARK    3  A    between atoms: C8_9  and  N2_10 
REMARK    4  A    between atoms: N2_10  and  C9_11 
REMARK       I    between atoms: N3_22  and  C19_23 
REMARK    5  A    between atoms: C19_23  and  C20_25 
ROOT
HETATM    1  C4  UNL     1      22.671   1.187  52.561  1.00  0.00     0.145 C 
HETATM    2  C5  UNL     1      24.047   1.733  52.273  1.00  0.00     0.070 A 
HETATM    3  N1  UNL     1      24.839   1.648  53.382  1.00  0.00    -0.262 NA
HETATM    4  C6  UNL     1      26.124   2.020  53.270  1.00  0.00     0.119 A 
HETATM    5  C7  UNL     1      26.735   2.486  52.132  1.00  0.00     0.049 A 
HETATM    6  C8  UNL     1      25.897   2.559  51.028  1.00  0.00     0.046 A 
HETATM    7  C16 UNL     1      24.574   2.191  51.094  1.00  0.00     0.019 A 
HETATM    8  C17 UNL     1      23.595   2.311  49.996  1.00  0.00     0.033 C 
HETATM    9  C18 UNL     1      22.329   2.000  50.204  1.00  0.00     0.096 C 
HETATM   10  N3  UNL     1      21.829   1.555  51.453  1.00  0.00    -0.317 N 
HETATM   11  C19 UNL     1      20.414   1.546  51.495  1.00  0.00     0.224 C 
HETATM   12  O1  UNL     1      19.708   1.871  50.524  1.00  0.00    -0.273 OA
ENDROOT
BRANCH   6  13
HETATM   13  N2  UNL     1      26.380   3.037  49.785  1.00  0.00    -0.355 N 
HETATM   14  H11 UNL     1      26.705   2.469  49.005  1.00  0.00     0.166 HD
BRANCH  13  15
HETATM   15  C9  UNL     1      26.527   4.367  49.328  1.00  0.00     0.033 A 
HETATM   16  C10 UNL     1      25.563   5.356  49.445  1.00  0.00     0.032 A 
HETATM   17  C11 UNL     1      25.660   6.668  49.040  1.00  0.00     0.045 A 
HETATM   18  C12 UNL     1      26.887   6.936  48.466  1.00  0.00     0.122 A 
HETATM   19  F1  UNL     1      27.112   8.216  48.019  1.00  0.00    -0.206 F 
HETATM   20  C13 UNL     1      27.923   6.048  48.294  1.00  0.00    -0.021 A 
HETATM   21  C14 UNL     1      29.215   6.466  47.654  1.00  0.00     0.051 C 
HETATM   22  C15 UNL     1      27.729   4.735  48.739  1.00  0.00     0.039 A 
ENDBRANCH  13  15
ENDBRANCH   6  13
BRANCH   1  23
HETATM   23  C3  UNL     1      22.835  -0.301  52.594  1.00  0.00     0.032 C 
BRANCH  23  24
HETATM   24  C2  UNL     1      22.001  -1.079  53.516  1.00  0.00    -0.002 C 
HETATM   25  C1  UNL     1      21.597  -0.402  54.779  1.00  0.00     0.005 C 
ENDBRANCH  23  24
ENDBRANCH   1  23
BRANCH  11  26
HETATM   26  C20 UNL     1      19.118   1.335  52.148  1.00  0.00     0.099 C 
HETATM   27  C21 UNL     1      18.677  -0.110  52.081  1.00  0.00     0.014 C 
ENDBRANCH  11  26
TORSDOF 5
ENDMDL
MODEL 9
REMARK VINA RESULT:      -7.6      6.097      8.763
REMARK  5 active torsions:
REMARK  status: ('A' for Active; 'I' for Inactive)
REMARK    1  A    between atoms: C2_2  and  C3_3 
REMARK    2  A    between atoms: C3_3  and  C4_4 
REMARK    3  A    between atoms: C8_9  and  N2_10 
REMARK    4  A    between atoms: N2_10  and  C9_11 
REMARK       I    between atoms: N3_22  and  C19_23 
REMARK    5  A    between atoms: C19_23  and  C20_25 
ROOT
HETATM    1  C4  UNL     1      27.202   7.471  48.963  1.00  0.00     0.145 C 
HETATM    2  C5  UNL     1      26.202   6.567  49.639  1.00  0.00     0.070 A 
HETATM    3  N1  UNL     1      25.277   7.301  50.326  1.00  0.00    -0.262 NA
HETATM    4  C6  UNL     1      24.267   6.647  50.920  1.00  0.00     0.119 A 
HETATM    5  C7  UNL     1      24.064   5.290  50.907  1.00  0.00     0.049 A 
HETATM    6  C8  UNL     1      25.024   4.579  50.201  1.00  0.00     0.046 A 
HETATM    7  C16 UNL     1      26.078   5.204  49.577  1.00  0.00     0.019 A 
HETATM    8  C17 UNL     1      27.184   4.524  48.875  1.00  0.00     0.033 C 
HETATM    9  C18 UNL     1      28.186   5.229  48.384  1.00  0.00     0.096 C 
HETATM   10  N3  UNL     1      28.280   6.639  48.497  1.00  0.00    -0.317 N 
HETATM   11  C19 UNL     1      29.558   7.125  48.135  1.00  0.00     0.224 C 
HETATM   12  O1  UNL     1      30.474   6.384  47.738  1.00  0.00    -0.273 OA
ENDROOT
BRANCH   6  13
HETATM   13  N2  UNL     1      24.958   3.167  50.112  1.00  0.00    -0.355 N 
HETATM   14  H11 UNL     1      24.861   2.619  49.260  1.00  0.00     0.166 HD
BRANCH  13  15
HETATM   15  C9  UNL     1      25.009   2.198  51.141  1.00  0.00     0.033 A 
HETATM   16  C10 UNL     1      23.902   1.648  51.767  1.00  0.00     0.032 A 
HETATM   17  C11 UNL     1      23.892   0.688  52.754  1.00  0.00     0.045 A 
HETATM   18  C12 UNL     1      25.170   0.291  53.092  1.00  0.00     0.122 A 
HETATM   19  F1  UNL     1      25.298  -0.667  54.069  1.00  0.00    -0.206 F 
HETATM   20  C13 UNL     1      26.345   0.756  52.548  1.00  0.00    -0.021 A 
HETATM   21  C14 UNL     1      27.678   0.239  53.004  1.00  0.00     0.051 C 
HETATM   22  C15 UNL     1      26.251   1.733  51.549  1.00  0.00     0.039 A 
ENDBRANCH  13  15
ENDBRANCH   6  13
BRANCH   1  23
HETATM   23  C3  UNL     1      26.477   8.056  47.790  1.00  0.00     0.032 C 
BRANCH  23  24
HETATM   24  C2  UNL     1      26.661   9.479  47.489  1.00  0.00    -0.002 C 
HETATM   25  C1  UNL     1      27.131  10.341  48.609  1.00  0.00     0.005 C 
ENDBRANCH  23  24
ENDBRANCH   1  23
BRANCH  11  26
HETATM   26  C20 UNL     1      30.558   8.180  47.938  1.00  0.00     0.099 C 
HETATM   27  C21 UNL     1      30.609   9.138  49.107  1.00  0.00     0.014 C 
ENDBRANCH  11  26
TORSDOF 5
ENDMDL
