MODEL 1
REMARK VINA RESULT:      -7.0      0.000      0.000
REMARK  1 active torsions:
REMARK  status: ('A' for Active; 'I' for Inactive)
REMARK    1  A    between atoms: C13_16  and  O1_17 
ROOT
HETATM    1  C1  UNL     1      22.790   2.281  47.081  1.00  0.00     0.038 C 
HETATM    2  C2  UNL     1      22.166   1.597  48.230  1.00  0.00    -0.004 C 
HETATM    3  C3  UNL     1      21.601   2.129  49.337  1.00  0.00     0.028 C 
HETATM    4  C4  UNL     1      21.803   3.579  49.033  1.00  0.00     0.087 C 
HETATM    5  C5  UNL     1      21.506   4.771  49.661  1.00  0.00    -0.017 C 
HETATM    6 BR1  UNL     1      22.178   6.065  48.453  1.00  0.00    -0.059 Br
HETATM    7  C6  UNL     1      20.858   5.353  50.956  1.00  0.00     0.103 C 
HETATM    8  C7  UNL     1      20.461   4.087  51.696  1.00  0.00     0.051 A 
HETATM    9  N1  UNL     1      19.150   3.916  51.544  1.00  0.00    -0.245 NA
HETATM   10  C8  UNL     1      18.492   2.791  51.823  1.00  0.00     0.235 A 
HETATM   11  N2  UNL     1      19.314   1.791  52.286  1.00  0.00    -0.223 NA
HETATM   12  C9  UNL     1      20.565   2.127  52.375  1.00  0.00     0.152 A 
HETATM   13  C10 UNL     1      21.425   3.181  52.172  1.00  0.00     0.024 A 
HETATM   14  C11 UNL     1      22.801   3.354  52.514  1.00  0.00     0.077 C 
HETATM   15  C12 UNL     1      23.433   4.687  52.429  1.00  0.00     0.022 C 
HETATM   16  C13 UNL     1      23.665   2.253  52.024  1.00  0.00     0.052 C 
HETATM   17  C15 UNL     1      23.701   0.945  52.438  1.00  0.00     0.032 C 
HETATM   18  C16 UNL     1      22.486   0.366  53.208  1.00  0.00     0.127 C 
HETATM   19  C17 UNL     1      22.516  -1.101  53.185  1.00  0.00     0.038 C 
HETATM   20  N3  UNL     1      21.378   0.968  52.437  1.00  0.00    -0.270 N 
HETATM   21  N4  UNL     1      21.069   0.195  51.276  1.00  0.00    -0.144 NA
HETATM   22  N5  UNL     1      21.136   1.040  50.170  1.00  0.00    -0.307 N 
HETATM   23  H21 UNL     1      21.866  -0.473  51.174  1.00  0.00     0.173 HD
HETATM   24  H22 UNL     1      20.364   0.524  49.693  1.00  0.00     0.182 HD
ENDROOT
BRANCH  16  25
HETATM   25  O1  UNL     1      24.579   2.613  50.986  1.00  0.00    -0.360 OA
HETATM   26  C14 UNL     1      25.960   2.455  51.110  1.00  0.00     0.209 C 
ENDBRANCH  16  25
TORSDOF 1
ENDMDL
MODEL 2
REMARK VINA RESULT:      -7.0      3.261      5.536
REMARK  1 active torsions:
REMARK  status: ('A' for Active; 'I' for Inactive)
REMARK    1  A    between atoms: C13_16  and  O1_17 
ROOT
HETATM    1  C1  UNL     1      21.109   0.645  49.705  1.00  0.00     0.038 C 
HETATM    2  C2  UNL     1      21.814   1.813  49.139  1.00  0.00    -0.004 C 
HETATM    3  C3  UNL     1      22.898   2.467  49.612  1.00  0.00     0.028 C 
HETATM    4  C4  UNL     1      23.145   1.657  50.844  1.00  0.00     0.087 C 
HETATM    5  C5  UNL     1      24.066   1.678  51.872  1.00  0.00    -0.017 C 
HETATM    6 BR1  UNL     1      23.522   0.224  52.956  1.00  0.00    -0.059 Br
HETATM    7  C6  UNL     1      25.309   2.462  52.397  1.00  0.00     0.103 C 
HETATM    8  C7  UNL     1      25.456   3.546  51.342  1.00  0.00     0.051 A 
HETATM    9  N1  UNL     1      26.459   3.202  50.537  1.00  0.00    -0.245 NA
HETATM   10  C8  UNL     1      26.711   3.762  49.354  1.00  0.00     0.235 A 
HETATM   11  N2  UNL     1      25.812   4.749  49.026  1.00  0.00    -0.223 NA
HETATM   12  C9  UNL     1      24.898   4.957  49.925  1.00  0.00     0.152 A 
HETATM   13  C10 UNL     1      24.474   4.536  51.164  1.00  0.00     0.024 A 
HETATM   14  C11 UNL     1      23.487   5.062  52.051  1.00  0.00     0.077 C 
HETATM   15  C12 UNL     1      23.404   4.585  53.448  1.00  0.00     0.022 C 
HETATM   16  C13 UNL     1      22.165   5.249  51.406  1.00  0.00     0.052 C 
HETATM   17  C15 UNL     1      21.807   6.150  50.435  1.00  0.00     0.032 C 
HETATM   18  C16 UNL     1      22.916   6.812  49.577  1.00  0.00     0.127 C 
HETATM   19  C17 UNL     1      22.344   7.386  48.353  1.00  0.00     0.038 C 
HETATM   20  N3  UNL     1      23.801   5.649  49.353  1.00  0.00    -0.270 N 
HETATM   21  N4  UNL     1      23.356   4.858  48.250  1.00  0.00    -0.144 NA
HETATM   22  N5  UNL     1      23.202   3.548  48.698  1.00  0.00    -0.307 N 
HETATM   23  H21 UNL     1      22.393   5.204  48.039  1.00  0.00     0.173 HD
HETATM   24  H22 UNL     1      23.498   3.166  47.773  1.00  0.00     0.182 HD
ENDROOT
BRANCH  16  25
HETATM   25  O1  UNL     1      21.135   4.372  51.867  1.00  0.00    -0.360 OA
HETATM   26  C14 UNL     1      19.930   4.202  51.185  1.00  0.00     0.209 C 
ENDBRANCH  16  25
TORSDOF 1
ENDMDL
MODEL 3
REMARK VINA RESULT:      -6.9      9.000     10.762
REMARK  1 active torsions:
REMARK  status: ('A' for Active; 'I' for Inactive)
REMARK    1  A    between atoms: C13_16  and  O1_17 
ROOT
HETATM    1  C1  UNL     1      25.174   8.448  50.283  1.00  0.00     0.038 C 
HETATM    2  C2  UNL     1      26.606   8.799  50.350  1.00  0.00    -0.004 C 
HETATM    3  C3  UNL     1      27.364   9.473  49.456  1.00  0.00     0.028 C 
HETATM    4  C4  UNL     1      26.323   9.739  48.416  1.00  0.00     0.087 C 
HETATM    5  C5  UNL     1      26.289  10.374  47.191  1.00  0.00    -0.017 C 
HETATM    6 BR1  UNL     1      24.484  10.167  46.658  1.00  0.00    -0.059 Br
HETATM    7  C6  UNL     1      27.193  11.137  46.174  1.00  0.00     0.103 C 
HETATM    8  C7  UNL     1      28.541  11.102  46.876  1.00  0.00     0.051 A 
HETATM    9  N1  UNL     1      28.753  12.299  47.417  1.00  0.00    -0.245 NA
HETATM   10  C8  UNL     1      29.692  12.568  48.325  1.00  0.00     0.235 A 
HETATM   11  N2  UNL     1      30.437  11.465  48.667  1.00  0.00    -0.223 NA
HETATM   12  C9  UNL     1      30.099  10.377  48.042  1.00  0.00     0.152 A 
HETATM   13  C10 UNL     1      29.221   9.892  47.101  1.00  0.00     0.024 A 
HETATM   14  C11 UNL     1      29.154   8.629  46.437  1.00  0.00     0.077 C 
HETATM   15  C12 UNL     1      28.274   8.445  45.264  1.00  0.00     0.022 C 
HETATM   16  C13 UNL     1      29.148   7.480  47.373  1.00  0.00     0.052 C 
HETATM   17  C15 UNL     1      30.163   7.029  48.180  1.00  0.00     0.032 C 
HETATM   18  C16 UNL     1      31.336   7.984  48.518  1.00  0.00     0.127 C 
HETATM   19  C17 UNL     1      32.069   7.501  49.694  1.00  0.00     0.038 C 
HETATM   20  N3  UNL     1      30.594   9.244  48.733  1.00  0.00    -0.270 N 
HETATM   21  N4  UNL     1      30.082   9.328  50.065  1.00  0.00    -0.144 NA
HETATM   22  N5  UNL     1      28.710   9.555  49.982  1.00  0.00    -0.307 N 
HETATM   23  H21 UNL     1      30.190   8.366  50.458  1.00  0.00     0.173 HD
HETATM   24  H22 UNL     1      28.725  10.141  50.845  1.00  0.00     0.182 HD
ENDROOT
BRANCH  16  25
HETATM   25  O1  UNL     1      27.921   6.750  47.431  1.00  0.00    -0.360 OA
HETATM   26  C14 UNL     1      27.663   5.787  48.407  1.00  0.00     0.209 C 
ENDBRANCH  16  25
TORSDOF 1
ENDMDL
MODEL 4
REMARK VINA RESULT:      -6.8      9.235     11.349
REMARK  1 active torsions:
REMARK  status: ('A' for Active; 'I' for Inactive)
REMARK    1  A    between atoms: C13_16  and  O1_17 
ROOT
HETATM    1  C1  UNL     1      30.878  12.019  49.225  1.00  0.00     0.038 C 
HETATM    2  C2  UNL     1      30.153  10.749  49.424  1.00  0.00    -0.004 C 
HETATM    3  C3  UNL     1      30.294   9.574  48.771  1.00  0.00     0.028 C 
HETATM    4  C4  UNL     1      31.380   9.960  47.819  1.00  0.00     0.087 C 
HETATM    5  C5  UNL     1      32.088   9.326  46.817  1.00  0.00    -0.017 C 
HETATM    6 BR1  UNL     1      33.255  10.683  46.201  1.00  0.00    -0.059 Br
HETATM    7  C6  UNL     1      32.216   7.960  46.075  1.00  0.00     0.103 C 
HETATM    8  C7  UNL     1      31.152   7.130  46.774  1.00  0.00     0.051 A 
HETATM    9  N1  UNL     1      31.764   6.316  47.631  1.00  0.00    -0.245 NA
HETATM   10  C8  UNL     1      31.154   5.635  48.601  1.00  0.00     0.235 A 
HETATM   11  N2  UNL     1      29.798   5.862  48.643  1.00  0.00    -0.223 NA
HETATM   12  C9  UNL     1      29.366   6.682  47.733  1.00  0.00     0.152 A 
HETATM   13  C10 UNL     1      29.786   7.449  46.672  1.00  0.00     0.024 A 
HETATM   14  C11 UNL     1      29.053   8.173  45.683  1.00  0.00     0.077 C 
HETATM   15  C12 UNL     1      29.734   8.702  44.483  1.00  0.00     0.022 C 
HETATM   16  C13 UNL     1      28.059   9.107  46.263  1.00  0.00     0.052 C 
HETATM   17  C15 UNL     1      26.902   8.812  46.941  1.00  0.00     0.032 C 
HETATM   18  C16 UNL     1      26.732   7.400  47.559  1.00  0.00     0.127 C 
HETATM   19  C17 UNL     1      25.671   7.410  48.575  1.00  0.00     0.038 C 
HETATM   20  N3  UNL     1      28.092   7.184  48.096  1.00  0.00    -0.270 N 
HETATM   21  N4  UNL     1      28.246   7.782  49.385  1.00  0.00    -0.144 NA
HETATM   22  N5  UNL     1      29.347   8.633  49.333  1.00  0.00    -0.307 N 
HETATM   23  H21 UNL     1      27.411   8.400  49.500  1.00  0.00     0.173 HD
HETATM   24  H22 UNL     1      29.594   8.423  50.325  1.00  0.00     0.182 HD
ENDROOT
BRANCH  16  25
HETATM   25  O1  UNL     1      28.352  10.494  46.086  1.00  0.00    -0.360 OA
HETATM   26  C14 UNL     1      27.673  11.501  46.772  1.00  0.00     0.209 C 
ENDBRANCH  16  25
TORSDOF 1
ENDMDL
MODEL 5
REMARK VINA RESULT:      -6.7      2.032      4.406
REMARK  1 active torsions:
REMARK  status: ('A' for Active; 'I' for Inactive)
REMARK    1  A    between atoms: C13_16  and  O1_17 
ROOT
HETATM    1  C1  UNL     1      21.998   7.341  50.640  1.00  0.00     0.038 C 
HETATM    2  C2  UNL     1      21.443   6.133  51.282  1.00  0.00    -0.004 C 
HETATM    3  C3  UNL     1      21.913   4.866  51.270  1.00  0.00     0.028 C 
HETATM    4  C4  UNL     1      23.133   5.074  50.430  1.00  0.00     0.087 C 
HETATM    5  C5  UNL     1      24.153   4.276  49.954  1.00  0.00    -0.017 C 
HETATM    6 BR1  UNL     1      25.222   5.495  48.976  1.00  0.00    -0.059 Br
HETATM    7  C6  UNL     1      24.663   2.801  49.950  1.00  0.00     0.103 C 
HETATM    8  C7  UNL     1      23.594   2.104  50.775  1.00  0.00     0.051 A 
HETATM    9  N1  UNL     1      24.087   1.896  51.993  1.00  0.00    -0.245 NA
HETATM   10  C8  UNL     1      23.363   1.552  53.058  1.00  0.00     0.235 A 
HETATM   11  N2  UNL     1      22.021   1.439  52.779  1.00  0.00    -0.223 NA
HETATM   12  C9  UNL     1      21.712   1.675  51.540  1.00  0.00     0.152 A 
HETATM   13  C10 UNL     1      22.264   2.010  50.326  1.00  0.00     0.024 A 
HETATM   14  C11 UNL     1      21.701   2.056  49.014  1.00  0.00     0.077 C 
HETATM   15  C12 UNL     1      22.573   2.187  47.829  1.00  0.00     0.022 C 
HETATM   16  C13 UNL     1      20.467   2.873  48.940  1.00  0.00     0.052 C 
HETATM   17  C15 UNL     1      19.235   2.613  49.487  1.00  0.00     0.032 C 
HETATM   18  C16 UNL     1      19.127   1.591  50.647  1.00  0.00     0.127 C 
HETATM   19  C17 UNL     1      17.859   1.762  51.366  1.00  0.00     0.038 C 
HETATM   20  N3  UNL     1      20.328   1.956  51.429  1.00  0.00    -0.270 N 
HETATM   21  N4  UNL     1      20.066   3.052  52.307  1.00  0.00    -0.144 NA
HETATM   22  N5  UNL     1      21.007   4.045  52.045  1.00  0.00    -0.307 N 
HETATM   23  H21 UNL     1      19.147   3.437  51.995  1.00  0.00     0.173 HD
HETATM   24  H22 UNL     1      21.028   4.332  53.048  1.00  0.00     0.182 HD
ENDROOT
BRANCH  16  25
HETATM   25  O1  UNL     1      20.585   4.086  48.195  1.00  0.00    -0.360 OA
HETATM   26  C14 UNL     1      19.615   5.088  48.227  1.00  0.00     0.209 C 
ENDBRANCH  16  25
TORSDOF 1
ENDMDL
MODEL 6
REMARK VINA RESULT:      -6.4      9.542     11.340
REMARK  1 active torsions:
REMARK  status: ('A' for Active; 'I' for Inactive)
REMARK    1  A    between atoms: C13_16  and  O1_17 
ROOT
HETATM    1  C1  UNL     1      31.133   9.177  43.617  1.00  0.00     0.038 C 
HETATM    2  C2  UNL     1      31.403   8.043  44.523  1.00  0.00    -0.004 C 
HETATM    3  C3  UNL     1      30.835   7.744  45.712  1.00  0.00     0.028 C 
HETATM    4  C4  UNL     1      29.879   8.890  45.812  1.00  0.00     0.087 C 
HETATM    5  C5  UNL     1      28.935   9.313  46.726  1.00  0.00    -0.017 C 
HETATM    6 BR1  UNL     1      28.250  10.887  45.928  1.00  0.00    -0.059 Br
HETATM    7  C6  UNL     1      28.307   8.948  48.107  1.00  0.00     0.103 C 
HETATM    8  C7  UNL     1      29.077   7.689  48.470  1.00  0.00     0.051 A 
HETATM    9  N1  UNL     1      28.287   6.643  48.237  1.00  0.00    -0.245 NA
HETATM   10  C8  UNL     1      28.698   5.376  48.184  1.00  0.00     0.235 A 
HETATM   11  N2  UNL     1      30.051   5.243  48.390  1.00  0.00    -0.223 NA
HETATM   12  C9  UNL     1      30.670   6.365  48.605  1.00  0.00     0.152 A 
HETATM   13  C10 UNL     1      30.461   7.719  48.718  1.00  0.00     0.024 A 
HETATM   14  C11 UNL     1      31.326   8.775  49.137  1.00  0.00     0.077 C 
HETATM   15  C12 UNL     1      30.782  10.117  49.431  1.00  0.00     0.022 C 
HETATM   16  C13 UNL     1      32.611   8.801  48.400  1.00  0.00     0.052 C 
HETATM   17  C15 UNL     1      33.646   7.900  48.452  1.00  0.00     0.032 C 
HETATM   18  C16 UNL     1      33.375   6.476  49.001  1.00  0.00     0.127 C 
HETATM   19  C17 UNL     1      34.443   5.556  48.589  1.00  0.00     0.038 C 
HETATM   20  N3  UNL     1      32.061   6.203  48.383  1.00  0.00    -0.270 N 
HETATM   21  N4  UNL     1      32.202   5.713  47.048  1.00  0.00    -0.144 NA
HETATM   22  N5  UNL     1      31.448   6.531  46.210  1.00  0.00    -0.307 N 
HETATM   23  H21 UNL     1      33.201   5.889  46.798  1.00  0.00     0.173 HD
HETATM   24  H22 UNL     1      31.212   5.726  45.588  1.00  0.00     0.182 HD
ENDROOT
BRANCH  16  25
HETATM   25  O1  UNL     1      32.788   9.918  47.526  1.00  0.00    -0.360 OA
HETATM   26  C14 UNL     1      33.838   9.999  46.610  1.00  0.00     0.209 C 
ENDBRANCH  16  25
TORSDOF 1
ENDMDL
MODEL 7
REMARK VINA RESULT:      -6.3      3.027      4.674
REMARK  1 active torsions:
REMARK  status: ('A' for Active; 'I' for Inactive)
REMARK    1  A    between atoms: C13_16  and  O1_17 
ROOT
HETATM    1  C1  UNL     1      20.814   2.652  47.225  1.00  0.00     0.038 C 
HETATM    2  C2  UNL     1      22.164   2.707  47.822  1.00  0.00    -0.004 C 
HETATM    3  C3  UNL     1      22.534   3.084  49.065  1.00  0.00     0.028 C 
HETATM    4  C4  UNL     1      21.186   3.417  49.623  1.00  0.00     0.087 C 
HETATM    5  C5  UNL     1      20.702   3.874  50.832  1.00  0.00    -0.017 C 
HETATM    6 BR1  UNL     1      18.836   3.973  50.529  1.00  0.00    -0.059 Br
HETATM    7  C6  UNL     1      21.163   4.315  52.255  1.00  0.00     0.103 C 
HETATM    8  C7  UNL     1      22.670   4.146  52.156  1.00  0.00     0.051 A 
HETATM    9  N1  UNL     1      22.999   3.022  52.787  1.00  0.00    -0.245 NA
HETATM   10  C8  UNL     1      24.180   2.412  52.687  1.00  0.00     0.235 A 
HETATM   11  N2  UNL     1      25.049   3.061  51.842  1.00  0.00    -0.223 NA
HETATM   12  C9  UNL     1      24.566   4.144  51.311  1.00  0.00     0.152 A 
HETATM   13  C10 UNL     1      23.442   4.935  51.284  1.00  0.00     0.024 A 
HETATM   14  C11 UNL     1      23.209   6.224  50.715  1.00  0.00     0.077 C 
HETATM   15  C12 UNL     1      21.988   6.984  51.054  1.00  0.00     0.022 C 
HETATM   16  C13 UNL     1      23.580   6.302  49.282  1.00  0.00     0.052 C 
HETATM   17  C15 UNL     1      24.831   6.252  48.718  1.00  0.00     0.032 C 
HETATM   18  C16 UNL     1      26.003   5.657  49.540  1.00  0.00     0.127 C 
HETATM   19  C17 UNL     1      27.118   5.297  48.656  1.00  0.00     0.038 C 
HETATM   20  N3  UNL     1      25.323   4.504  50.168  1.00  0.00    -0.270 N 
HETATM   21  N4  UNL     1      25.299   3.373  49.295  1.00  0.00    -0.144 NA
HETATM   22  N5  UNL     1      23.973   2.965  49.160  1.00  0.00    -0.307 N 
HETATM   23  H21 UNL     1      25.581   3.744  48.361  1.00  0.00     0.173 HD
HETATM   24  H22 UNL     1      24.258   1.964  49.085  1.00  0.00     0.182 HD
ENDROOT
BRANCH  16  25
HETATM   25  O1  UNL     1      22.484   6.454  48.377  1.00  0.00    -0.360 OA
HETATM   26  C14 UNL     1      22.621   6.306  46.997  1.00  0.00     0.209 C 
ENDBRANCH  16  25
TORSDOF 1
ENDMDL
MODEL 8
REMARK VINA RESULT:      -6.3      3.262      4.367
REMARK  1 active torsions:
REMARK  status: ('A' for Active; 'I' for Inactive)
REMARK    1  A    between atoms: C13_16  and  O1_17 
ROOT
HETATM    1  C1  UNL     1      21.627   5.719  45.662  1.00  0.00     0.038 C 
HETATM    2  C2  UNL     1      22.235   4.848  46.687  1.00  0.00    -0.004 C 
HETATM    3  C3  UNL     1      22.302   5.022  48.026  1.00  0.00     0.028 C 
HETATM    4  C4  UNL     1      21.588   6.332  48.131  1.00  0.00     0.087 C 
HETATM    5  C5  UNL     1      21.238   7.187  49.156  1.00  0.00    -0.017 C 
HETATM    6 BR1  UNL     1      20.347   8.590  48.249  1.00  0.00    -0.059 Br
HETATM    7  C6  UNL     1      21.343   7.364  50.703  1.00  0.00     0.103 C 
HETATM    8  C7  UNL     1      22.114   6.117  51.102  1.00  0.00     0.051 A 
HETATM    9  N1  UNL     1      21.249   5.248  51.619  1.00  0.00    -0.245 NA
HETATM   10  C8  UNL     1      21.504   3.957  51.835  1.00  0.00     0.235 A 
HETATM   11  N2  UNL     1      22.775   3.592  51.457  1.00  0.00    -0.223 NA
HETATM   12  C9  UNL     1      23.487   4.565  50.973  1.00  0.00     0.152 A 
HETATM   13  C10 UNL     1      23.442   5.909  50.688  1.00  0.00     0.024 A 
HETATM   14  C11 UNL     1      24.464   6.823  50.288  1.00  0.00     0.077 C 
HETATM   15  C12 UNL     1      24.215   8.280  50.304  1.00  0.00     0.022 C 
HETATM   16  C13 UNL     1      25.225   6.362  49.103  1.00  0.00     0.052 C 
HETATM   17  C15 UNL     1      26.097   5.306  49.004  1.00  0.00     0.032 C 
HETATM   18  C16 UNL     1      26.042   4.184  50.072  1.00  0.00     0.127 C 
HETATM   19  C17 UNL     1      26.716   2.975  49.581  1.00  0.00     0.038 C 
HETATM   20  N3  UNL     1      24.580   4.047  50.234  1.00  0.00    -0.270 N 
HETATM   21  N4  UNL     1      24.022   3.189  49.236  1.00  0.00    -0.144 NA
HETATM   22  N5  UNL     1      23.006   3.889  48.590  1.00  0.00    -0.307 N 
HETATM   23  H21 UNL     1      24.780   3.066  48.529  1.00  0.00     0.173 HD
HETATM   24  H22 UNL     1      22.448   3.016  48.458  1.00  0.00     0.182 HD
ENDROOT
BRANCH  16  25
HETATM   25  O1  UNL     1      25.020   7.127  47.913  1.00  0.00    -0.360 OA
HETATM   26  C14 UNL     1      26.054   7.804  47.265  1.00  0.00     0.209 C 
ENDBRANCH  16  25
TORSDOF 1
ENDMDL
MODEL 9
REMARK VINA RESULT:      -6.2      4.001      5.922
REMARK  1 active torsions:
REMARK  status: ('A' for Active; 'I' for Inactive)
REMARK    1  A    between atoms: C13_16  and  O1_17 
ROOT
HETATM    1  C1  UNL     1      19.842   8.816  50.123  1.00  0.00     0.038 C 
HETATM    2  C2  UNL     1      21.061   8.216  50.700  1.00  0.00    -0.004 C 
HETATM    3  C3  UNL     1      22.153   7.728  50.072  1.00  0.00     0.028 C 
HETATM    4  C4  UNL     1      21.746   7.983  48.656  1.00  0.00     0.087 C 
HETATM    5  C5  UNL     1      22.308   7.773  47.413  1.00  0.00    -0.017 C 
HETATM    6 BR1  UNL     1      20.989   8.447  46.234  1.00  0.00    -0.059 Br
HETATM    7  C6  UNL     1      23.577   7.191  46.718  1.00  0.00     0.103 C 
HETATM    8  C7  UNL     1      24.394   6.724  47.912  1.00  0.00     0.051 A 
HETATM    9  N1  UNL     1      25.357   7.618  48.124  1.00  0.00    -0.245 NA
HETATM   10  C8  UNL     1      26.099   7.689  49.229  1.00  0.00     0.235 A 
HETATM   11  N2  UNL     1      25.764   6.733  50.160  1.00  0.00    -0.223 NA
HETATM   12  C9  UNL     1      24.804   5.941  49.790  1.00  0.00     0.152 A 
HETATM   13  C10 UNL     1      23.950   5.682  48.745  1.00  0.00     0.024 A 
HETATM   14  C11 UNL     1      23.049   4.599  48.509  1.00  0.00     0.077 C 
HETATM   15  C12 UNL     1      22.435   4.411  47.178  1.00  0.00     0.022 C 
HETATM   16  C13 UNL     1      22.113   4.366  49.635  1.00  0.00     0.052 C 
HETATM   17  C15 UNL     1      22.390   3.894  50.894  1.00  0.00     0.032 C 
HETATM   18  C16 UNL     1      23.848   3.960  51.418  1.00  0.00     0.127 C 
HETATM   19  C17 UNL     1      23.875   3.824  52.879  1.00  0.00     0.038 C 
HETATM   20  N3  UNL     1      24.244   5.295  50.920  1.00  0.00    -0.270 N 
HETATM   21  N4  UNL     1      23.826   6.330  51.812  1.00  0.00    -0.144 NA
HETATM   22  N5  UNL     1      23.072   7.245  51.082  1.00  0.00    -0.307 N 
HETATM   23  H21 UNL     1      23.159   5.869  52.470  1.00  0.00     0.173 HD
HETATM   24  H22 UNL     1      23.424   8.041  51.659  1.00  0.00     0.182 HD
ENDROOT
BRANCH  16  25
HETATM   25  O1  UNL     1      20.744   4.672  49.362  1.00  0.00    -0.360 OA
HETATM   26  C14 UNL     1      19.773   4.739  50.361  1.00  0.00     0.209 C 
ENDBRANCH  16  25
TORSDOF 1
ENDMDL
