MODEL 1
REMARK VINA RESULT:      -8.1      0.000      0.000
REMARK  7 active torsions:
REMARK  status: ('A' for Active; 'I' for Inactive)
REMARK       I    between atoms: N1_2  and  C2_3 
REMARK    1  A    between atoms: C2_3  and  C3_5 
REMARK    2  A    between atoms: C5_8  and  C6_9 
REMARK    3  A    between atoms: C7_10  and  C8_12 
REMARK    4  A    between atoms: C8_12  and  S1_13 
REMARK    5  A    between atoms: S1_13  and  N3_16 
REMARK    6  A    between atoms: N3_16  and  C9_17 
REMARK    7  A    between atoms: S2_27  and  N5_28 
ROOT
HETATM    1  C6  UNL     1      26.477   5.405  48.894  1.00  0.00     0.022 C 
HETATM    2  C7  UNL     1      25.514   4.634  49.365  1.00  0.00     0.027 C 
HETATM    3 CL1  UNL     1      25.864   2.950  49.781  1.00  0.00    -0.088 Cl
ENDROOT
BRANCH   1   4
HETATM    4  C5  UNL     1      27.819   4.867  48.720  1.00  0.00     0.030 C 
HETATM    5  C4  UNL     1      28.819   5.575  48.199  1.00  0.00     0.056 C 
HETATM    6  N2  UNL     1      30.135   5.054  48.026  1.00  0.00    -0.237 NA
HETATM    7  C16 UNL     1      28.715   6.972  47.733  1.00  0.00     0.218 C 
HETATM    8  C3  UNL     1      31.190   5.738  48.337  1.00  0.00     0.186 C 
HETATM    9  S2  UNL     1      30.925   7.357  48.997  1.00  0.00     0.022 SA
HETATM   10  N4  UNL     1      29.506   7.847  48.545  1.00  0.00    -0.242 NA
BRANCH   8  11
HETATM   11  C2  UNL     1      32.532   5.216  48.163  1.00  0.00     0.278 C 
HETATM   12  N1  UNL     1      33.591   5.733  48.978  1.00  0.00    -0.359 N 
HETATM   13  C1  UNL     1      34.966   5.262  48.863  1.00  0.00     0.149 C 
HETATM   14  H4  UNL     1      33.372   6.477  49.684  1.00  0.00     0.162 HD
HETATM   15  O1  UNL     1      32.764   4.338  47.323  1.00  0.00    -0.265 OA
ENDBRANCH   8  11
BRANCH   9  16
HETATM   16  N5  UNL     1      32.140   8.421  48.341  1.00  0.00    -0.263 NA
HETATM   17  H18 UNL     1      33.015   8.408  48.880  1.00  0.00     0.132 HD
HETATM   18  H19 UNL     1      31.826   9.408  48.253  1.00  0.00     0.132 HD
ENDBRANCH   9  16
ENDBRANCH   1   4
BRANCH   2  19
HETATM   19  C8  UNL     1      24.116   5.029  49.595  1.00  0.00     0.214 C 
BRANCH  19  20
HETATM   20  S1  UNL     1      23.805   5.762  51.160  1.00  0.00     0.235 S 
HETATM   21  O2  UNL     1      24.709   6.940  51.302  1.00  0.00    -0.205 OA
HETATM   22  O3  UNL     1      22.374   6.233  51.188  1.00  0.00    -0.205 OA
BRANCH  20  23
HETATM   23  N3  UNL     1      24.119   4.671  52.467  1.00  0.00    -0.284 N 
HETATM   24  H9  UNL     1      24.746   4.946  53.256  1.00  0.00     0.178 HD
BRANCH  23  25
HETATM   25  C9  UNL     1      23.531   3.373  52.500  1.00  0.00     0.051 A 
HETATM   26  C10 UNL     1      22.235   3.168  52.059  1.00  0.00     0.031 A 
HETATM   27  C11 UNL     1      21.608   1.943  52.069  1.00  0.00     0.005 A 
HETATM   28  C12 UNL     1      22.283   0.836  52.539  1.00  0.00     0.043 A 
HETATM   29  C13 UNL     1      23.575   1.034  52.981  1.00  0.00     0.124 A 
HETATM   30  F1  UNL     1      24.252  -0.068  53.451  1.00  0.00    -0.205 F 
HETATM   31  C14 UNL     1      24.211   2.271  52.971  1.00  0.00     0.004 A 
HETATM   32  C15 UNL     1      25.589   2.368  53.464  1.00  0.00     0.054 C 
ENDBRANCH  23  25
ENDBRANCH  20  23
ENDBRANCH  19  20
ENDBRANCH   2  19
TORSDOF 7
ENDMDL
MODEL 2
REMARK VINA RESULT:      -8.0      3.246      4.033
REMARK  7 active torsions:
REMARK  status: ('A' for Active; 'I' for Inactive)
REMARK       I    between atoms: N1_2  and  C2_3 
REMARK    1  A    between atoms: C2_3  and  C3_5 
REMARK    2  A    between atoms: C5_8  and  C6_9 
REMARK    3  A    between atoms: C7_10  and  C8_12 
REMARK    4  A    between atoms: C8_12  and  S1_13 
REMARK    5  A    between atoms: S1_13  and  N3_16 
REMARK    6  A    between atoms: N3_16  and  C9_17 
REMARK    7  A    between atoms: S2_27  and  N5_28 
ROOT
HETATM    1  C6  UNL     1      23.407   4.530  48.847  1.00  0.00     0.022 C 
HETATM    2  C7  UNL     1      22.388   4.503  49.685  1.00  0.00     0.027 C 
HETATM    3 CL1  UNL     1      21.985   5.948  50.624  1.00  0.00    -0.088 Cl
ENDROOT
BRANCH   1   4
HETATM    4  C5  UNL     1      24.193   5.746  48.698  1.00  0.00     0.030 C 
HETATM    5  C4  UNL     1      25.429   5.871  49.178  1.00  0.00     0.056 C 
HETATM    6  N2  UNL     1      26.204   7.059  49.036  1.00  0.00    -0.237 NA
HETATM    7  C16 UNL     1      26.163   4.821  49.914  1.00  0.00     0.218 C 
HETATM    8  C3  UNL     1      27.454   7.027  48.697  1.00  0.00     0.186 C 
HETATM    9  S2  UNL     1      28.161   5.432  48.409  1.00  0.00     0.022 SA
HETATM   10  N4  UNL     1      27.297   4.366  49.167  1.00  0.00    -0.242 NA
BRANCH   8  11
HETATM   11  C2  UNL     1      28.250   8.231  48.552  1.00  0.00     0.278 C 
HETATM   12  N1  UNL     1      29.410   8.402  49.376  1.00  0.00    -0.359 N 
HETATM   13  C1  UNL     1      30.261   9.582  49.291  1.00  0.00     0.149 C 
HETATM   14  H4  UNL     1      29.658   7.652  50.065  1.00  0.00     0.162 HD
HETATM   15  O1  UNL     1      27.935   9.100  47.730  1.00  0.00    -0.265 OA
ENDBRANCH   8  11
BRANCH   9  16
HETATM   16  N5  UNL     1      29.781   5.427  49.054  1.00  0.00    -0.263 NA
HETATM   17  H18 UNL     1      30.501   5.516  48.325  1.00  0.00     0.132 HD
HETATM   18  H19 UNL     1      29.999   4.588  49.627  1.00  0.00     0.132 HD
ENDBRANCH   9  16
ENDBRANCH   1   4
BRANCH   2  19
HETATM   19  C8  UNL     1      21.504   3.356  49.946  1.00  0.00     0.214 C 
BRANCH  19  20
HETATM   20  S1  UNL     1      21.668   2.648  51.544  1.00  0.00     0.235 S 
HETATM   21  O2  UNL     1      22.760   3.372  52.257  1.00  0.00    -0.205 OA
HETATM   22  O3  UNL     1      20.373   2.851  52.289  1.00  0.00    -0.205 OA
BRANCH  20  23
HETATM   23  N3  UNL     1      22.081   0.968  51.474  1.00  0.00    -0.284 N 
HETATM   24  H9  UNL     1      22.184   0.478  50.558  1.00  0.00     0.178 HD
BRANCH  23  25
HETATM   25  C9  UNL     1      22.292   0.212  52.665  1.00  0.00     0.051 A 
HETATM   26  C10 UNL     1      21.229  -0.356  53.344  1.00  0.00     0.031 A 
HETATM   27  C11 UNL     1      21.364  -1.093  54.500  1.00  0.00     0.005 A 
HETATM   28  C12 UNL     1      22.618  -1.292  55.036  1.00  0.00     0.043 A 
HETATM   29  C13 UNL     1      23.682  -0.728  54.365  1.00  0.00     0.124 A 
HETATM   30  F1  UNL     1      24.935  -0.924  54.898  1.00  0.00    -0.205 F 
HETATM   31  C14 UNL     1      23.548   0.016  53.197  1.00  0.00     0.004 A 
HETATM   32  C15 UNL     1      24.748   0.571  52.563  1.00  0.00     0.054 C 
ENDBRANCH  23  25
ENDBRANCH  20  23
ENDBRANCH  19  20
ENDBRANCH   2  19
TORSDOF 7
ENDMDL
MODEL 3
REMARK VINA RESULT:      -8.0      3.144      3.917
REMARK  7 active torsions:
REMARK  status: ('A' for Active; 'I' for Inactive)
REMARK       I    between atoms: N1_2  and  C2_3 
REMARK    1  A    between atoms: C2_3  and  C3_5 
REMARK    2  A    between atoms: C5_8  and  C6_9 
REMARK    3  A    between atoms: C7_10  and  C8_12 
REMARK    4  A    between atoms: C8_12  and  S1_13 
REMARK    5  A    between atoms: S1_13  and  N3_16 
REMARK    6  A    between atoms: N3_16  and  C9_17 
REMARK    7  A    between atoms: S2_27  and  N5_28 
ROOT
HETATM    1  C6  UNL     1      25.319   4.873  49.618  1.00  0.00     0.022 C 
HETATM    2  C7  UNL     1      25.299   3.615  50.019  1.00  0.00     0.027 C 
HETATM    3 CL1  UNL     1      26.730   2.600  49.790  1.00  0.00    -0.088 Cl
ENDROOT
BRANCH   1   4
HETATM    4  C5  UNL     1      26.515   5.417  48.992  1.00  0.00     0.030 C 
HETATM    5  C4  UNL     1      26.658   6.711  48.710  1.00  0.00     0.056 C 
HETATM    6  N2  UNL     1      27.826   7.251  48.097  1.00  0.00    -0.237 NA
HETATM    7  C16 UNL     1      25.649   7.755  48.984  1.00  0.00     0.218 C 
HETATM    8  C3  UNL     1      28.377   8.346  48.515  1.00  0.00     0.186 C 
HETATM    9  S2  UNL     1      27.614   9.146  49.895  1.00  0.00     0.022 SA
HETATM   10  N4  UNL     1      26.119   8.681  49.970  1.00  0.00    -0.242 NA
BRANCH   8  11
HETATM   11  C2  UNL     1      29.565   8.902  47.896  1.00  0.00     0.278 C 
HETATM   12  N1  UNL     1      30.217  10.016  48.518  1.00  0.00    -0.359 N 
HETATM   13  C1  UNL     1      31.414  10.632  47.958  1.00  0.00     0.149 C 
HETATM   14  H4  UNL     1      29.821  10.404  49.408  1.00  0.00     0.162 HD
HETATM   15  O1  UNL     1      30.012   8.425  46.845  1.00  0.00    -0.265 OA
ENDBRANCH   8  11
BRANCH   9  16
HETATM   16  N5  UNL     1      27.671  10.867  49.629  1.00  0.00    -0.263 NA
HETATM   17  H18 UNL     1      27.426  11.131  48.665  1.00  0.00     0.132 HD
HETATM   18  H19 UNL     1      28.590  11.295  49.859  1.00  0.00     0.132 HD
ENDBRANCH   9  16
ENDBRANCH   1   4
BRANCH   2  19
HETATM   19  C8  UNL     1      24.172   2.924  50.664  1.00  0.00     0.214 C 
BRANCH  19  20
HETATM   20  S1  UNL     1      24.083   3.125  52.405  1.00  0.00     0.235 S 
HETATM   21  O2  UNL     1      23.700   4.541  52.684  1.00  0.00    -0.205 OA
HETATM   22  O3  UNL     1      23.008   2.211  52.935  1.00  0.00    -0.205 OA
BRANCH  20  23
HETATM   23  N3  UNL     1      25.598   2.807  53.179  1.00  0.00    -0.284 N 
HETATM   24  H9  UNL     1      26.093   3.553  53.718  1.00  0.00     0.178 HD
BRANCH  23  25
HETATM   25  C9  UNL     1      26.209   1.521  53.101  1.00  0.00     0.051 A 
HETATM   26  C10 UNL     1      25.451   0.388  52.866  1.00  0.00     0.031 A 
HETATM   27  C11 UNL     1      25.977  -0.882  52.784  1.00  0.00     0.005 A 
HETATM   28  C12 UNL     1      27.335  -1.067  52.942  1.00  0.00     0.043 A 
HETATM   29  C13 UNL     1      28.096   0.059  53.176  1.00  0.00     0.124 A 
HETATM   30  F1  UNL     1      29.451  -0.122  53.334  1.00  0.00    -0.205 F 
HETATM   31  C14 UNL     1      27.566   1.343  53.259  1.00  0.00     0.004 A 
HETATM   32  C15 UNL     1      28.468   2.471  53.512  1.00  0.00     0.054 C 
ENDBRANCH  23  25
ENDBRANCH  20  23
ENDBRANCH  19  20
ENDBRANCH   2  19
TORSDOF 7
ENDMDL
MODEL 4
REMARK VINA RESULT:      -8.0      5.745      6.958
REMARK  7 active torsions:
REMARK  status: ('A' for Active; 'I' for Inactive)
REMARK       I    between atoms: N1_2  and  C2_3 
REMARK    1  A    between atoms: C2_3  and  C3_5 
REMARK    2  A    between atoms: C5_8  and  C6_9 
REMARK    3  A    between atoms: C7_10  and  C8_12 
REMARK    4  A    between atoms: C8_12  and  S1_13 
REMARK    5  A    between atoms: S1_13  and  N3_16 
REMARK    6  A    between atoms: N3_16  and  C9_17 
REMARK    7  A    between atoms: S2_27  and  N5_28 
ROOT
HETATM    1  C6  UNL     1      22.647   2.803  50.543  1.00  0.00     0.022 C 
HETATM    2  C7  UNL     1      22.000   3.924  50.803  1.00  0.00     0.027 C 
HETATM    3 CL1  UNL     1      22.881   5.315  51.454  1.00  0.00    -0.088 Cl
ENDROOT
BRANCH   1   4
HETATM    4  C5  UNL     1      24.079   2.717  50.791  1.00  0.00     0.030 C 
HETATM    5  C4  UNL     1      24.589   2.276  51.939  1.00  0.00     0.056 C 
HETATM    6  N2  UNL     1      25.989   2.189  52.188  1.00  0.00    -0.237 NA
HETATM    7  C16 UNL     1      23.795   1.824  53.100  1.00  0.00     0.218 C 
HETATM    8  C3  UNL     1      26.523   1.153  52.753  1.00  0.00     0.186 C 
HETATM    9  S2  UNL     1      25.430  -0.163  53.201  1.00  0.00     0.022 SA
HETATM   10  N4  UNL     1      23.983   0.424  53.339  1.00  0.00    -0.242 NA
BRANCH   8  11
HETATM   11  C2  UNL     1      27.947   1.057  53.012  1.00  0.00     0.278 C 
HETATM   12  N1  UNL     1      28.518  -0.226  53.294  1.00  0.00    -0.359 N 
HETATM   13  C1  UNL     1      29.939  -0.406  53.565  1.00  0.00     0.149 C 
HETATM   14  H4  UNL     1      27.894  -1.068  53.308  1.00  0.00     0.162 HD
HETATM   15  O1  UNL     1      28.662   2.067  52.989  1.00  0.00    -0.265 OA
ENDBRANCH   8  11
BRANCH   9  16
HETATM   16  N5  UNL     1      25.943  -0.802  54.739  1.00  0.00    -0.263 NA
HETATM   17  H18 UNL     1      26.080  -0.070  55.449  1.00  0.00     0.132 HD
HETATM   18  H19 UNL     1      26.812  -1.369  54.685  1.00  0.00     0.132 HD
ENDBRANCH   9  16
ENDBRANCH   1   4
BRANCH   2  19
HETATM   19  C8  UNL     1      20.562   4.166  50.609  1.00  0.00     0.214 C 
BRANCH  19  20
HETATM   20  S1  UNL     1      19.507   3.170  51.598  1.00  0.00     0.235 S 
HETATM   21  O2  UNL     1      20.132   3.038  52.947  1.00  0.00    -0.205 OA
HETATM   22  O3  UNL     1      18.181   3.872  51.735  1.00  0.00    -0.205 OA
BRANCH  20  23
HETATM   23  N3  UNL     1      19.298   1.583  50.936  1.00  0.00    -0.284 N 
HETATM   24  H9  UNL     1      19.702   1.332  50.007  1.00  0.00     0.178 HD
BRANCH  23  25
HETATM   25  C9  UNL     1      18.571   0.581  51.644  1.00  0.00     0.051 A 
HETATM   26  C10 UNL     1      17.198   0.473  51.513  1.00  0.00     0.031 A 
HETATM   27  C11 UNL     1      16.437  -0.468  52.170  1.00  0.00     0.005 A 
HETATM   28  C12 UNL     1      17.051  -1.368  53.016  1.00  0.00     0.043 A 
HETATM   29  C13 UNL     1      18.420  -1.266  53.151  1.00  0.00     0.124 A 
HETATM   30  F1  UNL     1      19.035  -2.162  53.994  1.00  0.00    -0.205 F 
HETATM   31  C14 UNL     1      19.190  -0.316  52.487  1.00  0.00     0.004 A 
HETATM   32  C15 UNL     1      20.640  -0.296  52.703  1.00  0.00     0.054 C 
ENDBRANCH  23  25
ENDBRANCH  20  23
ENDBRANCH  19  20
ENDBRANCH   2  19
TORSDOF 7
ENDMDL
MODEL 5
REMARK VINA RESULT:      -7.9      2.713      3.306
REMARK  7 active torsions:
REMARK  status: ('A' for Active; 'I' for Inactive)
REMARK       I    between atoms: N1_2  and  C2_3 
REMARK    1  A    between atoms: C2_3  and  C3_5 
REMARK    2  A    between atoms: C5_8  and  C6_9 
REMARK    3  A    between atoms: C7_10  and  C8_12 
REMARK    4  A    between atoms: C8_12  and  S1_13 
REMARK    5  A    between atoms: S1_13  and  N3_16 
REMARK    6  A    between atoms: N3_16  and  C9_17 
REMARK    7  A    between atoms: S2_27  and  N5_28 
ROOT
HETATM    1  C6  UNL     1      24.614   5.372  49.393  1.00  0.00     0.022 C 
HETATM    2  C7  UNL     1      24.239   4.163  49.770  1.00  0.00     0.027 C 
HETATM    3 CL1  UNL     1      25.453   2.890  49.965  1.00  0.00    -0.088 Cl
ENDROOT
BRANCH   1   4
HETATM    4  C5  UNL     1      26.020   5.652  49.141  1.00  0.00     0.030 C 
HETATM    5  C4  UNL     1      26.467   6.859  48.800  1.00  0.00     0.056 C 
HETATM    6  N2  UNL     1      27.842   7.140  48.551  1.00  0.00    -0.237 NA
HETATM    7  C16 UNL     1      25.621   8.058  48.630  1.00  0.00     0.218 C 
HETATM    8  C3  UNL     1      28.421   8.199  49.020  1.00  0.00     0.186 C 
HETATM    9  S2  UNL     1      27.426   9.288  49.994  1.00  0.00     0.022 SA
HETATM   10  N4  UNL     1      25.922   9.046  49.623  1.00  0.00    -0.242 NA
BRANCH   8  11
HETATM   11  C2  UNL     1      29.820   8.492  48.771  1.00  0.00     0.278 C 
HETATM   12  N1  UNL     1      30.823   7.767  49.493  1.00  0.00    -0.359 N 
HETATM   13  C1  UNL     1      32.248   8.004  49.300  1.00  0.00     0.149 C 
HETATM   14  H4  UNL     1      30.523   7.040  50.186  1.00  0.00     0.162 HD
HETATM   15  O1  UNL     1      30.147   9.356  47.947  1.00  0.00    -0.265 OA
ENDBRANCH   8  11
BRANCH   9  16
HETATM   16  N5  UNL     1      27.862  10.928  49.598  1.00  0.00    -0.263 NA
HETATM   17  H18 UNL     1      27.210  11.365  48.933  1.00  0.00     0.132 HD
HETATM   18  H19 UNL     1      28.825  11.024  49.220  1.00  0.00     0.132 HD
ENDBRANCH   9  16
ENDBRANCH   1   4
BRANCH   2  19
HETATM   19  C8  UNL     1      22.865   3.727  50.059  1.00  0.00     0.214 C 
BRANCH  19  20
HETATM   20  S1  UNL     1      22.648   2.965  51.626  1.00  0.00     0.235 S 
HETATM   21  O2  UNL     1      23.697   3.497  52.545  1.00  0.00    -0.205 OA
HETATM   22  O3  UNL     1      21.289   3.346  52.156  1.00  0.00    -0.205 OA
BRANCH  20  23
HETATM   23  N3  UNL     1      22.816   1.244  51.545  1.00  0.00    -0.284 N 
HETATM   24  H9  UNL     1      22.963   0.762  50.630  1.00  0.00     0.178 HD
BRANCH  23  25
HETATM   25  C9  UNL     1      22.760   0.442  52.723  1.00  0.00     0.051 A 
HETATM   26  C10 UNL     1      21.547   0.110  53.299  1.00  0.00     0.031 A 
HETATM   27  C11 UNL     1      21.424  -0.656  54.437  1.00  0.00     0.005 A 
HETATM   28  C12 UNL     1      22.557  -1.133  55.061  1.00  0.00     0.043 A 
HETATM   29  C13 UNL     1      23.770  -0.804  54.492  1.00  0.00     0.124 A 
HETATM   30  F1  UNL     1      24.903  -1.278  55.113  1.00  0.00    -0.205 F 
HETATM   31  C14 UNL     1      23.896  -0.031  53.342  1.00  0.00     0.004 A 
HETATM   32  C15 UNL     1      25.236   0.257  52.820  1.00  0.00     0.054 C 
ENDBRANCH  23  25
ENDBRANCH  20  23
ENDBRANCH  19  20
ENDBRANCH   2  19
TORSDOF 7
ENDMDL
MODEL 6
REMARK VINA RESULT:      -7.9      1.272      1.839
REMARK  7 active torsions:
REMARK  status: ('A' for Active; 'I' for Inactive)
REMARK       I    between atoms: N1_2  and  C2_3 
REMARK    1  A    between atoms: C2_3  and  C3_5 
REMARK    2  A    between atoms: C5_8  and  C6_9 
REMARK    3  A    between atoms: C7_10  and  C8_12 
REMARK    4  A    between atoms: C8_12  and  S1_13 
REMARK    5  A    between atoms: S1_13  and  N3_16 
REMARK    6  A    between atoms: N3_16  and  C9_17 
REMARK    7  A    between atoms: S2_27  and  N5_28 
ROOT
HETATM    1  C6  UNL     1      26.188   5.822  48.787  1.00  0.00     0.022 C 
HETATM    2  C7  UNL     1      25.127   5.120  49.138  1.00  0.00     0.027 C 
HETATM    3 CL1  UNL     1      25.303   3.404  49.535  1.00  0.00    -0.088 Cl
ENDROOT
BRANCH   1   4
HETATM    4  C5  UNL     1      27.495   5.183  48.730  1.00  0.00     0.030 C 
HETATM    5  C4  UNL     1      28.561   5.767  48.185  1.00  0.00     0.056 C 
HETATM    6  N2  UNL     1      29.844   5.148  48.125  1.00  0.00    -0.237 NA
HETATM    7  C16 UNL     1      28.571   7.112  47.575  1.00  0.00     0.218 C 
HETATM    8  C3  UNL     1      30.930   5.791  48.412  1.00  0.00     0.186 C 
HETATM    9  S2  UNL     1      30.752   7.484  48.892  1.00  0.00     0.022 SA
HETATM   10  N4  UNL     1      29.389   8.015  48.329  1.00  0.00    -0.242 NA
BRANCH   8  11
HETATM   11  C2  UNL     1      32.240   5.168  48.352  1.00  0.00     0.278 C 
HETATM   12  N1  UNL     1      32.376   3.896  47.708  1.00  0.00    -0.359 N 
HETATM   13  C1  UNL     1      33.655   3.205  47.607  1.00  0.00     0.149 C 
HETATM   14  H4  UNL     1      31.526   3.443  47.294  1.00  0.00     0.162 HD
HETATM   15  O1  UNL     1      33.227   5.725  48.849  1.00  0.00    -0.265 OA
ENDBRANCH   8  11
BRANCH   9  16
HETATM   16  N5  UNL     1      32.062   8.392  48.186  1.00  0.00    -0.263 NA
HETATM   17  H18 UNL     1      31.823   9.380  48.029  1.00  0.00     0.132 HD
HETATM   18  H19 UNL     1      32.410   7.995  47.291  1.00  0.00     0.132 HD
ENDBRANCH   9  16
ENDBRANCH   1   4
BRANCH   2  19
HETATM   19  C8  UNL     1      23.747   5.619  49.241  1.00  0.00     0.214 C 
BRANCH  19  20
HETATM   20  S1  UNL     1      23.376   6.455  50.739  1.00  0.00     0.235 S 
HETATM   21  O2  UNL     1      24.665   6.888  51.355  1.00  0.00    -0.205 OA
HETATM   22  O3  UNL     1      22.553   7.675  50.412  1.00  0.00    -0.205 OA
BRANCH  20  23
HETATM   23  N3  UNL     1      22.546   5.438  51.868  1.00  0.00    -0.284 N 
HETATM   24  H9  UNL     1      21.740   5.800  52.425  1.00  0.00     0.178 HD
BRANCH  23  25
HETATM   25  C9  UNL     1      22.941   4.082  52.065  1.00  0.00     0.051 A 
HETATM   26  C10 UNL     1      23.999   3.764  52.898  1.00  0.00     0.031 A 
HETATM   27  C11 UNL     1      24.433   2.477  53.128  1.00  0.00     0.005 A 
HETATM   28  C12 UNL     1      23.797   1.424  52.505  1.00  0.00     0.043 A 
HETATM   29  C13 UNL     1      22.742   1.734  51.673  1.00  0.00     0.124 A 
HETATM   30  F1  UNL     1      22.106   0.686  51.049  1.00  0.00    -0.205 F 
HETATM   31  C14 UNL     1      22.302   3.034  51.440  1.00  0.00     0.004 A 
HETATM   32  C15 UNL     1      21.168   3.251  50.536  1.00  0.00     0.054 C 
ENDBRANCH  23  25
ENDBRANCH  20  23
ENDBRANCH  19  20
ENDBRANCH   2  19
TORSDOF 7
ENDMDL
MODEL 7
REMARK VINA RESULT:      -7.8      3.271      4.086
REMARK  7 active torsions:
REMARK  status: ('A' for Active; 'I' for Inactive)
REMARK       I    between atoms: N1_2  and  C2_3 
REMARK    1  A    between atoms: C2_3  and  C3_5 
REMARK    2  A    between atoms: C5_8  and  C6_9 
REMARK    3  A    between atoms: C7_10  and  C8_12 
REMARK    4  A    between atoms: C8_12  and  S1_13 
REMARK    5  A    between atoms: S1_13  and  N3_16 
REMARK    6  A    between atoms: N3_16  and  C9_17 
REMARK    7  A    between atoms: S2_27  and  N5_28 
ROOT
HETATM    1  C6  UNL     1      24.575   4.664  49.210  1.00  0.00     0.022 C 
HETATM    2  C7  UNL     1      23.680   4.892  50.153  1.00  0.00     0.027 C 
HETATM    3 CL1  UNL     1      24.080   5.971  51.498  1.00  0.00    -0.088 Cl
ENDROOT
BRANCH   1   4
HETATM    4  C5  UNL     1      25.883   5.300  49.280  1.00  0.00     0.030 C 
HETATM    5  C4  UNL     1      26.128   6.506  48.771  1.00  0.00     0.056 C 
HETATM    6  N2  UNL     1      27.405   7.134  48.836  1.00  0.00    -0.237 NA
HETATM    7  C16 UNL     1      25.134   7.351  48.078  1.00  0.00     0.218 C 
HETATM    8  C3  UNL     1      27.541   8.383  49.153  1.00  0.00     0.186 C 
HETATM    9  S2  UNL     1      26.059   9.280  49.510  1.00  0.00     0.022 SA
HETATM   10  N4  UNL     1      24.858   8.541  48.826  1.00  0.00    -0.242 NA
BRANCH   8  11
HETATM   11  C2  UNL     1      28.837   9.030  49.219  1.00  0.00     0.278 C 
HETATM   12  N1  UNL     1      30.011   8.223  49.373  1.00  0.00    -0.359 N 
HETATM   13  C1  UNL     1      31.349   8.797  49.449  1.00  0.00     0.149 C 
HETATM   14  H4  UNL     1      29.907   7.182  49.433  1.00  0.00     0.162 HD
HETATM   15  O1  UNL     1      28.933  10.262  49.144  1.00  0.00    -0.265 OA
ENDBRANCH   8  11
BRANCH   9  16
HETATM   16  N5  UNL     1      26.213  10.880  48.836  1.00  0.00    -0.263 NA
HETATM   17  H18 UNL     1      27.175  11.101  48.547  1.00  0.00     0.132 HD
HETATM   18  H19 UNL     1      25.884  11.634  49.472  1.00  0.00     0.132 HD
ENDBRANCH   9  16
ENDBRANCH   1   4
BRANCH   2  19
HETATM   19  C8  UNL     1      22.324   4.327  50.224  1.00  0.00     0.214 C 
BRANCH  19  20
HETATM   20  S1  UNL     1      22.224   2.742  50.973  1.00  0.00     0.235 S 
HETATM   21  O2  UNL     1      20.808   2.520  51.390  1.00  0.00    -0.205 OA
HETATM   22  O3  UNL     1      22.604   1.706  49.947  1.00  0.00    -0.205 OA
BRANCH  20  23
HETATM   23  N3  UNL     1      23.232   2.618  52.375  1.00  0.00    -0.284 N 
HETATM   24  H9  UNL     1      22.969   3.091  53.269  1.00  0.00     0.178 HD
BRANCH  23  25
HETATM   25  C9  UNL     1      24.444   1.867  52.346  1.00  0.00     0.051 A 
HETATM   26  C10 UNL     1      25.614   2.424  51.861  1.00  0.00     0.031 A 
HETATM   27  C11 UNL     1      26.814   1.752  51.802  1.00  0.00     0.005 A 
HETATM   28  C12 UNL     1      26.887   0.448  52.243  1.00  0.00     0.043 A 
HETATM   29  C13 UNL     1      25.724  -0.114  52.728  1.00  0.00     0.124 A 
HETATM   30  F1  UNL     1      25.792  -1.415  53.169  1.00  0.00    -0.205 F 
HETATM   31  C14 UNL     1      24.510   0.564  52.789  1.00  0.00     0.004 A 
HETATM   32  C15 UNL     1      23.334  -0.129  53.325  1.00  0.00     0.054 C 
ENDBRANCH  23  25
ENDBRANCH  20  23
ENDBRANCH  19  20
ENDBRANCH   2  19
TORSDOF 7
ENDMDL
MODEL 8
REMARK VINA RESULT:      -7.7      2.310      3.028
REMARK  7 active torsions:
REMARK  status: ('A' for Active; 'I' for Inactive)
REMARK       I    between atoms: N1_2  and  C2_3 
REMARK    1  A    between atoms: C2_3  and  C3_5 
REMARK    2  A    between atoms: C5_8  and  C6_9 
REMARK    3  A    between atoms: C7_10  and  C8_12 
REMARK    4  A    between atoms: C8_12  and  S1_13 
REMARK    5  A    between atoms: S1_13  and  N3_16 
REMARK    6  A    between atoms: N3_16  and  C9_17 
REMARK    7  A    between atoms: S2_27  and  N5_28 
ROOT
HETATM    1  C6  UNL     1      25.597   5.177  48.865  1.00  0.00     0.022 C 
HETATM    2  C7  UNL     1      25.320   4.079  49.543  1.00  0.00     0.027 C 
HETATM    3 CL1  UNL     1      26.628   3.181  50.329  1.00  0.00    -0.088 Cl
ENDROOT
BRANCH   1   4
HETATM    4  C5  UNL     1      26.972   5.645  48.769  1.00  0.00     0.030 C 
HETATM    5  C4  UNL     1      27.288   6.911  48.505  1.00  0.00     0.056 C 
HETATM    6  N2  UNL     1      28.632   7.376  48.408  1.00  0.00    -0.237 NA
HETATM    7  C16 UNL     1      26.313   7.998  48.275  1.00  0.00     0.218 C 
HETATM    8  C3  UNL     1      29.016   8.483  48.960  1.00  0.00     0.186 C 
HETATM    9  S2  UNL     1      27.792   9.398  49.850  1.00  0.00     0.022 SA
HETATM   10  N4  UNL     1      26.379   8.978  49.317  1.00  0.00    -0.242 NA
BRANCH   8  11
HETATM   11  C2  UNL     1      30.382   8.963  48.866  1.00  0.00     0.278 C 
HETATM   12  N1  UNL     1      31.326   8.227  48.078  1.00  0.00    -0.359 N 
HETATM   13  C1  UNL     1      32.715   8.643  47.934  1.00  0.00     0.149 C 
HETATM   14  H4  UNL     1      31.008   7.357  47.587  1.00  0.00     0.162 HD
HETATM   15  O1  UNL     1      30.731   9.994  49.455  1.00  0.00    -0.265 OA
ENDBRANCH   8  11
BRANCH   9  16
HETATM   16  N5  UNL     1      28.046  11.094  49.540  1.00  0.00    -0.263 NA
HETATM   17  H18 UNL     1      29.039  11.362  49.570  1.00  0.00     0.132 HD
HETATM   18  H19 UNL     1      27.521  11.719  50.185  1.00  0.00     0.132 HD
ENDBRANCH   9  16
ENDBRANCH   1   4
BRANCH   2  19
HETATM   19  C8  UNL     1      23.989   3.482  49.730  1.00  0.00     0.214 C 
BRANCH  19  20
HETATM   20  S1  UNL     1      22.963   4.315  50.884  1.00  0.00     0.235 S 
HETATM   21  O2  UNL     1      23.646   5.584  51.274  1.00  0.00    -0.205 OA
HETATM   22  O3  UNL     1      21.657   4.646  50.208  1.00  0.00    -0.205 OA
BRANCH  20  23
HETATM   23  N3  UNL     1      22.695   3.379  52.316  1.00  0.00    -0.284 N 
HETATM   24  H9  UNL     1      21.805   3.467  52.856  1.00  0.00     0.178 HD
BRANCH  23  25
HETATM   25  C9  UNL     1      23.679   2.464  52.792  1.00  0.00     0.051 A 
HETATM   26  C10 UNL     1      24.851   2.919  53.370  1.00  0.00     0.031 A 
HETATM   27  C11 UNL     1      25.843   2.090  53.845  1.00  0.00     0.005 A 
HETATM   28  C12 UNL     1      25.688   0.722  53.753  1.00  0.00     0.043 A 
HETATM   29  C13 UNL     1      24.522   0.262  53.178  1.00  0.00     0.124 A 
HETATM   30  F1  UNL     1      24.364  -1.101  53.085  1.00  0.00    -0.205 F 
HETATM   31  C14 UNL     1      23.519   1.099  52.698  1.00  0.00     0.004 A 
HETATM   32  C15 UNL     1      22.317   0.503  52.105  1.00  0.00     0.054 C 
ENDBRANCH  23  25
ENDBRANCH  20  23
ENDBRANCH  19  20
ENDBRANCH   2  19
TORSDOF 7
ENDMDL
MODEL 9
REMARK VINA RESULT:      -7.6      5.684      6.752
REMARK  7 active torsions:
REMARK  status: ('A' for Active; 'I' for Inactive)
REMARK       I    between atoms: N1_2  and  C2_3 
REMARK    1  A    between atoms: C2_3  and  C3_5 
REMARK    2  A    between atoms: C5_8  and  C6_9 
REMARK    3  A    between atoms: C7_10  and  C8_12 
REMARK    4  A    between atoms: C8_12  and  S1_13 
REMARK    5  A    between atoms: S1_13  and  N3_16 
REMARK    6  A    between atoms: N3_16  and  C9_17 
REMARK    7  A    between atoms: S2_27  and  N5_28 
ROOT
HETATM    1  C6  UNL     1      22.766   2.404  50.392  1.00  0.00     0.022 C 
HETATM    2  C7  UNL     1      22.311   3.313  49.550  1.00  0.00     0.027 C 
HETATM    3 CL1  UNL     1      23.448   4.388  48.723  1.00  0.00    -0.088 Cl
ENDROOT
BRANCH   1   4
HETATM    4  C5  UNL     1      24.196   2.290  50.636  1.00  0.00     0.030 C 
HETATM    5  C4  UNL     1      24.704   1.992  51.830  1.00  0.00     0.056 C 
HETATM    6  N2  UNL     1      26.104   1.879  52.076  1.00  0.00    -0.237 NA
HETATM    7  C16 UNL     1      23.910   1.742  53.051  1.00  0.00     0.218 C 
HETATM    8  C3  UNL     1      26.601   0.909  52.776  1.00  0.00     0.186 C 
HETATM    9  S2  UNL     1      25.460  -0.281  53.414  1.00  0.00     0.022 SA
HETATM   10  N4  UNL     1      24.042   0.383  53.482  1.00  0.00    -0.242 NA
BRANCH   8  11
HETATM   11  C2  UNL     1      28.024   0.787  53.032  1.00  0.00     0.278 C 
HETATM   12  N1  UNL     1      28.565  -0.499  53.357  1.00  0.00    -0.359 N 
HETATM   13  C1  UNL     1      29.982  -0.704  53.628  1.00  0.00     0.149 C 
HETATM   14  H4  UNL     1      27.920  -1.324  53.402  1.00  0.00     0.162 HD
HETATM   15  O1  UNL     1      28.763   1.778  52.971  1.00  0.00    -0.265 OA
ENDBRANCH   8  11
BRANCH   9  16
HETATM   16  N5  UNL     1      25.970  -0.721  55.022  1.00  0.00    -0.263 NA
HETATM   17  H18 UNL     1      25.398  -1.472  55.431  1.00  0.00     0.132 HD
HETATM   18  H19 UNL     1      25.983   0.078  55.688  1.00  0.00     0.132 HD
ENDBRANCH   9  16
ENDBRANCH   1   4
BRANCH   2  19
HETATM   19  C8  UNL     1      20.902   3.552  49.201  1.00  0.00     0.214 C 
BRANCH  19  20
HETATM   20  S1  UNL     1      20.072   4.703  50.233  1.00  0.00     0.235 S 
HETATM   21  O2  UNL     1      21.101   5.421  51.042  1.00  0.00    -0.205 OA
HETATM   22  O3  UNL     1      19.354   5.697  49.356  1.00  0.00    -0.205 OA
BRANCH  20  23
HETATM   23  N3  UNL     1      18.967   3.930  51.319  1.00  0.00    -0.284 N 
HETATM   24  H9  UNL     1      18.133   4.439  51.688  1.00  0.00     0.178 HD
BRANCH  23  25
HETATM   25  C9  UNL     1      19.167   2.581  51.736  1.00  0.00     0.051 A 
HETATM   26  C10 UNL     1      20.134   2.263  52.672  1.00  0.00     0.031 A 
HETATM   27  C11 UNL     1      20.381   0.982  53.113  1.00  0.00     0.005 A 
HETATM   28  C12 UNL     1      19.638  -0.066  52.610  1.00  0.00     0.043 A 
HETATM   29  C13 UNL     1      18.673   0.245  51.675  1.00  0.00     0.124 A 
HETATM   30  F1  UNL     1      17.930  -0.798  51.171  1.00  0.00    -0.205 F 
HETATM   31  C14 UNL     1      18.422   1.539  51.229  1.00  0.00     0.004 A 
HETATM   32  C15 UNL     1      17.370   1.757  50.232  1.00  0.00     0.054 C 
ENDBRANCH  23  25
ENDBRANCH  20  23
ENDBRANCH  19  20
ENDBRANCH   2  19
TORSDOF 7
ENDMDL
